# total energy = -381169.820956258 ev
CRYSTAL
PRIMVEC
9.23657205317804 0.00000000000000 0.00000000000000
0.00000000000000 9.23657205317804 0.00000000000000
0.00000000000000 0.00000000000000 13.51865684683369
PRIMCOORD
 96 1
Ni 4.403267967939661 4.632695186492343 1.060011201192896 0.17945245913479418 -0.6609879424541262 0.28615889675511363
Ni 4.84563512354752 6.4260218750907585 9.706720261526904 1.661494942452061 1.6119230450612048 1.767160340402376
Ni 3.8639629863842844 1.2581412182743472 11.480313937133012 0.9645637491341066 -0.575040591758029 0.17858522603849245
Ni 1.4137866975541593 6.53518892272046 12.210862147487184 -0.5877536684493232 0.2563608395570746 0.025843700535981295
Ni 7.746953311639639 3.652667159192724 9.917854448703784 -0.8675172032010544 -1.688177079728938 2.549268581909306
Ni 6.965622426958696 4.271434371965491 6.052722112270432 -0.29633995105317346 1.2441802167850122 0.7613710089595791
Ni 2.5630010190777606 2.5564522893400956 9.730324321956527 -1.4234313585422778 0.29706705902718517 1.3929612149778785
Ni 1.7298437274038183 4.3658321405394425 11.434553187148087 0.1978348182967238 0.17682710569680515 -0.037551218780896616
Ni 5.957940102290151 2.2213494474748305 6.427905212176103 1.0956753550716678 0.9344443040409067 -0.04822078267960083
Ni 6.821337931567921 0.12064810695821636 12.428120182077421 0.43843273859258686 0.8442443487160428 -0.4076142105498335
Ni 3.6221495244208706 4.5891909311123715 9.901902888397794 -0.2548390035959095 -0.77880026017962 -0.9432503323683109
Ni 7.475351904113506 0.3626463003669798 5.993793704860945 0.23803735865753844 1.3054100101297712 0.6815701374808519
Ni 3.007049230838306 0.8430930724621026 6.701266186719198 -0.8281638982144125 -1.2010527894679186 0.874360451375133
Ni 9.103962799465414 7.8739654168901705 5.699966333487502 0.6450902973872632 -0.4232837987662904 -1.470685149322919
Ni 6.506795699570134 5.43563965027926 0.34972248845027976 0.4835882520833026 -0.21303929395130408 0.037440661344961323
Ni 1.5779390598923477 5.645457625908018 2.654023744145165 -0.7766801285128236 -0.6458166340303265 0.3969333337972196
Ni 4.132774949085629 5.641199566092697 11.833177783811472 -0.7736138308826741 0.0010299839264111294 1.9471589018486273
Ni 6.652770487685863 4.608800174036295 2.620686183860041 -1.179105081552234 0.8870287908714207 -0.26410834471297745
Ni 7.318699638456535 3.169271149572585 1.1970690024415707 1.9109734530670055 -1.2219630572580247 -2.2186787085343274
Ni 5.378215880492149 6.940314218945718 2.4559888637580687 0.32431175367575116 0.2243380067935749 -0.45425145079239837
Ni 1.8966562225550498 2.0174336415250114 4.698544557501876 -0.3259760287520515 1.8849765147826119 0.2899103933777458
Ni 4.196839814333079 2.633439119189792 8.224683607830887 0.9949174217252995 -0.06348542214815517 -1.3005318561018633
Ni 5.552574655185937 2.2999342043268065 10.268407305000911 0.649468628960617 -0.3272952617841073 0.4882170091045656
Ni 7.710496560899777 0.7327308123809855 10.17295194890233 1.7109125736532407 1.0921552577335512 1.2299710151641656
P 1.431114507128008 4.3575469352154865 9.169583103482712 -0.6063088057436913 0.4813501067814032 -0.8480992036857586
Ni 7.189396863283662 8.56334622464805 3.945933870629529 -1.120202907899387 -1.1063644593543978 0.7276399352557211
P 8.334454727286884 6.33624239265056 12.587424267632395 -0.007146895457426401 -0.053876952524113654 -0.6711774813926182
Ni 0.26015914180114175 7.463926264218596 0.7816255313362767 1.5785498689173973 -0.9202623561135699 -0.07462935458011663
P 8.380942395509262 2.666034982721835 6.351470729348004 0.3708600337489355 -2.5796024570061573 -2.274236905415606
P 1.9475404991767629 0.5428970845102118 11.034184725640596 -1.9145804536919735 -0.8119525785618726 -1.3633315650369038
P 5.466009499894834 9.129298717195194 5.276399297072933 0.2494276027723511 0.17894852291518212 0.8269076572098081
Ni 3.772363899207387 5.553433656406816 3.532222256824393 0.5955140291210326 1.635581822130725 0.4358634352035139
Ni 7.430037280569102 1.908211174461705 8.273161757376913 -0.6477668157781618 -1.137006866830603 -0.6497041420101907
Ni 1.1424531506237838 3.888190515441963 0.8288669038556836 0.47146447223657517 1.0720312332901665 -0.8362057946822825
Ni 8.510965623319 3.888550741760396 7.910901545730716 1.7929965847391893 1.7652214715084504 0.5077571360200223
Ni 0.2606154284711567 2.6571494002004905 10.962860838248108 -0.01129922706290312 -1.9306519053325393 -0.24383879583066395
Ni 0.2503148030784295 5.716246715766215 4.67580596389372 -0.5024341811452121 -0.3839605756866355 0.2654869702280589
Ni 5.719673484077462 9.118177884185112 10.117295135389993 -2.147370962128276 -0.6032887879704449 -1.042960026955823
Ni 1.0653462453346099 7.79825323401339 3.4011728458357338 -0.9996508226452269 -0.308029728686276 -0.5710507538723455
Ni 7.4771160894166 7.503449556951271 10.741005761640332 -0.8125760710784845 -0.5320987980891804 0.5041645335727575
Ni 0.6853231815607634 1.466952407525947 8.795536101965945 -0.5393943033093291 -0.5635814420784939 0.3032559614467164
Ni 1.4973499668583228 7.919021416411083 7.635932483955848 1.4521809198711442 0.7956687538001845 -0.09400467378293488
Ni 7.955053284826641 6.93288801484264 2.5041963817366577 0.7941160646010839 -3.327727656699424 1.302498492909931
Ni 2.385437153807147 6.96512365205625 9.85619571053202 -0.10541805782619908 -0.09530462354128102 0.6396444437813437
Ni 0.15787888245409587 6.049456060316641 7.8006981546926 0.5446951466969522 0.07867729939724515 -0.2491332114603839
Ni 0.7180160291016152 0.8383473216310559 6.536419234146493 -1.4804355438414634 0.6731631443640793 -0.5081163191316539
Ni 3.8754070994237293 7.6928547078688325 8.060905326669532 0.8378410162928602 0.8275866855547038 -1.0980587677021798
Ni 5.271145534767173 2.4500377402461124 1.872279984683864 -0.043587397672647514 -0.08466745554240904 -0.13085783805554238
Ni 0.0028725739751956276 8.620751521290625 12.258596752965676 0.03696192193632989 0.3016006852314806 -0.2742824570325018
Ni 4.443419347586527 4.549870842969581 5.527237813798931 -0.6527020482962501 0.39356158911150935 0.7420558535707349
Ni 3.021384390997482 2.014736562422898 1.3225441420667878 0.6134585294145951 -0.24505055675057796 -0.9570525283587259
Ni 2.4437383979596703 0.4047604516206919 3.1608510902935234 -1.1249491643351204 0.7756555439030512 -0.6461837875617581
Ni 7.327917737579511 6.692376909568946 6.551533037347818 -0.6015862034570413 -0.1944011100248265 1.0717149876013283
Ni 8.71743995978692 4.026831465177289 12.669226122605142 -1.0659760282350224 0.5992626975301872 -0.007859348143418722
Ni 0.20979857882699665 8.426524879649424 9.904565792182517 2.3714827118436577 -0.11175865533224623 0.07579329298123075
Ni 5.096989964663271 7.926623115387245 12.034470403237318 -0.961463512942228 -0.8026161316522951 0.47991337433487674
P 4.5633931847692155 6.773039895181111 0.32484932299110186 0.8473278727373731 0.4910485650160898 -0.25133947508308324
Ni 7.02977965792882 7.670834719583089 0.6370029774005112 -1.4478069591731648 0.879669265182556 -1.8211928446677472
P 1.0568947817098382 0.2867595462743439 1.3184828212407638 1.4817905152074609 -0.37238238393073286 -0.49489776355885085
Ni 0.08777699357260156 5.869047330787635 10.285210477269967 -0.05545663830640772 -0.4447607376931438 0.19731339857561503
P 7.275075307637085 2.2376889438160563 12.068348303000091 0.21202859329860257 0.7208946461120874 -0.3626327607431368
P 2.012861538252594 4.423551480639113 4.9056100345949165 0.8084263105761689 -0.37574487264506257 0.028951650037343686
P 6.014634182868128 0.37485612524740136 1.8384427258390679 0.2806760192636715 -0.9883711359663494 -0.3565510733254311
Ni 8.24840682004276 9.050492282608799 1.931207468436125 0.49187414624117864 1.6459127717430881 0.9280373720732986
Ni 2.56971600711624 8.609907785448568 12.866611671961834 -0.4317833515968693 0.12747529473655464 -1.6882246451374217
Ni 3.190884728678559 8.182208306601515 1.3976263907149236 0.5187786839415065 0.006547828420846788 2.1109597704890937
Ni 1.3669480395856157 3.2580438456356244 6.971747198029282 0.8081450318903244 0.18805511320214063 -0.26160897532989136
Ni 6.965585480669626 5.796521765343146 4.354291967148416 -0.29680892026979205 1.6360214807713052 1.2796940934209058
Ni 1.7837021802956694 1.696121002055139 12.810928072389922 -0.7303231385148391 0.961899314928066 0.5682767906716342
Ni 2.6844619443955176 5.759529293411768 7.807741041046577 -0.40082315576992905 -2.0884736735714355 1.6418491431966753
Ni 0.9843230334040116 2.24149441159027 2.2525191842487704 -1.8241010194534777 -0.6603212554044047 1.766762847853641
Ni 6.521638871204022 4.966957500281265 11.608335599732381 0.2559366075354625 0.4178669986260933 -1.212152756035822
Ni 3.675213632097716 7.732461129751916 4.041957275922563 -1.0142631732417628 1.9374568440695152 -1.0602614943487483
Ni 3.5464465781163583 3.534069571277895 3.0146601663867343 -1.1496857478498523 -2.5453468782573974 1.1969822189429706
Ni 3.0595037247454955 0.44953011740131316 9.151482192810073 0.26867590947900183 -1.256962713261661 -0.27039057817726336
Ni 5.179472555012135 0.38359022798355885 7.365883744227884 0.5719920347396923 -1.4285455398403915 1.560613853264267
Ni 8.228344985077728 3.4682035744382804 4.159433543964117 0.9691210294874857 0.14644540808115425 -0.14992539620995468
Ni 7.223932406991882 1.5614979612561801 3.1930119112717663 -1.1523362980988219 0.9432174222478465 -0.5073251906889262
Ni 5.742884990185714 3.1730489076299966 4.2526176269421185 0.6917589050883958 0.07588662402598544 -1.206596087883651
Ni 2.562603846470257 6.048615532240297 0.6760422737463693 -0.5659987932707349 -0.39850042117402334 -1.1253705681432555
Ni 4.034497820159323 2.235749263639879 5.397243219363221 -0.4968921682810604 0.4453783166724846 -0.6382974428351459
Ni 5.068569031796143 7.098878455062063 5.626032190772219 0.8489155289394671 -1.2183599132877985 1.0668206356235046
Ni 4.607146827600411 0.7357594844275019 3.627907603572437 1.070649779561608 0.9878348038469051 -1.5555575217872823
Ni 5.056506068414775 3.1807060260397626 12.58983039470808 0.3867214262612243 -0.05569497956945892 0.47910759060412966
Ni 8.600874417770944 1.2929723322951276 0.2321206030258882 0.37632928439362284 1.446649962750586 -0.9820433939761086
Ni 2.7220455569520157 6.4447259339324665 5.779942118122965 -0.9947739541688997 0.4116744966621362 -1.4608985022498
Ni 5.165977922929304 5.527201791167088 7.638081834322498 0.24591033364771198 -0.4618639730323336 -1.3963846388371306
Ni 8.550590518346619 8.494653836694578 7.790072401956056 -2.197599262156209 0.7096720379233907 1.5487834362882424
P 5.654574122736051 4.095062024517386 9.185859791132518 0.24189195651693826 0.810142007715695 -0.17950156720517474
Ni 9.185087613690955 0.9198776213791404 4.029478666789157 0.49147048304485685 -1.02249121757851 0.8374082996308159
P 2.9268480738395164 3.753114882601896 13.052303720827855 1.0670008699551108 -0.196857541985119 0.6345901691868877
Ni 7.3496883384140315 5.596291351728063 8.977942702076414 -1.6882228453652084 2.3372479590305035 -0.763614296467801
P 8.816428304777824 4.8021308681675485 2.1138181967937055 -0.38854408129225987 -0.36154441277496446 0.59802856801277
P 6.333924013011416 7.6961983470296715 8.507737441311505 0.09694961534387174 -0.20617110607656103 -0.3192610786257211
P 1.8029327237566253 8.72096833039311 5.192083247128967 1.2074412094927658 0.0333808894532909 0.2709559637624301
Ni 4.748161576408487 0.6643007430799105 0.10547796066605783 0.0495749827146501 -0.025135361615047036 0.24496159658119745
