# total energy = -340873.33623044734 ev
CRYSTAL
PRIMVEC
9.14654101472678 0.00000000000000 0.00000000000000
0.00000000000000 9.14654101472678 0.00000000000000
0.00000000000000 0.00000000000000 13.38688732158539
PRIMCOORD
 96 1
Ni 6.503922539495196 0.9647405830227194 -0.04533391696398997 1.2584794070165035 -1.2326642457256127 -1.7056220146782626
Ni 0.15150422362666982 7.277582729633016 5.880913200687068 0.38922362385778775 -0.8452241961308089 0.7041020000347809
Ni 3.6888092255455818 3.161035503356866 2.8983011064577835 -0.22358467356731818 0.6882598907962018 -0.6656370111903633
Ni 9.13922399935816 6.3266808634948335 10.155466926751963 0.8347356378946592 0.525851788738204 0.592497868002528
Ni 8.890181974683896 4.5729321941464205 6.358543754531826 -0.11612413138979354 -0.6927688344101488 1.2211709003740323
Ni 7.711558671484044 5.373419189718706 8.371959070849995 -0.42465239697904283 -0.8860540856629773 0.32042424569588684
Ni 7.674021266266504 8.499734422557594 6.970592792981237 -0.36978608395846635 0.5026992618811407 -0.5368465971868109
Ni 2.6963729156713243 5.183509554111547 0.5436164462572586 -0.6044018185289655 0.362845133864259 -1.8575749828412074
Ni 7.3232879961710395 3.4831675390187904 4.971046377133674 -0.03947260417332557 -0.4422526265593093 1.1272901537634714
Ni 6.9093155399951485 6.431820354960628 5.033523656329446 0.3779341669868975 -1.7402555455917321 0.46091343619360625
Ni 2.3344534256487033 2.073100156475705 4.664808286171193 0.12744469860893534 0.250111259102937 0.838986185640897
Ni 1.6447950701887306 5.632421797794992 7.604877073166476 -1.417653832628552 -0.03445586768502453 -0.3745385110417872
Ni 1.0805723811891241 0.1306180967226122 7.347674504404716 1.6971543435268837 -1.127675047906716 -1.2711480036231075
Ni 0.35482085937219887 5.593356920191651 2.1775115832594047 2.8011384755745627 -1.4845459664654108 0.21083611565239815
Ni 2.2241461383866343 2.1894258678686565 0.13650481065974884 0.8946505690827367 0.24545627682942886 1.6056289845223768
Ni 1.6850032654461151 5.487860713617795 5.264621081759974 1.0636376099098328 0.2874760729046404 -0.6928981608991615
Ni 0.6209778920004244 3.5268514199444656 3.952893651930558 0.11439866405825459 -0.4448057319984662 -0.2858020276363271
Ni 6.913678440162976 1.6299776733923335 6.317674264343344 0.010823572978065231 -0.8305516817202987 -0.2602696876931776
Ni 4.364500812543765 6.198784777442967 5.417285086814904 -0.7785272090238915 -1.3465517744754034 -0.9186754712424243
Ni 2.5995293371032657 3.647668083082498 11.73835912053431 0.38124497652768535 -0.6518877799250709 0.20274459689351537
Ni 7.834506478729213 1.4114576568104023 10.523351790966318 0.15987865076792465 1.3487613805322127 -2.2671604581847986
Ni 5.799519959568685 6.637352282992631 7.29523829817381 -0.14817473206743514 -1.350429769373571 -0.1123870329448645
Ni 7.673664551158442 6.067477031511436 12.018667681757218 0.18458720925819821 1.9344483962604946 -0.10829512226367802
Ni 6.868046345954812 4.12388275234449 12.67210847789948 0.3856024821654327 -1.8480860695141654 0.6429650235141443
P 6.033342139632327 7.470071689867697 11.407850682411807 0.06840085717190154 0.5546574001159867 1.0242534516852553
P 1.4800475695117499 5.377873555298858 11.484637725365582 0.028135324783635413 0.8353997538412193 0.1869657367927038
P 8.492755611597316 8.886541651273424 2.1802418258172596 0.3981471515996627 -0.027100198650901717 1.023705035380953
P 6.003240872436684 2.3804056487999996 3.1985692499579126 -0.21148146254588093 -0.8351387868703488 0.3491982325047857
P 8.764627403187509 5.33195791831249 4.4277134736546175 -0.04680847571310648 2.475092512816524 -1.33861503612683
P 1.8880839204278497 3.7122609572653116 1.8531203519130912 -0.9306601544081262 -1.012647749125527 0.24025596357541207
P 5.148533180439063 8.041922594255078 1.3399737784631405 -0.7652667444695594 1.06048852275789 -1.926852071970475
P 2.153818382851141 7.9635092962701926 5.01373785833564 1.2125790449399632 -0.0635376155423293 0.39963607744036334
Ni 6.26778628449977 8.955515718706529 2.8765076426634772 0.2354559710836074 2.323237503684025 -0.7241825728347399
Ni 4.781756877022067 1.895776161604251 7.684194049425117 1.6283878754854473 1.2739829019687414 -0.6764978651642671
Ni 0.0504578093623491 8.83880585258182 9.468986994370228 0.7310574455777022 1.1752936782259435 0.3720779653164366
Ni 5.219848762427649 4.34457964573972 8.944944146350187 -0.6738198041114718 1.3252296159588597 -0.6514422077472201
Ni 4.551172572554674 7.162729611378473 9.937796623850515 0.2538750970207434 -0.22181395482014057 0.20641201844277351
Ni 7.676289608492125 8.619105932180917 4.582144590475638 -1.4280680859833406 -0.4683737491263934 0.6075583618800763
Ni 6.826429583347647 2.7538040480692128 8.510338922462374 -0.13231539643767534 1.4322106473968044 0.8196118948793434
Ni 7.258118889890588 7.694482079003258 9.0620793266422 -1.746872022466985 -1.4242448555825085 2.3380210897511025
Ni 5.825898584482766 2.673616321085252 11.001197288530037 1.5853830897891472 1.850298760894768 -0.12258325675157598
Ni 6.138481631098123 6.638559626435301 2.678676187694985 0.322008045243239 -2.4250362195900816 0.022760176514651124
Ni 4.137062918260298 1.0320774195752362 3.638288305048729 1.15711546465502 -0.9440838840131998 0.555019925661728
Ni 0.21904228408629817 0.6024561460049277 0.3055530150241778 -2.410904922395022 0.5134084207685287 0.8005880454786728
Ni 5.492443130775198 6.074382670141856 0.08934890268227594 -0.5362251615527281 0.5342690662676218 -0.3426329205824421
Ni 0.4204299142859259 7.210163574209409 0.12576311263648401 0.6261037289824314 -0.40643355997817093 -0.7658557842038101
Ni 0.47231549873464396 3.996315941776988 13.113996177916485 -0.3245657786680862 0.7414776124697617 -0.4614340845837666
Ni 6.922660343653138 2.737660402794125 1.2253081643038595 0.042479252210133295 0.7347868307131474 0.6190830746902241
Ni 4.89649109024059 2.6990985849585627 5.453336179082189 -0.015636678095992427 0.05788710212477127 -0.9574680186295899
Ni 3.699190549844292 0.5220617071891167 6.089842154132763 -0.045442191493199155 -0.7907286361860898 -1.3646510551792757
Ni 7.895632813784967 8.685381769950482 11.655293891678655 0.4118727287158713 -1.8658786176108961 1.1097089503465984
Ni 2.2185118689875103 7.399195141858263 9.297353977453538 -0.9524176006898757 0.5225353227704613 0.5220236732413654
Ni 4.611484865440751 3.4129586885193177 0.2780658293127375 -0.3939760509411086 1.8333757598871843 -1.5536425641527567
Ni 2.158784954740304 2.5384670278361368 7.259682033787196 -0.7500000481184761 -0.06154166815822304 -1.340034542182176
Ni 5.120288661113585 8.649015122010681 8.167005204223875 -0.8808743412342507 0.9252536386805743 -0.25998223835974577
Ni 0.5729686117259738 0.2587885790114492 4.559922153897534 1.7935424299403306 1.3827544496482058 0.6100662159035946
P 0.36129020798583583 3.8819841763726877 8.350941233752192 0.612988531756712 -1.0976797870962063 1.2458036113210478
P 2.249957677744309 7.1655924787841965 1.3811121769638544 -0.7514689193545186 1.5611710113193178 0.5670897123420685
P 4.411075000498861 5.131520613746903 1.753187071716747 2.935049498634132 -0.5194304585928925 0.8522695330133645
P 0.10403184532255781 7.146128639041768 8.126229008755962 -0.0756390267915536 0.3144232909174456 -1.4725057474714254
P 6.757656739821652 4.793949216484782 10.425332881849902 0.6095327119976277 -0.5035487543656296 -0.11398291667707465
P 0.2770322701534826 2.105826481005032 5.777794180179498 -0.11973884532424539 -0.05404201734706821 -0.45414680689373393
P 6.216510774351249 4.382839627714614 6.699333819653611 -0.012092669498475948 -0.009103762073481096 0.727519864738089
P 3.605374476424139 5.9159554294564245 8.402159120690948 1.5321656252259033 0.1947302112294711 0.051688686623543235
Ni 3.6819676127037884 4.249748306242776 6.924220743587377 0.8543364428447222 0.4867571367295875 0.4193104159408391
Ni 8.09160660622917 1.616651162816808 3.5263739704921373 -0.6712206759257279 0.17697468701826297 -0.4961506621293455
Ni 0.6408853389926212 7.32133978288855 3.526427935085408 0.2097128006812324 0.7084515352527283 -0.5261531220287068
Ni 2.8106498018282307 5.653742385407586 3.1032010084906316 -0.19710771032271215 0.3268957123528434 -0.601851541303286
Ni 4.845343631669324 1.5596407713156077 1.3476715075642813 -1.1510774859910562 -2.25954819305518 1.397874850229412
Ni 4.205222943523726 7.742217877694861 3.4260528769475416 -1.9045248692281849 0.5484163043022813 0.14968448384374222
Ni 2.449059587289974 4.493585948955836 9.525586706170097 -0.6727792786620994 -0.43374227509545293 0.31950584764667556
Ni 1.6178767993419423 1.7373672140012848 9.31390007054285 -1.2745346607071533 0.07470674478527135 0.3971472495802386
Ni 3.1726058780157813 7.494794790818722 6.9858400772155544 -0.5125157337509302 0.8972183298099129 -0.1871228311958584
Ni 3.195380765684318 6.865796296811656 12.099925554065363 -0.7486512474000655 -0.14423863023782255 -0.34464866546089035
Ni 7.293406245964971 7.536942052817364 0.7536868880487505 0.3476283169145046 1.260016155376004 -0.193802300098563
Ni 4.388309259371556 9.062457078795095 12.634048805177573 2.083236593542212 -0.6822337392067799 1.4827780759317108
Ni 2.9727813917127612 0.2137363755174154 10.847046970524849 0.12796071901340544 -0.19191819570197272 -1.4517800848882998
Ni 0.09446181923115625 2.682140897513797 1.6325844376435517 0.029891131132477555 -0.848791601767093 0.3915646132861385
Ni 8.92083203435348 3.989410303146568 10.685507161858053 -0.20565559989272325 -0.8516686662045718 -0.711994001188348
Ni 3.829848891348327 2.5139177111685256 9.6544093368488 -0.43337949243939555 -0.1356192639999277 1.0097873968585964
Ni 4.748079312204577 4.8996009142595875 11.406418334054822 -0.07473245581688419 0.2147241378528947 -0.1259136066763896
Ni 1.1252989678152865 1.5188197577956564 11.520126305347075 -1.6837555536224742 0.005388775115739106 0.6898169508706765
Ni 5.412365162286027 0.504082351088698 10.525881724271185 0.6994066514416406 -1.642979914367009 -0.675391776584282
Ni 8.7132421345442 1.6992627232273394 7.873163420593591 1.33148896660501 0.8593053568142233 -0.08553648841092365
Ni 7.517267842626592 4.401343080627647 2.919157964429898 2.3136552593122284 0.4994254762258754 -2.8466881391799035
Ni 2.1993224254820527 8.985763330561891 13.188921899729477 0.4516088709632287 -1.77205932036589 0.06836820416175322
Ni 2.255262671659069 0.527713355016582 2.1972031718785185 -0.3612474503598359 -0.2636391183860427 0.037561503193541755
Ni 5.592460559150881 4.483552193223955 3.7489715151554477 -3.5757313825410546 0.8775679025688371 0.6300449730183666
P 4.037740627018274 2.029901042235344 11.820996291260293 -0.7169559731793137 -1.2574363104639699 1.236774154128928
P 5.429963107617057 7.984619513434443 5.298878537291595 0.8457345601083242 2.3857006552152527 0.23328904533927566
P 3.4405446568760674 4.286471669290638 4.758355451279114 -0.4046908662554514 -1.0336708883444135 0.5198528908422918
P 3.1990210890947908 0.7271015513028194 8.249347856322176 -1.3698012319216473 -1.4134727046676687 0.5830740035854667
P 1.1195092072152129 8.231173678893509 11.195360065810236 0.3012114202128619 0.06848364669369496 1.6344405094374301
P 8.046559890659877 5.420459851276652 0.8579592874057189 -2.8218780221147597 -0.3614721647761323 -1.946202708582945
P 6.889403519732336 0.6132435767343543 8.648464500228494 -0.3583598443993957 0.8997426388936633 -0.3573362882308878
P 8.237073197988371 2.139046718760905 12.401264757543801 0.0041664726728637925 0.9234140143686742 1.7541852682989465
