# total energy = -340876.96258490643 ev
CRYSTAL
PRIMVEC
9.14414471969048 0.00000000000000 0.00000000000000

0.00000000000000 9.14414471969048 0.00000000000000

0.00000000000000 0.00000000000000 13.38338010157788

PRIMCOORD
 96 1
Ni 6.90477101141203 4.463037514307238 12.679280030929466 -1.0823359576502845 1.601878773451325 1.2187684615801269
Ni 2.8921283388245307 7.16279133927328 4.929700703664852 1.2651838156198727 -0.303443137756858 0.34406888169802036
Ni 3.5523264339889487 3.5719863448547984 6.226336748694234 0.743927616672151 -0.7003034522242972 -0.3900731163422766
Ni 8.464487753918085 4.550089770792303 1.3346016189474852 1.4208422576588626 0.3371587848417484 0.2214874247186573
Ni 0.9892409940466237 3.1431076753524296 0.03276164123263584 0.24382388343232847 0.3153442600698182 -0.05672650615776682
Ni 2.2860270030472614 8.926916289916642 10.841193581194318 -0.9021224519797495 -0.13473274762991636 -0.27787814480356016
Ni 9.038776610671034 4.0169129881104535 3.8833353239577395 -0.4177834377733514 0.740726336126034 -1.7738053565227192
Ni 5.109738852058634 1.5747314279208116 0.9445023522316203 0.6987469063704547 0.576946036310858 1.9649185398248934
Ni 7.770831233703368 5.929721729767174 10.713690372291921 0.5173848889177735 -0.9008379288403712 0.7851040909104609
Ni 0.2855286580276387 1.8199316650686095 2.076498073940245 -0.047180000119912295 0.41558694434266485 0.019833232675843263
Ni 9.078206162137798 1.4545956563135853 6.813518849317344 -1.3013803201450878 -0.15102659969393345 -0.6652194640369705
Ni 6.370716390849658 1.864994009602055 6.5724709682273055 1.3235781963983655 0.0032048800905428677 -0.13851149794605824
Ni 1.5488169221562447 2.8676951844833445 4.9687535163745595 1.2754013795828227 -1.6706393279554907 -1.1590417351434554
Ni 3.7534610383634757 7.260496524204259 11.91951957506809 0.9258902438233086 -0.14547353108618816 -0.14128237582297604
Ni 5.789916903149509 9.180904050014243 4.711739044418074 -0.15203910011884783 1.1679012424166144 2.346455593671701
Ni 1.1185574868209722 8.913392100069855 8.128088390714217 0.8877440717708905 -1.3222376232100712 0.3661816544366597
Ni 2.8301401826572765 6.589197437509078 9.098048041480965 2.1913764211749487 0.3396584113351505 -0.17571818890334254
Ni 6.723972984602921 7.526563699303624 3.6753435255560953 1.2194991690985644 -1.78233267726744 -0.5028141901924501
Ni 6.934352319156692 8.300853286502093 10.44954255314174 -0.4713546861315882 -1.3120249443431276 0.8671307663959131
Ni 2.8406010840668268 4.661895226679162 11.823212529844731 -0.07256887250666212 0.19793534843033006 0.979968770835267
Ni 4.051477854655994 8.034466066342121 6.975283339164934 -0.7775944127969769 0.6937224565726697 -0.02835901075866729
Ni 0.7492291445384924 6.7449770847233195 1.0419899065213873 0.29617154379610927 0.14793381970122266 -0.3872204773848299
Ni 7.602706991294291 5.834522040453516 5.416440776881564 0.5216146107284049 0.05218979462967786 -1.4355579666024827
Ni 2.1143365442485647 8.686397854798294 13.25336040118579 -0.0376391505090126 0.15021515953623163 -0.03563060471941605
P 4.296019713393401 8.61779848209336 10.064555777665454 -0.8990746662923613 0.754864318189313 1.2806795972626266
P 7.548802258943507 2.665975354855135 8.438461689589536 -0.15878567481406203 -0.6868378136376946 -1.3702074662211305
P 4.837435370349731 0.361359220273369 2.8612193012855793 -0.15817169537914696 0.1940336993830787 -2.004794807194541
P 2.9698627119736423 4.532094094241609 4.364306356353398 -0.14082034858489295 0.1275215745934578 1.3519384927086135
P 6.594848518864937 6.928234886426807 12.464463957421223 -0.8209542678398507 -0.5460460042978919 0.14770087775481014
P 1.5055011092392536 3.9681015442956133 2.123339869010665 -0.5595844051039589 -0.8111334250946868 -0.6330937871470195
P 9.109085938414065 -0.24006579996120492 0.3837148249639875 -0.580165057468788 0.3599570136831865 1.696279654231414
P 7.615572802730687 9.19571756424805 5.834859459388841 -0.12163529101600988 -0.6805753776677506 1.5040683527690548
Ni 4.613412972069518 0.3124737088873596 12.549167083161436 -1.4861971289155886 -0.3857922295787356 -1.7981285066491162
Ni 4.757579555656025 3.262447906380433 12.476387921964976 0.5680387065188991 -0.7939448291305423 -1.2323567417875227
Ni 9.09703395584607 6.144206785241301 7.112998728744065 -0.28101771887380633 0.7031337225842407 1.7565542827517553
Ni 7.4918433823000745 7.4645023899796605 1.3237886679712678 1.524927455606251 -0.07055081363536882 -1.4048559095329354
Ni 8.734742947239106 1.177573795996877 4.351204625986612 -0.9731926284536984 1.312321906758256 0.41760577454490666
Ni 2.556154178344039 8.264916798268237 2.257949907087451 0.9432935269014205 0.2158047725115832 1.2598672885029658
Ni 4.596285989254756 5.4726516624976345 0.04397419132738242 0.9307542567838293 -0.004559851456540534 0.5878853089311811
Ni 2.632343191057649 1.4405593943698276 1.7658696534308986 0.8038538607141381 -0.10577981204099203 0.4160553993386512
Ni 5.592055902537759 0.2085962263589619 8.557734253947583 -0.4138928444696936 1.5817496068016177 -1.2135653201126326
Ni 8.499738431307785 3.477527331252831 11.545320146963173 1.0540697637157395 0.6348555070331324 -1.3763714289399975
Ni 5.420557470775427 5.595238064854651 10.972952474988325 -1.2076492117385136 0.20339739998616582 1.556794736628493
Ni 8.819765203625465 1.323742947248324 12.235674716566887 0.33524177032469354 -1.851043866590909 0.4293361756079574
Ni 4.886511994357644 2.224806955025463 4.54021775229427 0.16684274079058364 1.1039789898413568 -0.7709403978155691
Ni 6.5750423016856665 5.598785992955092 2.2281454822148223 -0.6709468534390509 -0.6508274569813566 1.0118090552743155
Ni 5.636423292082458 4.811008792488192 4.812650166441876 -1.4145492255612993 -0.4529669276530198 0.008420362853211304
Ni 8.798404481866104 7.691853256890184 11.966374171940933 -1.0385318159811403 1.7225828109023174 0.44306252405511437
Ni 1.5383377324575171 2.2604599747770675 11.156680285723676 1.193291657465261 0.14018965697942953 0.20424766380160309
Ni 3.3864882277270625 0.18854220286133613 4.536818873750625 0.14215140869149068 0.8317490444625095 -1.194027250079705
Ni 6.477062792417024 7.297374859330759 7.136633599262652 0.5572261892844275 1.0630233733646015 -2.1427352631284777
Ni 1.4925987212245027 6.635027890187981 11.601851077639852 1.7352835462984373 -1.4443938197265576 0.67967883399541
Ni 0.4240816512511012 1.8855317583484266 9.040258876508872 1.053946350763998 1.4194978278158261 -0.07425268796698825
Ni 5.2355439933108965 7.767228440735393 1.0688874078292465 -1.2257821738937986 0.7540415651777014 -0.17187567522880076
Ni 3.3030021876316167 3.4207056167782306 0.7799434117977033 -0.9578634542957954 1.442523085066406 1.1123656712431553
Ni 0.09157586481312888 8.496812305039379 2.8247231914028905 0.18462140493024334 -1.1120756508065621 -0.5677887952916222
P 3.1209971337367897 6.7642346532272635 0.8329309864462338 -0.35416611803302234 0.13983870139791402 -0.06902512101946177
P 1.622546159975476 4.642354189692966 10.06826281388174 0.20682133806605027 0.5774342888011862 -0.2370891358116562
P 5.874070465799935 3.838282123568882 1.299795346984801 0.10136111414800608 -1.030495318829909 -1.0548974018233575
P 7.3206649955983485 3.4283226892206735 5.0755937017497175 -0.7803028128670755 -0.09644413646236294 0.025433609581756198
P 5.236824173553324 7.033237098739622 5.273011211348912 -0.4341989030168974 -0.7779301988698409 -0.2529975795117965
P 4.240267863835686 1.248148303932984 6.432869141619511 2.064474739553677 0.08697347796776633 0.6769951165156599
P 2.9324997371839387 1.7079341821453862 12.930526376479357 -0.3244331097449638 -0.04341076288546717 -0.8077033163672154
P 4.689044191963212 4.743963924363349 9.16389502666468 0.18164766701390006 1.8558533721644102 -1.0364422804419633
Ni 7.107012057281799 2.5553312053310497 2.9061344250911456 -0.7284284925952874 2.3129962855719906 1.2954115041561627
Ni 7.604014603970485 2.4459306594710366 0.6427730132360624 -0.7661167511746806 -0.5455127575022412 -1.2417857484109065
Ni 2.065881722072686 6.000104210666916 3.0586642433185394 -0.4440225739755385 -0.4660407301178425 -2.1586190242382695
Ni 0.32582873205925433 8.165455937576214 5.469211635303341 0.03241081223053773 0.3489313519966442 -0.5314485660996913
Ni 7.148078410629953 0.41322572279531655 2.461390664727266 -1.200621872578087 -0.335340500686087 -1.0353109950509978
Ni 9.131937155741396 3.8302535646199445 6.316687298132468 -1.3686452639403333 0.9201343151761379 1.0894879953140333
Ni 6.5797423920042934 3.8094597798250875 9.96687070985257 0.01856336482448416 -0.6976012228017857 0.5349205838086917
Ni 6.7714036625848575 4.450052828991188 7.384333845541019 0.6447665954992574 0.2583377607777873 -0.3199362503158748
Ni 5.087299121237799 1.7557031934771072 10.50432055130075 -0.39435580287803046 -1.275453572976997 -0.5844012070373227
Ni 0.7208448053204995 6.934407184024225 9.516359737496552 -2.724055517247631 0.010917932464084424 -0.5686891956187046
Ni 7.514740320350349 1.3323658755955317 10.18991834231962 -0.7074745160514396 1.979734007571171 -0.05878390290742779
Ni 4.305630209356195 4.224622232444305 2.8041397219335753 0.7633530723866144 -0.766473620293467 -0.6055601005031248
Ni 6.861564928230104 9.026496024488319 12.85734578733545 0.6326351023430459 1.1201627986900708 0.7933115664219176
Ni 1.0877234312676485 5.81305158895909 5.112759163016305 -0.8999179881292632 -1.221124363406813 0.2717293515933449
Ni 4.944970510713635 2.8841180681647707 8.187443033239905 -0.12168825574113235 -0.9492908821354361 -0.2649704356029565
Ni 7.948483674773941 8.963684895308075 8.405511678978371 -0.5361904516600507 -0.7803727468730626 -1.5915629933476139
Ni 5.3899977395597665 7.106920615835911 9.11220774937667 -0.873960901943869 -2.0679351872984513 0.2882093515262391
Ni 2.942686314255826 1.1849165441016571 8.983098828684488 0.712657860024592 0.304286716704076 -0.8124050927182589
Ni 3.4099155261634846 3.319351918156333 9.993770954403805 -0.7676411582390069 -0.05584718887660705 -0.052742324699038196
Ni 4.617162071350912 5.529043602176563 7.079754276677141 -0.38880890491787234 0.5543370406620904 0.46170610729823064
Ni 2.101306138209571 4.8615301913411315 7.602709734537668 -0.6335699554524895 0.3865059678163085 0.7779757073957957
Ni 4.527439724645926 6.517845677282926 3.0441570579284596 -0.4550353801462744 1.1608618190713296 0.6108455172717803
Ni 2.2310889823579467 0.8821255699193434 6.433243137133192 -0.8264106629687316 -1.0202512725043977 -0.3377095151388958
Ni 8.925901289867289 4.356645392016929 9.068604810319593 -0.20869824337378898 0.3997116678733052 -0.5553333431370888
P 7.609574243880455 6.501971442276827 8.694392580412252 0.898904459263084 -0.11599403356983248 0.5992603835373421
P 1.7239547234649066 2.7751107205220746 7.196042192241415 -0.35210820706272905 0.37467117996490956 1.2178757745625284
P 1.781453104639076 7.261237199915949 6.798221609834794 1.3919302026102027 -0.45277615179845254 1.3464229622070232
P 1.5091587670747604 0.7530943744561645 3.6272169781709533 1.0262239451480648 0.19901881130249596 0.31300918417873835
P 6.565404373289105 2.128034472842538 12.002402101620676 0.9651561313024668 -0.31874840065536075 0.761262765516489
P 8.621611590386875 6.383115850912027 3.140865531099264 0.06892716198901677 -0.8679836013145116 0.09869333750785583
P 0.23775324579470564 5.2615133639429965 12.76185531422387 -0.5188984973488224 -0.740582611459318 -0.11747781720421058
P 0.15396910658566548 9.253599999494947 10.177123855211017 0.7460012113717281 -1.6511462522278855 1.2769057320424912
