# total energy = -340889.3902647386 ev
CRYSTAL
PRIMVEC
9.08810801857233 0.00000000000000 0.00000000000000

0.00000000000000 9.08810801857233 0.00000000000000

0.00000000000000 0.00000000000000 13.30136472521749

PRIMCOORD
 96 1
Ni 6.3735900376797865 2.0230400822996266 11.486380505068585 0.7796299551697671 -0.5385849200341564 0.5936211829736938
Ni 4.6855557886965515 0.23128325788261253 6.545627920178818 0.7533795061136702 0.3534480089200751 -2.165630679669412
Ni 2.69144315383456 1.659452149645704 5.002018246658954 1.5170796774270583 -0.7969604760284146 -1.156069539889009
Ni 3.8847026326639496 4.126173659499621 4.674431944630053 -2.4579795072853217 0.6238753538725449 -1.1294784196640417
Ni 5.272438532391214 4.823158830372085 2.708530614303375 -0.281414954312225 -0.028853176786266435 -0.6251848167125877
Ni 7.597794523900047 6.062940333528602 2.939827504347834 -0.33210708135045386 0.04998661633077198 -1.9876118676573509
Ni 5.0003951105884665 4.480528074529718 11.377601306400654 0.24504104366888121 -0.08853670868982817 0.26420296130931276
Ni 5.371807904142107 7.911379686902112 12.610145949238422 0.8016864207491741 0.24075244359585635 0.4553662811231319
Ni 1.8295633532704727 6.596666734130987 0.3059184351797624 -0.17397883761473262 -0.4569238554182389 -0.18772678332844445
Ni 2.7868864629737473 1.7899210266217258 0.15364173449298088 -0.5853743695838692 -0.8489301842274863 1.6167963139931056
Ni 0.8272004896381462 0.1827155004677644 4.79770940182681 -0.7810633451821839 -0.785168368489493 -0.13620521841038477
Ni 8.564387503658738 2.154417770065395 1.3368006902051273 0.4384787613391739 0.6094630351019569 -0.05120557633953762
Ni 6.718765463733442 0.7200435182299141 4.988304291841678 0.15231575081900217 -0.8419763786174725 -0.5796824614054145
Ni 0.8434300327214409 7.267096453727055 2.513532536012185 0.3365954561391107 0.6426708893124932 -0.11912049501395613
Ni 7.983911876031788 3.8011920091941342 3.8265232923367414 -0.6742139542260969 0.24475539410766234 -0.11429479149053864
Ni 7.640190547241726 4.157055050135211 12.797309169711205 0.9905804849128425 -2.0093243196337784 0.08456589696753823
Ni 8.052799733894581 8.880499160656298 6.8108707108418916 -0.01441823230785904 -0.2346841259145894 0.4384887886415029
Ni 6.761506835175225 0.6718474644280724 0.5589668026660163 -0.1391056798866314 -1.040060336810525 -1.371696134951515
Ni 2.140176704990066 6.322842043180335 9.068990153692903 -0.25022078809760784 0.6891032126331035 1.8283417970077027
Ni 0.05710694359530717 4.728060869333 1.5190027125766847 0.44180396905766495 0.5036857941641262 -0.3046793241568043
Ni 6.252463735622359 2.150900672309076 7.1663493248189045 -0.22370294431273732 -0.21857102240281068 0.47273973940457303
Ni 3.4698668595762157 4.443930264026623 0.6551362516262119 0.10968326086045627 0.3860506254464448 -1.4391767943019924
Ni 6.2444298482409994 5.713893373510626 4.790313499619852 -0.33581024123365394 0.3339377068012894 0.12467947715897239
Ni 5.3397450594798475 2.974192366740522 9.513681270034601 -0.012005766211624485 -0.48473444987260383 -1.1000665421608282
P 0.2912220558987701 5.499114119569811 12.40489284999573 0.41394683763608064 -0.28452110404137454 1.5998781980815284
P 4.019988206825628 6.156529668656708 12.723061145810487 -0.6357193976953245 0.06813783331850201 0.4915491588015921
P 2.2148173351519542 8.705116854451 1.1653335408820564 0.22283211167200978 0.20842184978395073 0.20543062836611073
P 6.425028728379444 7.691556533078204 5.785881184977244 -0.7526958497830842 1.0627616350627824 0.2147223380806818
P 4.649485088451509 1.01343308786223 12.530630458000331 0.812083447712782 -0.015428161629612141 1.252937651262668
P 4.281344013740956 6.0547155958813965 8.073063488073561 -1.6069016805872132 -0.3236700063266942 -0.17268994359998
P 4.542772525519463 1.304361597875912 3.8790107506877662 0.5984607704541822 -0.5330069117257465 -0.8038803430766993
P 0.5444421886242861 5.593339622250739 3.814857797039554 -1.4340297028834141 -0.4790967919708523 -0.969123343480331
Ni 1.4641759752528516 1.1021511971572933 2.6145295878875148 0.19068715150834903 0.7553165752353831 -0.4266295753100717
Ni 1.9666938133353373 6.742748980474856 4.9344072679557565 0.383475665630417 1.1275876303992323 -1.175582927331588
Ni 5.9507749058580774 5.556705459316054 9.26554411605614 0.4280879050231531 -0.5243790608474195 0.5654593758274971
Ni 8.506369022841314 2.4662852806748385 10.097877569034774 0.18852202553623015 -0.3974382984580962 -0.28071664269361973
Ni 2.2423724782970713 5.5075933242381465 6.857545415381698 1.4228855133411367 -2.0530672690476837 0.7021536180591584
Ni 0.25988080700356886 -0.04137179358163452 9.1473614521467 0.8695445180437282 0.5597217020127716 0.11980877933023239
Ni 1.2761611990700747 1.2622473058790544 11.24836568566632 0.36904097826232574 -0.5239733407685686 0.7299590703072009
Ni 3.7936307034234424 7.2566269534291745 1.58874121733868 1.3310081703138494 -1.3987513392970945 -0.7929462126626989
Ni 5.860320967954598 7.772068080941856 8.119179273977673 -0.8803472650861871 0.39090281133242355 0.2303109365475582
Ni 5.811708678811052 2.826110736659211 4.668539215469336 -0.20132534794848553 1.0416467074610383 0.3618323763290285
Ni 0.8362231631587503 7.512157283182225 7.345612253096423 0.4847768730747652 1.1437742674614237 -0.9824231459130307
Ni 5.040755397761113 4.517262206651276 6.486304387067319 -0.1135280885278432 0.07583031686675328 2.8873167113345435
Ni 8.018555743336929 6.993853401681842 9.270891558743006 0.8524371689394803 0.2700216248736188 -0.27445832048873375
Ni 4.5403096482792495 0.22963376629922244 10.441424406153205 0.5008696648715697 -0.6371628150100703 0.39228066551655666
Ni 8.256991342134848 7.53703143449759 4.591098539264239 0.2713490854357907 0.2720548532535637 0.9503455486521954
Ni 7.275303015158466 6.214539061366234 7.074783002508776 0.15840489443587558 -0.7894268866555307 -0.20312049217569536
Ni 2.2691551322709036 5.127910352497812 2.6538483778951116 1.2556740763572245 0.6831752771844428 0.0032642725735685715
Ni 2.571834565796009 5.053705951515002 11.496928163094383 -1.529491935048482 -0.5154488482373252 0.17129769123814367
Ni 1.2207691814350194 3.3921908013765734 4.042457644791323 0.048710834942141915 -0.29805873351649315 -0.22109070350087087
Ni 3.633580035241168 2.9726928289374404 2.353610010151266 0.6089017632818482 -1.4025491157766297 1.8013380147253493
Ni 1.0405520018282686 3.2425823691684883 8.242695748412133 0.0410368633366519 0.38397703074686773 -1.2706126999449276
Ni 3.556303853789015 2.5675904194078925 7.115631321075516 1.5746559331796302 -0.1720075728209747 1.381191218926144
Ni 4.120639001790064 6.806965550878351 5.916606346595974 1.2980710532661968 1.0470475667616355 0.2445545909507659
Ni 0.9206798586606917 7.2007805303992445 11.311347182206548 -0.11775395368373268 0.6130296694072926 -0.5241484328938522
P 9.396376517348058 5.596893072438648 8.052978769620161 -0.2469775985699618 -0.428449659237946 1.0512328084875766
P 8.382416319227776 1.6512183238905995 7.862835558567798 0.22321597737398977 0.24118644580948143 1.5518453630430178
P 1.7662283293330319 3.187544787741434 10.233218580654627 -1.0241143550042298 -0.16076413869667153 1.8043958277150665
P 3.946965259869489 6.5013870109339535 3.72061775338599 0.17222817347221306 -1.77306282192974 -0.20312177772727597
P 7.065185960569052 4.0050291812264 10.645560576935296 -0.9683898077484162 0.5028594416080887 -1.1382895901977688
P 6.251182312408816 7.593368615353982 10.489429609689198 -0.5551196844643859 1.1300715731633506 -0.8069278716537716
P 2.688807602544294 8.632402903163372 5.910967175645596 -1.20211131263942 0.14458855737807358 0.6516895478713358
P 7.121205057649033 4.041245291197801 1.74475313037132 -1.6066250298870588 -0.4201470529095216 -0.45964691077635683
Ni 5.412386305904294 2.7376470943852764 0.5325949311691495 -0.36454566149513346 0.8266626310785377 -0.3901134826619088
Ni 1.3262912022324975 1.1561163818524463 6.9572655880974335 -0.2276454739002531 -0.24387427705428963 0.6419648643844041
Ni 7.055179953773942 0.3902969729537856 9.346230155591421 -1.4044064807003427 0.9081995114117649 -0.21334011302117453
Ni 2.6821641956712465 1.3703957898588999 9.234232857916998 -0.5175376124455539 0.6917802452446344 -0.6873692606611324
Ni 6.465316310688911 1.882828753657521 2.573867575532672 0.1000627070515567 0.07079712531822001 0.79904281247874
Ni 4.119403019116009 6.776102336458555 10.63668876600579 0.17376389339044912 0.46687813841747333 -0.9614432012272539
Ni 8.195483027884798 7.020454293497724 0.5735904770838288 -0.3058098382168217 -0.7162432633830051 -0.4346994968023997
Ni 7.7826920790739935 4.051142240698142 8.108192660340427 -0.24225242518015055 -0.6701058455949943 0.4453608331709878
Ni 2.956034327161385 8.446360246394347 12.282613267046115 -0.24894269271613256 0.2607432848954865 0.24948545259348004
Ni 0.13384420024914093 4.9040066382279415 10.29381990173651 0.37659179402639015 -0.5045579123564343 -0.6984172909451779
Ni 8.290453755413317 2.410784205745014 5.80206892276421 1.8112017948933066 -0.7902730367059099 -0.32087033209437
Ni 3.5150074915029292 2.5471240004227993 11.413648377565165 0.5006704043765701 0.6749186936026055 -0.9930286893430188
Ni 0.8485748106021964 3.277217148365731 12.898107192023579 0.7461547062304569 0.30533135591850646 -1.2103175025992963
Ni 3.375341449334672 8.209814974039102 8.182440684241143 -0.6413861090627986 -0.18425090896470203 0.27306838211974266
Ni 5.700370268959196 8.06223318989215 3.619500738486414 -0.8398801582100762 -0.200480483449687 0.27417318514814715
Ni 3.0994991984307836 8.555363012516555 3.4644730675390694 -0.48901405108456425 0.27334400437863243 1.5741198581705018
Ni 3.2500527938602053 4.202395620435668 9.19850568815048 1.6407114300478065 0.29176878674272333 -0.8073605883158159
Ni 7.368219830302158 6.1418523744023 11.508978994166423 0.18073055451626938 -0.44665409806111467 0.2102383341673992
Ni 0.2751579163792092 8.99841736062592 0.2407467046362439 0.7066486777160346 0.6055994383814925 -0.369361594826538
Ni 4.393718467893123 0.5564375822381514 1.7934226745946196 0.5770550510848965 0.2890079361681345 -0.9570576705650485
Ni 5.984391816970804 5.4701594078084845 0.05834656151252154 -1.3420114634028888 1.4015111614304185 2.5387939076302275
Ni 8.032842248951747 8.604338825975999 11.42915723369219 -0.2755340700514158 0.5503585156303167 0.4843431279714561
Ni 0.10501399556600952 5.537993045155171 5.8805729075933115 -1.2941616909094613 -1.5592254575571727 -0.4183583364402149
Ni 8.208642608120329 8.859314781147305 2.4990206453215116 -0.6987001122929193 0.20691389777985655 -0.014310760195717288
P 8.56437841555084 1.5551297590906914 3.640902323774157 -0.5621663068985222 0.6137886590605042 0.5231649859346603
P 1.629325071965604 3.1881446028626668 1.6707441237083054 0.4423171612486576 -0.4720843652087612 -0.5020320606107869
P 4.679521285052634 1.0466501222274682 8.498534165022908 1.520424682639891 0.9865561942447976 -0.7662710173643577
P 8.49809884465462 1.569043652281712 12.250290502497986 -1.3046165676941983 -0.13224777642453353 1.1798003078470454
P 6.424837878113597 7.744176677804533 1.675931615696179 0.09837092117143058 0.02537061755430469 -1.8727360068523617
P 2.0462874623013447 3.412075581456229 6.050790442080481 -1.160724779272833 1.214511743186302 -0.06282310597380793
P 7.034659006141464 4.065619596578805 5.995377521797261 0.3337626146760058 1.486839133374962 0.3997782594451824
P 2.183417922366209 8.567759191688697 10.129255170361564 0.5602130398268933 -1.1270083608569945 0.016218518741391425
