# total energy = -381167.8904449018 ev
CRYSTAL
PRIMVEC
9.26845315232416 0.00000000000000 0.00000000000000

0.00000000000000 9.26845315232416 0.00000000000000

0.00000000000000 0.00000000000000 13.56531805802429

PRIMCOORD
 96 1
Ni 0.339424859360614 5.219780419362643 1.1430374206579927 0.14828271840020912 -0.04669688983590667 -0.3616310589514998
Ni 2.4041304227970155 6.410523188213211 3.32265164028273 0.2263046436016425 -0.3231385593032564 -0.17962446593628417
Ni 3.723753454591965 1.7885936894048513 7.839579504266027 -1.0038208948625165 0.48418680489925 -1.5116178829815385
Ni 0.45823032672140535 4.079981690007353 4.227499722277272 1.5236966685229436 -0.6292317330884518 -0.3969757569993808
Ni 7.527788263999903 9.456626370719809 7.658655863565062 -1.0546672880904222 -1.6935002917140638 -1.1704150099774036
Ni 3.2592691352491143 7.0499376227953015 1.098334396772645 1.2114511019831071 0.23842482390394423 -0.5682089135481763
Ni 3.3580334621818237 6.258219419481972 11.616859423645005 0.34831403012761947 1.7269932812651871 1.181570512373591
Ni 8.583013955444914 3.1534137984521604 0.8201647394863734 -0.7111319102983689 -0.9982171755224938 -0.04037146183851111
Ni 3.9114288489989635 1.7812802164860426 4.885748435216431 -0.22437940155447164 0.20627266465143188 0.007699168416470611
Ni 7.441537483886448 8.646545696110966 12.139782006633775 0.08430621554824835 1.2728852980291885 1.2670769188775273
Ni 3.7648720425106417 1.7341087796244228 2.3669828004023157 0.4713737122949817 0.10652980283313909 -0.6068263688100582
Ni 7.894963535558653 8.211055728213026 1.2758608412445311 -0.013739718183595694 -0.8923214067289277 -1.211856822061958
Ni 1.7580420965779897 1.5211930978182908 3.718591384796674 -0.4256121897891509 0.2309470274696603 0.8378299605492668
Ni -0.12411677278851933 1.9752680000663096 5.423580677507994 0.1645493167707166 -0.5212330590192701 0.17755087123670713
Ni 7.547809938910711 2.7055771310258887 10.098925409576085 0.04281195295920368 -0.7443487633699697 -0.9353429045957763
Ni 6.080851479936463 1.3523992551674564 11.309427532318953 -1.51972277147686 0.18039476844340546 0.9530894299459199
Ni 2.1119437392143903 0.3952389858920657 9.0185122657074 0.9296949622813794 -0.25102991426246446 -0.15618783217989876
Ni 5.070822865743812 4.260121148440978 4.651087916756011 0.07294759600231954 0.1601103071627565 -1.948321554698161
Ni 2.8898785024386586 3.785403528588159 3.601877997078183 0.013088200642525848 -0.7122246291419153 -1.6044385637587013
Ni 8.166785580354684 1.9191980410221088 12.203856927924722 0.5659663973709027 -0.49527134484818575 1.0790233483372835
Ni 4.766048480990412 5.616404237769373 2.252454185265527 -0.04173363229336038 -0.33699320579816155 0.8245183310420251
Ni 5.140583571937673 4.746935196885743 11.45605478544122 0.2884296950671613 -2.2570760773656033 -0.2665976867937344
Ni 2.359220693656802 7.7581209491196494 6.910067684955431 1.020185452263469 0.919702626955358 -0.11650645442987677
Ni 7.498997837021678 0.12517810694467094 9.891112474084027 -0.45895297003312574 3.687939209595578 -1.0588946959082084
P 5.380760247221899 5.486161388615783 9.449155319804015 0.4956246144225464 0.9868701259407908 -0.7475158482440416
Ni 5.821227825965721 2.9711794795880526 -0.0059490328508130415 2.335732807937558 1.8100805368046697 0.7891594919267569
P 1.259641430707989 3.382763938414247 2.0126649664680003 -0.7082669300457479 -0.027157534251398392 1.9413407525049535
Ni 7.1084824833215325 4.689567536689915 8.323891770276335 1.4705324257951382 0.47828920846789236 -0.9415742302174687
P 5.722259574566327 7.1579341664924385 0.49291509771619707 -0.11481441143943452 -0.2732149349999359 0.7473824079899709
P 8.337322050266275 5.581913195017932 4.798013641143153 -1.7082561098669997 0.04272376412077158 1.2050526546559313
P 2.45054177755554 8.809082765352173 2.350404668190288 0.15824805714303714 0.46880929400191523 0.1639710756697434
Ni 5.477476060193826 1.0302634828640822 8.97930500619919 1.403059479754145 -1.6827481954038825 -0.21995658989642766
Ni 0.39219031511513763 2.9623180345812323 10.572194238786052 2.311076957062091 -1.5662695088881478 -2.5814032576603223
Ni 4.618314474171686 8.866543118487401 3.499043523176337 -0.273317007795439 0.45418305944830806 -0.38735905984522323
Ni 1.3291055194957624 6.138960683647506 10.512284011262432 -2.0136098343830096 -0.010456933667265862 0.08306231583881823
Ni 1.9833230165003333 4.191843529277548 11.727765598709967 4.3767272049811075 -0.5298920202458487 -0.015131713435115875
Ni 7.6425977387430795 5.026237561891506 10.632795955637611 -0.039603473324235014 0.28967179500437856 -0.708081039287187
Ni 6.2777961682836505 2.2021710464281865 3.8300129326047108 -2.0639240092565294 0.24070642084926933 1.0094405550421388
Ni 7.926590366482578 7.401762943589099 10.122748421931764 1.3947306481734754 -3.003475038396382 0.8303601345347827
Ni 6.4198388286231 7.312304987772339 3.041430531431348 0.3757962947082883 -0.6979529497142497 -0.8298453996818935
Ni 0.2495877894217002 0.5185493301077886 10.454558556320512 0.8582116095294122 0.7648543395224893 1.16174242190407
Ni 6.894306177539534 9.707082692983706 2.7576863207694466 0.5384195981008856 -1.630422903637605 0.3325644806028466
Ni 4.652675746807965 8.520594530051683 12.472881499809603 0.8092328656378643 -1.009406359370094 0.7039649602362843
Ni 6.245733680544538 6.587640856822334 11.961449133589092 -0.21768399181216705 1.9023114065166333 0.5528301170992608
Ni 1.8300923183750757 1.5972661931854186 12.412184309230462 -0.18448925022775323 0.992853082997103 -1.3910385440338688
Ni 2.7315775005281173 9.14664264277202 0.01898814863647634 0.8955283437019997 -0.5811919560714055 1.2400517964389353
Ni 4.032930753966956 5.015327602923904 0.0011966658476783478 0.4447234566973051 0.1692832319112762 0.034893469443075385
Ni 2.9449288391494384 5.1386740973859935 5.379340191390262 -0.2034778755151141 1.3395614592004994 0.887421141213833
Ni 2.030744724298338 0.8509777264023484 6.230464372636865 0.03660556703817566 -1.3506141174702353 -0.16337766506011864
Ni 5.772137645258483 1.485969780845574 6.320492390030947 0.3837618294122681 -0.08813895903077724 0.2779390799484826
Ni 1.2157049774314952 1.299694049823544 1.3463575293772414 -0.18493919328097827 -0.15818815043937917 -0.24280984034551734
Ni 3.3499320992780985 4.927945968949746 9.63834068219387 0.2260645025663784 -0.11295756073635385 -0.4694492415787592
Ni 6.327711316151565 7.172681613151278 8.382512639012875 -0.9811213963824716 -0.060307024420173556 -0.6592701884320711
Ni 1.8492519489494457 5.760829106651452 8.063929787076775 -1.2075692504301978 -0.9987583927379445 -0.9311275809628481
Ni 2.1675873107373427 3.0513681414646245 6.290754641212034 0.01963885727685005 1.5924446246216186 -0.4613957751466634
Ni 7.2823558990515895 4.9298925206771855 12.939123277283514 -0.4430643238273273 -1.2158289193358287 1.1878262634753154
P 4.226501419319914 2.737778658174104 11.584815474493773 0.9357205996501692 0.1495173621382586 1.0283391917188547
Ni -0.13323775802566493 8.746144259498292 5.863272416349023 2.3691864596103134 1.6196862339463913 -0.9228329450542235
P 7.374576104462526 0.47053531442700564 5.2206925178863575 0.12287584829133032 1.3012193690871912 -0.8165304277405421
Ni 3.072733863996759 7.362034749761451 9.4296462368481 1.2668550326747086 0.8554944677085654 -0.5107501572100752
P 9.057536920124988 5.947614648840192 8.949119550482965 -0.8602672065068604 -0.839897898821889 -1.2196932873872413
P 1.2808403059492004 2.7804637567686723 8.242953222520002 1.454301565758573 1.9457874754223974 1.0223729468330907
P 4.325729210949633 6.989010553726441 4.9077528121010445 -1.4089025687984833 -0.9279890353338662 -0.2773780652386901
Ni 0.5836976356370102 -0.28468226320864826 13.157911056800756 -2.7331173703395835 0.7918918032562556 -2.336331617863822
Ni 2.540796892651156 8.459305958519156 4.557437459290103 -0.6413686255613018 0.07903853939140582 0.5676661536708288
Ni 9.242014408122621 4.317303422758002 12.12177918394314 -2.044039611627776 1.1122085768400007 2.6433100224674475
Ni 0.9053801394667093 6.563021612117193 5.457497024035144 0.11718985365014656 -0.2680526740727061 -0.12526774556227457
Ni 9.174793488468374 6.569537925757146 3.103659936298804 -0.9275995132049314 -0.5749590877878162 0.05770018292494579
Ni 4.22042076249515 6.1259280563676 7.189660178861522 -0.6840936752336542 0.7575855737752178 0.9418449673803522
Ni 7.586852204986785 3.9540490625359506 3.145268869866917 0.040775382145149135 0.7966444874498926 1.0574152831492047
Ni 0.30850342170553896 1.1065775798736548 7.822390525583341 -0.8492407734893697 -1.636577610385091 -0.17416292860108068
Ni -0.10618439673183047 4.470923431228747 6.680968742859124 0.4462200958474896 0.20992414536109008 0.7050900749796631
Ni 3.0775260889638365 2.647458658020906 9.948458814903791 -2.0898718394705424 -0.03319525580504606 -1.2836325092433636
Ni 4.2793085868971685 1.570709666046778 13.324765763159302 -2.481781751911242 -0.714553277275092 -0.8145720184625906
Ni 8.005750136731788 7.154560143498209 6.6847812034567236 -0.29838243540449905 -2.3804535478837003 0.6869979933646426
Ni 2.5925658993071092 3.271884644301711 0.41110801711766853 0.236976778603508 -0.4020598563905076 0.05832907475819633
Ni 1.004457768534597 7.520280135908351 1.174559508560392 0.05160718265333048 -0.5834473277644854 0.5883936160261674
Ni 5.269176486769909 9.388218981441215 1.1161740798899322 0.9176112916439682 -1.5877148232461171 0.10547642186796029
Ni 8.815515655346664 6.79335429723694 12.59342032513721 1.0129614237112037 -0.7264433438444585 0.24902805334108727
Ni 5.594714089949332 3.2646824029101844 9.246104947538425 -2.4246965768624755 0.5123169874765628 -0.024686704113402645
Ni 8.58384819189953 1.9239068423437244 3.0514154148637194 1.5692507030036587 0.19819400140835544 -0.1566863690828721
Ni 0.5054184483121175 7.966819102182996 8.338014466523607 -0.9568450403336101 -0.3802296478892936 0.39765195713079904
Ni 5.707771668137812 8.199802805369636 10.402259346051181 -1.9082146593749458 -0.16945626715403075 -0.3157042145123983
Ni 6.177168713268963 5.58136630667546 6.312677448309974 1.2282067241748913 0.12396599603171554 -1.3984983427460236
Ni 7.282059281645503 3.5165105806772283 5.457781591359108 0.07516902913367055 1.0663087289840925 0.3511209034487953
Ni 4.738583563045633 3.6462158107822873 6.748123850526396 -0.07299156186637751 -0.06343862807061977 1.1468950724785925
Ni 6.170244550695641 7.984421491375414 5.224288077005757 0.33842556736931395 -0.269396075474478 1.3577242461524552
Ni 3.8048505072746748 0.5166778596612646 10.704793342459238 -0.4495262774025871 -0.49403387289665884 0.471260326645569
P 7.573244881482588 1.0422208720469255 0.6513894354234194 -0.1137980543597782 0.22835047038707768 -0.11919402856436892
Ni 7.0916679841140295 5.285305058225837 1.6176484436304992 -0.640439171768497 1.8102617995775403 -1.6811970488666788
P 5.24268484468885 3.462452058418048 2.2822058380253507 -0.0664200792964469 0.298130467294693 -0.19104119241365808
Ni 7.829865284216709 2.43531232761181 7.42239453804117 -1.1564760312988085 1.4199475137587352 1.0623859968909186
P 4.0625461481058585 8.853084103686248 8.03371652347873 -0.16602512998529473 -0.11179747898998164 0.16001646189736957
P 1.7784716204221656 5.954418310592291 13.163785008370654 0.06666716231024648 -0.060629697866914946 0.2646845289314216
P 1.6588328435361512 8.277850260346023 10.849114395249186 0.6638974027914373 0.6532247535689395 0.4503971100433147
Ni 0.18463321213582862 8.867803742463268 3.1318784478409203 0.2129801585785945 0.44586245539775465 0.3998515358852791
