# total energy = -340860.9368295016 ev
CRYSTAL
PRIMVEC
9.38394799783512 0.00000000000000 0.00000000000000
0.00000000000000 9.38394799783512 0.00000000000000
0.00000000000000 0.00000000000000 13.73435643883081
PRIMCOORD
 96 1
Ni 9.277374621237263 5.989755317123068 4.849600928564572 -1.837104116581365 0.08225550366680673 -1.4134097126402174
Ni 8.125035176044896 0.9489799054830528 10.54692802400219 0.3737324702007241 -1.3444612104949618 0.1892218798167322
Ni 4.572169194369752 5.502512578886412 10.062064116613962 -1.0540062574676556 0.1630328801261902 -0.09630863932576317
Ni 2.6814631753004345 0.19028582318847645 10.689147388130214 1.6225645839354508 0.8168623571586642 -1.1651262507746387
Ni 3.5254085494759186 2.614001972265492 11.873502049123708 -1.6201300063520292 -0.40958676089517204 -1.9392537880689376
Ni 5.387624902052805 3.577855435518803 6.293851539900971 0.1605147416900268 0.41814056400245403 0.8517095467448363
Ni 1.1536344300329293 1.742083048744179 9.916809983663917 -0.46100085370108995 4.52986982257678 2.574245306459302
Ni 8.688804011200451 5.655592924568568 10.867803684413529 1.1818535908316485 -1.1663938046331528 -0.05976606431503901
Ni 3.8640752371280365 7.399365083974353 3.853215193968718 -0.015786059189663134 1.3491632439563217 0.5563003350360484
Ni 5.848620737397718 7.091552817740916 10.959756053646956 2.1168221428071416 1.4395812288292626 1.2541866931784207
Ni 0.3227862322485801 4.473900489656729 2.5781581056313887 1.0855053565172013 -1.0692978935194035 1.5385447892793698
Ni 4.454729083647495 8.353721991730186 6.334806843076059 -1.2319769898506008 -0.05405204464939724 0.5622030736737285
Ni 5.069161854703125 2.3731535598166347 13.441649865883761 2.9570375728694493 -2.272684216216505 0.03386245707539975
Ni 8.408871454831642 2.41822466263717 8.290003107205514 1.5513946486588444 -1.496774647321119 -0.5890505328838759
Ni 7.20320303247311 6.425029750670962 6.758979127603138 -0.1300407414708857 0.8487687189489576 0.2213043621735737
Ni 1.9994847456767806 5.507035641880269 5.146070816705321 1.6416707086372824 -1.4804854232427922 -0.14735634993119784
Ni 7.426381470611938 1.3610196834857362 12.987633811150532 -0.7346305076409413 0.09596565416404762 0.07693717677768686
Ni 7.948053914501008 9.111485186371256 2.7749854790543425 -1.3732760778441253 0.28883181560158644 0.5852833525319598
Ni 0.7651511769959733 8.17700348073366 10.377556205988839 -0.1599059044614343 -0.8290463008193657 0.486118217594008
Ni 1.2048520188720886 4.88001899639567 13.400034871155835 0.8112653226868609 0.47248571441223797 0.39585244202821507
Ni 8.50100305747416 5.265614808596091 0.9159925126566884 -0.3595124699466002 1.3763230922005654 0.10377075203076322
Ni 3.1165686977821676 1.2632389440749556 13.870464389545823 -1.7775846210594934 0.7201968487141145 -0.38548138320653613
Ni 6.634348097436496 8.953863009799003 6.32542664853527 0.25280191856122264 1.574661589606585 1.4485793185628149
Ni 0.410915581017903 6.497267383299003 6.989853341595208 1.9116360263516692 -0.9134381341028849 -1.6169791194278733
P 4.063118160702131 8.828390239485994 8.500138795852305 2.2965227133969996 1.2428699826140208 0.8385879217612138
P 1.6805149651286193 0.8153412235159888 4.089624060561986 -0.647721307252207 -1.1352268921120447 1.0252330419897053
P 2.419125521656694 8.851831341889845 0.9806385312556201 0.6732155948685696 -0.8678131371749184 -0.35239694194774146
P 0.5583308372199927 0.2539221289696921 8.850749372671604 -0.511487549596732 -1.542738515645743 -1.8418292899711766
P 4.75682652547583 5.638504755041982 3.1163800804249546 1.2142127238886442 0.15893788412121015 -0.5657776783988643
P 3.926938305584161 4.691373487338575 12.003827259009586 -0.24479113244160422 -1.274967634479514 0.349916598728049
P 6.522547739534382 1.1905884177296329 1.4346498940147907 0.6605184590168754 0.24051693054628254 -0.18053155113158584
P 1.3414259998110998 3.0204301492923933 0.9405427977283279 0.733130526056647 1.298027601622771 1.1457807563684912
Ni 4.272783713548106 1.6649094594049987 9.8177990086546 2.160550179822711 -1.1421164201430265 0.48417086405965004
Ni 8.764363561462984 0.897883369574642 5.2518804621276045 0.37396901169156244 0.9506689934298853 -1.7875715570688764
Ni 4.493231422784005 0.16892326529321336 1.5690955955201777 0.4241731433497791 -2.219217354646617 0.8093213115866126
Ni 8.495100554106656 3.010286101374634 0.7077805333745062 -0.8935120846029192 0.06583232511377696 -0.8416002262249763
Ni 3.7451243107584533 3.650149371835564 9.153056076543018 -0.9652458628027958 -0.37755441504997556 -1.6809383958886535
Ni 0.5017268621599323 1.2342237764878028 0.3780811465458952 0.016626552813087496 -2.171814954103253 -1.2627834337084962
Ni 4.423818358540094 1.5519642598322392 7.164760750604568 2.0666282955615696 -0.5423927238160207 -0.8211612416443342
Ni 5.799561456626168 3.5146545449303566 11.140115536514058 -0.7336714861617817 -0.6427963591467639 0.04038226047178852
Ni 1.951044805481152 0.8311428537553183 6.328462355752102 -0.6927428662682199 0.3903063153990052 -2.0478363596660474
Ni 8.334963479438233 4.35844977593592 6.887010900568479 0.5762294698598076 0.11626348518113526 -0.09649144476053059
Ni 3.8638594063212754 6.77407508494384 12.143368444344155 -0.6191710064183401 -0.2574946960512017 -0.21846072207719153
Ni 6.557718777088278 6.627169377124668 1.976497826361939 -0.9647015602635515 -0.9564714590442753 0.5546995662078318
Ni 0.2492986577309501 3.2586510562676407 12.038685811091087 0.6959613732055175 -1.6835475513767262 0.8276874727986262
Ni 2.2287252143011527 2.58010715165592 3.1476539643246007 2.10681052420741 1.7395775456881009 -0.9573335499342545
Ni 9.518889294002642 1.8089342951513192 2.787758909235336 -1.35322712961305 -0.7295515504561371 -0.10773307911262091
Ni 4.667491339373083 5.905872204878062 5.606776688053326 0.20148012835879495 -0.37051139216026513 0.5032664472385203
Ni 3.331282814716723 3.6903971253224004 0.246449691081707 -0.5787738335482162 1.114708717554035 0.9391278255595051
Ni 6.538960264796326 7.580747417186538 4.407135575572294 -0.1298237403640732 -1.5792677209200285 -1.2572049111794543
Ni 1.1120541559130475 8.218837121452781 5.261920348221231 -0.04169557996657335 1.1909239285640327 -0.4580271157847467
Ni 2.2680345729759854 5.343830016176595 8.3464916597037 -0.557005588633189 0.5985196487165757 -0.4293932540981379
Ni 0.7807895265380143 3.5164562629694034 4.908122982620368 -0.9360155051827687 -0.8485622593651064 0.5170128502903354
Ni 4.688933660827367 2.312242352569478 2.1810707105631715 -0.34595915674219774 1.4334568610990797 -0.6777273666959941
Ni 2.221546493989325 7.988470579054006 8.102514638951622 -1.5176520049907605 -0.626930595759101 0.04219231709733379
Ni 4.547724009517057 8.895372861166814 12.923068494505433 0.765757568063049 0.3034660205749935 -0.33761464143224434
P 0.22882945169671445 4.259890168831177 9.056750493776708 0.11146195002743385 0.793894178398265 -0.15795135183822476
P 7.575680085201719 3.936772683213959 12.262102601512165 0.05732428764276579 1.1860465458670737 2.0741557142868667
P 0.4866365351881016 6.87937236679877 13.164298833642775 0.001379653956346011 -0.4225613187779691 0.5191900604473123
P 5.3252497988989225 9.240627080399198 4.538518356411301 -1.7582501823969396 -0.35145308997723346 -0.23863848257664708
P 8.339843132460654 8.06678901006383 5.422090266708075 0.3390873693230289 -1.6851892007452074 -1.0733792626776288
P 8.085200316275342 2.7328027554651544 4.205212718320159 0.19292349703803546 1.300295314611025 0.016931999868648257
P 2.734867224051562 7.13382750402168 6.079430202147761 0.44707473053830105 -0.1357146519272114 0.9610961023004804
P 7.985965064905956 7.667239267008916 10.692787421605976 -1.7340926113141293 0.4807379271187011 -0.31548284253021147
Ni 4.15541867441081 1.7577542421046402 4.658199353944623 -2.7171287082208107 -0.17988003359051602 0.7055035083679979
Ni 1.9727217256384364 4.400743230112925 10.666705676201149 -0.15384298609680602 0.517344008377509 0.24109131499251382
Ni 2.1541885143837027 8.32838533180609 12.326186521618705 -1.323160906355289 -1.203254682215244 3.633960184275961
Ni 0.527825498671378 8.65285410595259 1.8098726899633228 -0.8548735462951148 0.40787723440323304 -1.2719373322936225
Ni 3.6748010035468996 6.030819474096347 0.9135226575114949 1.0324169613326541 0.6866519228791336 -0.48218262998502764
Ni 5.63046271150311 7.138585165718539 8.640544242808728 -0.2664166811311799 2.8368783521783336 -0.941636450913972
Ni 8.831083432596445 7.144450133293562 8.684797065353195 -2.229061594430548 0.3753872321953277 2.3238229438738496
Ni 6.1872968089979565 1.594567384297205 3.859656335958311 3.1864607074954154 0.5821849161122941 -1.1402546843439394
Ni 6.865437203840516 8.524481695670492 0.5493644747912977 -0.23679500161000508 0.8300960822401188 -0.25483206161737404
Ni 7.029975350177235 5.257600916901579 4.721926684022603 -0.24529558288184852 -1.379053860868167 -0.8973700248964287
Ni 5.153213878014292 3.7992133877223435 4.0436971416729035 -0.37524170775639887 0.7081666570224578 -0.5822113984748554
Ni 6.046049621895167 4.205378814201884 0.4823217958425089 0.12817463479642444 1.820240765167123 -1.276889276982259
Ni 8.928742180681665 9.082329259562302 7.154611072317937 0.3514913994143366 0.16519697765704452 1.5100027159756189
Ni 7.6150926673058725 6.332898148028444 12.967251875833812 -1.5516615291669857 0.5948144319508466 -1.2800992992791245
Ni 6.2015228743479325 0.12456065055574071 9.107320590195583 -0.19168396820397954 0.3539367756310356 -0.07396523863355649
Ni 2.6748287239795685 1.1536531979291693 8.331438868524348 -1.841076213855236 -0.35245427754823816 1.6362220268178855
Ni 1.5470095352248598 7.3187194338307595 3.140072672638423 0.18407221729499265 -1.3704496641389237 0.4440225739755385
Ni 6.030828858044468 3.065322957098648 8.64863414448301 -0.03792762828370887 0.18132370801557804 0.47988972018579285
Ni 8.679879876538296 8.56520803051145 12.563804979124646 0.6906111646371976 0.8444135273040554 0.04258441032942989
Ni 7.0665633638972585 3.7243294817244523 2.410406895458368 0.3071095308648517 -0.36829947211061087 1.9838032925445384
Ni 1.2446681107454034 3.1406854444506616 7.417939670883153 0.7866161566796129 -0.042064790380534005 0.0015969121734746691
Ni 2.6977067894962174 5.278086075647619 2.8505656740027403 -0.5828084086289059 -1.2314553130191759 0.448632304833408
Ni 6.881577594606978 5.308658978622698 9.174646664377597 1.7261412176775368 -0.6399138953926463 0.3381489166691596
Ni 8.149283297987072 3.2276746435234003 10.345184400159148 -1.1738574600000493 0.9923098088991232 -0.7953784762532754
P 8.52663061978998 6.447175868234248 2.8283848358314105 0.888083200277864 0.41532700581305887 -0.1261653176758795
P 5.2356518622488135 5.2988715207335 7.815672681582029 -0.8883253981956573 -2.1602992401541696 -1.1789060781675502
P 6.80724734154817 1.5543102468622483 7.337346570849032 -1.1794766059590396 -0.8530948571281373 -0.7745998489450273
P 0.8311156403057701 0.7868928463952861 11.951403832837004 -0.5307793079468084 0.6621189707347758 -0.17516643016493058
P 3.067134059085815 3.066242584014412 6.1326653398327275 -0.2520758390284755 -0.09418747921770229 -0.07827980684851035
P 5.481652062215571 0.9352211607494552 11.437903869365673 0.7595671229816209 0.17498773849522123 0.7222732716271689
P 2.353109446632237 6.601307216105847 10.151831902725045 0.5707381077279333 0.16394665018971122 0.18603191212452475
P 5.524058123770017 6.841311073223902 13.711763997334577 0.2186646105578815 0.38012988908663564 -0.7739884406132735
