# total energy = -340872.583901671 ev
CRYSTAL
PRIMVEC
9.17776973622008 0.00000000000000 0.00000000000000
0.00000000000000 9.17776973622008 0.00000000000000
0.00000000000000 0.00000000000000 13.43259371214060
PRIMCOORD
 96 1
Ni 7.984631989929624 3.47251924888678 1.6191375181148777 -1.9287940261881944 1.2371330801302436 -1.4317661036602183
Ni 6.575045895451917 0.8256789568667681 7.006400147321169 -0.2702730787627926 -0.23593316783034207 -1.5232626663093185
Ni 8.105411437430561 1.8210713930114881 3.3195295013137076 -0.4333059588889828 -0.8959785438655408 -0.638469706746952
Ni 2.03633597820408 0.7044497986570495 6.53392214557637 0.9474705410972456 0.8428724080691807 1.1079510871152274
Ni 3.8383359660554657 8.996444373606558 12.548903830975302 0.6785532050313992 -1.541732700089048 0.7722354624779089
Ni 1.1099961625040642 3.6416930753141963 12.429635044345083 -0.5359618805890124 -1.0869870832690505 1.8754660041890152
Ni 4.6212272434242 2.317864059669983 6.828902083896537 -0.2443216490043534 0.14826394934713175 -0.1506105952024374
Ni 7.5875282563072375 3.055619066308503 6.4224186697767385 -1.1593168431817131 -0.27237906936220185 -0.013973688571272708
Ni 8.717192378993255 4.5475205760321 10.843554934433369 -0.21267522574366596 -1.3091211404327712 -0.9276586485776411
Ni 6.447080254380063 7.790779141136705 5.557064215072086 2.738587649425535 1.0390897453671393 1.5051194197413886
Ni 2.3476275663755715 6.098279121988487 8.563479423178308 1.0184412158788525 0.6884293264945305 -0.1328321881730938
Ni 1.757304250060385 7.435746303209173 6.480662631002456 0.5104585941115853 0.7959207219099905 -0.8134859844872635
Ni 0.8765917157624143 4.830370256315643 1.1956688058575413 0.12661191829499482 0.5443367349162689 1.220126261159602
Ni 2.048248723101969 6.42975262543768 4.032101626037499 1.5154822510329515 -0.16787426737889152 1.3796989506513335
Ni 2.470068190168126 8.867928066360689 4.44634943321093 -0.15585693120304125 -0.059030471700595104 -0.2965374117759603
Ni 0.7075775825254629 5.342287887220455 6.359567468228416 0.19386992011170484 -1.3890346262299624 0.9231013682242618
Ni 2.3891569736659775 8.345786400158303 10.156262975981715 -0.6379570287765916 0.6930850800989871 -0.4613898616093925
Ni 4.709856964132145 0.04675431150486552 3.7283504933422065 0.9713126378221659 1.274395821136444 -0.12184457881333856
Ni 2.7482739190507965 3.72624786633442 5.924364977579746 -0.96594623130393 -0.7454810772021999 2.810367964592631
Ni 0.6622458253034732 8.977033390972478 2.89534216969928 0.15742633257269018 0.0029994489479561247 -1.0042222440659931
Ni 7.621504359244052 2.3664052829095317 12.91118068242202 -0.03293274617227877 1.31354960851777 1.6374178468981997
Ni 9.001216813781367 0.7204512398970105 9.852833982998222 -0.20012155744837146 0.17072510656412532 1.116551941410361
Ni 8.149446375812744 2.84242865703804 8.79285482908007 -0.37020954464913014 1.1360141639000305 1.3403515592019626
Ni 8.927234813302258 4.048259089360098 4.463959737455975 0.4371968093029567 -0.8512680883320436 0.21296730306278808
P 7.145003741098062 4.7165383803768774 9.0814268486886 -1.1828609490502402 -0.030105818246444923 0.215302636064184
P 2.146542635163903 9.04536188539835 0.759990906745304 -0.8680291098404664 1.6254971842012136 -0.514186950805766
P 0.10180716225215872 7.439793699588194 10.825729870380457 0.726540017323323 0.9632571145075411 0.08288490972068951
P 2.448482076146682 1.191926111428143 8.766244803997683 -0.3309619120024171 -0.4538087068280249 0.3193533812292113
P 2.568527302082265 5.3947204847563865 13.384961927445325 0.13622681567693956 -1.3160276377446174 -1.2773736728178453
P 3.2003341368400227 5.9495717216953485 5.929616497325949 -0.05654961426027035 -0.9000195467041339 0.834671360315627
P 0.3677183510229556 6.607452599792785 2.974177374725386 -2.299252710733653 0.48896545723481594 -1.9552895013755618
P 5.450961856662599 7.688502077082718 12.065585047818034 0.4239371160795732 -1.344057033078008 -0.6956065609692601
Ni 7.610793902159432 8.051996818550968 3.188199289918614 -0.02561924323000104 -0.1729920482214311 -0.03293763126828521
Ni 4.809481652781285 6.870891297442247 4.648698143291966 -3.671493662445045 -0.005343009479468217 0.502435980917425
Ni 3.9539116182119485 2.989217903491688 11.15071836185365 -0.6423153057452873 0.46992643832549386 -0.3756320012162821
Ni 2.6203449890572115 3.107289908970379 0.931105831436128 1.7674102516296528 1.7027917443183191 -1.2485341228783335
Ni 4.1903034289476375 0.9148070304621982 1.4351113071972816 -2.402605658500707 -0.40042232078708456 -1.0830065013547476
Ni 4.080867704631438 5.981409404323065 11.855687622268189 1.4201642577552316 -1.0492728565477283 -0.5436214540167992
Ni 2.646676009944764 7.048361827558178 1.3074586280676614 -0.39062513219100464 -0.2889261750876056 0.7274674142335987
Ni 3.5653156769781167 8.37327382001129 8.189489902210262 -0.35068150191853154 0.3537922796333713 -0.6471795758161242
Ni 6.203676627695233 1.8584065596098027 1.5306573950508735 0.9013125544839445 0.7125023082833342 0.2791459557723902
Ni 0.9195207329117789 1.5720876824299566 4.571434172415721 0.5912208010623173 1.9214825801284454 0.11435804062830628
Ni 8.766458646028592 6.2135702632883945 9.009106024501108 -1.2237805700827376 2.8657996631983744 -0.03966106603504783
Ni 9.187589780377229 8.788668848380588 5.103042707926404 -1.1846393811069018 -1.207534283427204 1.8030660531600493
Ni 4.3861753870452835 0.8732289809930872 9.912058130013689 0.11304369269225692 -0.11078086480000919 -0.03625589700824079
Ni 7.271106294947826 8.69092560249267 11.131375294714365 0.26149199013605284 0.6187033227533021 -1.8957887749067674
Ni 6.2495562977603685 5.701625099074881 3.339517765653547 0.5549854728793668 0.5643702565283764 -1.3720028675586564
Ni 6.461406752674058 2.0375199104782156 11.0893851633917 -0.6818125925089612 -0.11431921697057086 -2.699475771025738
Ni -0.028777814254098956 -0.1175993503459934 12.712404878033393 0.2848844009180642 0.19309241851573195 -1.1597220490399318
Ni 3.681643906239089 5.303594410726234 2.754568033419804 0.5827847544798221 -0.2977358029594356 -1.233798616440372
Ni 7.203998443874356 7.778425863299602 -0.05875516299059705 0.17318513806884367 -0.7959207219099905 0.38733052060013295
Ni 5.975930275891602 4.456275190997577 10.984772356982926 -0.13192150343336634 -0.11246827980476115 -0.6928184567011617
Ni 0.5772761990988237 1.929102918583946 0.5943009616454986 -0.1515019966684552 -1.356297798118574 1.0966945403648016
Ni 0.18358292464751289 7.643723739365615 1.0015837594945785 1.0030788744901693 0.5316591394486004 2.634154324110108
Ni 8.320758622549256 6.353393582640734 4.7551116280897725 -0.2693037728709878 -0.21210572639344116 0.36836349257932693
Ni 0.7761446989600762 8.464087849876167 8.333110982609401 0.5754907919215703 -1.2888605904115222 -0.08510634285204052
P 6.803682490903542 1.0893094699001802 9.051553208748208 -0.27367541957612224 0.28329005984775085 1.708740762812902
P 0.5168387509466065 3.141045745437587 2.6173814872640464 2.1722556411850977 -0.864353717871408 -0.02392257225386848
P 3.938135032326378 4.980692944052563 9.711644093757364 0.5738475998911924 0.2542656475909427 0.6911685798025645
P 7.067249677326941 0.5453017677045594 4.673065121492193 0.25310787983741573 -1.4896848303538732 0.8594642509895908
P 8.635032985830003 7.269674562895384 6.825329178204128 0.7018779958002687 0.26521906127865297 -0.17024173916980356
P 4.352254350725872 7.43461743755244 2.6792378185913126 -1.0441126525030278 -1.001160574421534 -0.9082031109561907
P 6.879059512356824 4.406742768644798 4.845687035945909 -0.627396479651926 0.06546311469981629 1.438128555543136
P 5.453403143367405 7.666301052500289 7.5313327732488595 0.14057995043931273 0.13237324625880428 -0.63607035327684
Ni 5.463168290186631 7.19951969232569 9.672125535779074 -1.0828483785103287 -0.6258011101403481 0.7171878866844615
Ni 4.198168777466506 2.7460528988155968 2.9002045520158446 0.525174045944889 1.095213842054217 -0.39565935218080245
Ni 1.8227142137639707 5.205071054425126 11.120535431078853 1.6564332116584375 0.851062914299773 -2.285489852621606
Ni 5.389929689042445 6.206723647191457 0.9087065670310528 -0.5105488398325465 0.7563761268481489 -0.22180778417255348
Ni 5.816576662900812 8.584096364733483 1.7583670357762367 1.5339255453398033 -0.38737294380229415 -1.6251174322642914
Ni 2.3222877446012484 7.355202197489703 12.088984689105907 -2.0940912768685287 0.3645333201999593 2.1371765380937777
Ni 5.271692483711548 3.117431344341848 9.024378750837453 1.4099870601119138 -0.017027644906248092 -0.07836413903220052
Ni 4.620759177176286 4.8186135335003915 7.305019989051585 0.11615935550310318 0.8951398500143294 0.30936001746192526
Ni 7.23395468374085 5.44297719713936 6.963873116478836 -0.4222404451034405 0.5378981783797768 -0.15696996176156192
Ni 4.646447754194154 4.507661522802877 4.807834243144019 0.6857214406450642 -0.8359489414764699 0.2915808391016333
Ni 2.958610041985941 3.4208116951466367 8.460935286029923 -0.745429140918342 -0.11789767835044856 -0.17215515414243254
Ni 1.5889931339722614 2.699282985102468 10.293987339434096 -1.0667784695316596 -0.3704815673635942 -0.8260779622196612
Ni 2.127012341525453 0.9094389530424947 11.987515268773812 -2.0396605087234745 2.00774360541022 -0.27739297763702553
Ni 4.372206821764401 9.1643057789859 5.955058192342466 0.36541340881206746 -0.36862805909462326 1.304621967010837
Ni 7.3917847869835285 8.196152045138904 8.479177020821174 0.3457316141124239 0.278519635042301 0.24245425677831148
Ni 5.209311183965053 4.041917250589342 -0.21716438349294853 0.12586449860600904 -0.8918195273918447 -0.1596109989288348
Ni 7.7665406517104145 5.893403771945672 1.5147128559822276 0.21086799733159814 0.007966563145244344 -0.6575475493140096
Ni 7.275695179731296 6.359882265724561 11.208155597134434 -0.0433372293350544 0.9600915722953657 -0.20370361837267498
Ni 2.1078124475914137 3.759645769788517 3.8917579271507137 0.405599751222966 0.3196133197588173 -2.1313565889778907
Ni 9.07143592873803 1.2706530187733593 7.543113358264985 -0.23523048533636265 -1.3317273078680614 -1.4417147302324975
Ni 2.2318500032886157 1.6045219200795249 2.525797442532503 -1.1800903282836386 -1.6075125746983345 0.9765785142067955
Ni 5.856380649512634 2.2255540533656943 4.5440715702288434 1.5552276492516892 1.016874385612365 0.383431699766359
Ni 9.380231163587313 6.286561064654273 12.793645576462996 -0.7564985113586261 -1.664038020588889 -2.2932715534495536
Ni 5.947772878860227 0.5160613938642866 12.708482299320483 0.8842450574786964 1.4270964660986907 1.9469460145068729
P 9.194564885248104 1.8181436845196342 11.69340813633946 0.9749610332080305 0.7375047438649428 -0.49139283572938597
P 0.49463864414113384 2.858893575641132 6.335281254400377 1.721783454929473 0.9134479042948978 -0.9261517250148116
P 5.566546686588649 4.229336482915836 1.8906104352432407 0.5334092893704878 -0.8398855575267148 0.47678974110423045
P 7.576221244200767 4.763436782863945 12.6878231400253 -0.3756381718638692 -0.45272318707333 1.6267050884663854
P 3.8203108266259944 1.8795796740007347 4.833570544563634 -2.173207720685722 -0.2623862198155481 0.582624317642558
P 7.915000252225245 0.2688581705787415 1.3723004878350535 0.26537512724054296 0.4274312452757606 -0.13368348042979558
P 4.300546796985729 1.9484496568310568 12.977685554034942 -0.22469076214730335 0.6308211890627589 0.06505919439317827
P 0.8056989525195383 4.683287321235852 8.706268079877725 1.9383855265313714 -3.986333472074619 0.2953541901011365
