# total energy = -340855.1121051638 ev
CRYSTAL
PRIMVEC
9.34600618874817 0.00000000000000 0.00000000000000
0.00000000000000 9.34600618874817 0.00000000000000
0.00000000000000 0.00000000000000 13.67882476601213
PRIMCOORD
 96 1
Ni 6.0220896936770885 9.482457803464852 6.315349608128992 -1.643381520680802 -1.0285567070462993 1.8876646031377362
Ni 0.5467955645160201 8.082799927802625 8.659790568872394 -1.1158754841686265 -2.628099633275596 -0.5520392457668493
Ni 9.1562448060549 3.7939364140095893 9.011527508980219 0.24332560363967126 -0.6071829808185285 0.8735438690111084
Ni 2.0836920631603477 0.6208037831325163 4.631253513186052 2.301953397494268 1.558077974216291 0.0220135281566137
Ni 8.670495484275596 7.823906212433237 0.4216590848511945 1.5670413540571657 -0.8611665783926781 -0.5893395248792044
Ni 3.299532690568538 8.151240730576893 3.700081016808983 0.11082997287038977 0.2774194599995867 0.8648555972084911
Ni 7.058879535949482 7.524011568240866 8.658873725672592 -1.5368689442388435 -5.574865906126025 -1.1660744736205209
Ni 5.516162344697231 8.459313130119188 0.9456980590797549 0.8637091423088739 0.9100486488053616 -0.7763674823684114
Ni 9.121440279285629 7.710613926316935 6.2268606876391575 -0.9625842568102324 -3.0551932927062806 0.8258079963877261
Ni 8.442780045303172 6.6966096469509555 3.5381782836915154 -0.4181809303220862 -0.9475705570102196 0.09806110324049562
Ni 1.2716362839099493 7.237145256571686 10.837924023816708 0.018331194209020043 1.4309749752174903 -0.043051836884151665
Ni 0.04576926114244833 1.7851432438484207 4.561066876469651 -0.31200542550457233 0.2741479883371665 0.05071655251826104
Ni 6.155588045012287 4.950299058507025 7.591310289067979 -0.14398949034149394 0.036220415784615045 -0.35374497133520366
Ni 7.9393293879435785 9.11758972476658 8.053093647368648 1.60068501025354 4.566480531821277 -2.827199691437989
Ni 7.330409051585264 5.156266341251712 9.683363289298088 1.4116148255233236 2.1180161631152425 -1.3512118989552344
Ni 2.8010541084616962 5.769373688349186 11.691729346979837 0.398035822832779 -2.3158190997327663 -1.575041598653823
Ni 7.622761468843478 0.7066917101207691 10.224292365776227 -3.86079961733515 -0.9623006641315427 -0.6911948050548096
Ni 8.483594054003873 5.755840671495828 1.1497288493575792 -0.38904158975396874 -1.50048372074159 -0.024637081822389828
Ni 2.0208588640545977 7.143273971160686 13.247052431278917 0.7006654635494062 3.387196501489018 1.3136799634480472
Ni -0.11350350585448378 9.480027841875161 11.818778019495628 0.36567977509957666 -3.0000300172705754 1.7242787105475013
Ni 7.776335041311973 8.994839280462708 4.52559784866566 -0.581614902541437 -2.127066446242969 1.5106619468261724
Ni 2.8729342414859897 0.8238158587438931 2.2892331680262266 0.7595604381134016 -2.5892016706588183 1.2249666199710385
Ni 7.113226561503541 1.6978608927479295 5.322334589294276 -0.1043407656016203 2.2359390382766717 0.4496923706668062
Ni 2.429400829324516 9.02173708605937 9.219377077356304 2.1372960943907775 1.3828241265438765 -0.2971493343283463
P 7.0946280093362875 7.435233856162104 12.61959148799126 -0.6622444405690465 0.5660782403584186 -0.3393609346993897
P 0.19106787979743226 5.759691226014877 8.825974707390776 0.5705491316455787 2.6762463681841524 0.4214552301979838
P 5.083414223591541 -0.18362752432991955 3.1024534596384536 -0.2905961065908609 1.680137497253913 -0.8294160254539586
P 1.3752928377225149 8.152343559298368 1.6970636784263886 0.725722406518034 0.312226797486759 -0.4228140582187235
P 7.669818609628463 8.450640036445211 2.3091906294824835 -0.18606070847993117 -0.14543265054592372 -0.16894513184556711
P 7.114235930163875 2.3277162828020463 12.610330530532702 -0.8408710613684357 -0.437809246075975 -0.03331506921236198
P 5.09857344550877 -0.5478853088289355 8.778481108120257 -0.2161647269541632 1.3268769217542955 -1.1718481428795047
P 3.6411011760241165 4.912027163469387 6.301040872768154 0.8316953084064387 0.30531078709321613 -1.625936071510845
Ni 4.882652666252464 1.5602876827469414 10.019438192359743 -0.21781897472813455 -0.2931893212393338 -0.8165913628854645
Ni 5.482255034514923 3.9291544304697994 5.144606264023639 1.309148651236597 1.0699010743210413 1.2581911863521233
Ni 5.798019197089202 7.180237425342336 2.86727336558262 0.9206809317082273 -1.0795645655527344 0.3359675927471246
Ni 4.781089617809479 3.302495374506738 0.5153098045178999 -0.7405381313746279 1.435081026966064 1.0408236973391107
Ni 8.941772657746295 1.8906316148593687 7.937397568479773 -0.0034316513893682837 -1.8530565261455636 0.01788716469306597
Ni 4.845119105697846 4.7879776243156424 12.385751611212202 -1.4848102758703912 -2.791411478094786 -1.0265795287152708
Ni 0.4894054793711785 4.014922728579791 5.141774424171037 0.4622439820795716 1.299127005334537 0.2111667595189395
Ni 4.184281705375165 5.973490461883261 4.200575532434657 -0.4842058310626435 -1.058077856433868 0.8026305298299984
Ni 2.488916196259726 6.148933688658978 9.022374483676357 -2.0400302333580673 2.7657372132571334 1.5465658598116332
Ni 5.794869593028717 0.1644710155976488 12.434872350147202 0.3087923178839133 0.7076429233085039 -0.27615396302360184
Ni 1.8986317960931216 6.352190629630546 3.0484213944904432 -1.037804965117445 0.2623882766980772 -0.652679936809063
Ni 2.8440550825931195 0.003991679211373781 11.507270028105754 0.22302494440910622 1.0569445141603733 1.6388142130250936
Ni 6.008397794719789 7.905954800109778 10.416793922911577 -0.0007317359597019656 2.1358261947134705 4.41542564999257
Ni 9.724612821883712 5.968705306752792 12.631273061033394 -2.824384333476381 0.4345082067272001 1.1350574564137161
Ni 3.546472864117866 7.417411022502329 1.4329932102703478 -0.48693788528182586 -0.18429230372559874 0.10737441022162152
Ni 4.462895493645509 6.76882623619536 7.849169401560525 0.5854247632058304 1.7263921573460783 -1.6429529177838156
Ni 9.067682052116764 2.1327399032476566 10.956122963142965 0.5620187255770643 4.673729472208628 0.048059574511388196
Ni 1.4523413121279596 0.27774087129927766 -0.11781108007251745 0.5431378295121614 -0.20290066285540542 0.35339118754021076
Ni 2.5965354566647108 2.348716758540648 0.8149941635727019 -1.340992020999439 2.305910325259487 -2.2596944888250565
Ni 2.7192765549624673 4.400380058747641 2.1852195967800987 -0.09943381521830617 -2.0307313245546443 2.699349529860519
Ni 5.745775022910838 5.913984440954165 0.6562419691163306 -0.03260724451205997 -0.25704063923291864 1.4049042462723675
Ni 6.002248122696647 1.5603437587836264 1.2459553283093574 -0.28493170921623184 -1.5591948614295534 -0.3910884449806684
Ni 7.890832962217007 3.5452298453046773 6.611810529675007 0.32455549425544106 1.3854577075119816 -0.9851827109360387
Ni 7.5857606306373695 1.2799635753576994 3.105640447723395 -0.7336915407664396 1.11288734807458 -2.823365919514196
P 4.862558753106939 1.7105434230448955 5.249016105929009 -0.5534507814023952 -0.04525758628621883 1.6184168803156644
P 3.942379029121389 0.7314997487502951 0.13979755945616723 0.8049121267753235 -0.4721064766959482 -0.1965163565956164
P 7.643462872386426 3.3502534657502876 3.9288731156857617 0.45760828307977314 0.5969741586063266 -0.03169090334537768
P 4.2720967788241655 3.8879572355184164 10.3719144015512 0.21327737810403913 -0.3823423233569222 1.3891063600081626
P 0.527682982012486 0.11825781916477608 5.903698226624879 0.5496666317696147 3.0163367248503987 0.842489056587833
P 3.4877705997145907 7.556367441408218 10.656625524210448 0.6061136590137497 -0.673502272871053 -0.5067551771180692
P 1.5681944039195526 2.4550743081202167 3.106679723603294 1.2589195798777157 1.1164115591777548 0.8145627624912101
P 1.6171300919334908 6.352013055514377 5.111188684561713 -0.5564402030480223 -0.1571972472810196 1.1776878894897331
Ni 1.5482687188840834 2.26535973000812 6.651342266336839 -0.30812357395166284 -0.13457359634423277 -0.8236945495891491
Ni 3.8227501508596604 4.65976911244108 8.367268988903513 1.79528512366305 -4.0749259737030465 0.5671352208680231
Ni 3.3423934746082478 0.6280637606820251 6.756655867033452 1.7709385764978856 1.4336859463907503 -0.07543102454580558
Ni 5.1095082726623815 6.004266860017314 9.989235639001102 -1.2988804365413695 -2.2113150690804044 0.3416613006977922
Ni 2.056719489514774 2.8986918343367183 10.21520991703445 1.7070232659011635 -0.6593156969580258 -1.750802724979959
Ni 0.20294571896796593 4.388856433208836 2.811709490032493 -0.17337154304803692 -0.8605338299046859 -0.3857683183193356
Ni 5.292204000182715 2.3789230503017347 7.520220828160947 -3.3418615249976447 -0.7310031953009991 -1.971937394344888
Ni 1.7332074878718249 4.644086514181457 7.429092595544464 -1.689223518715581 -0.6578421977362929 -1.0938352165391354
Ni 9.117785990894978 2.5767593077270687 -0.3621166144982533 0.6870072493360233 0.4344138472411809 1.4879583345810696
Ni 3.1305382080116173 5.313718506257598 0.34029742862404766 0.4694261016503077 -0.014680227719994072 -1.821203900411341
Ni 2.4396347060195622 7.994368017950087 6.9733140461721685 -1.278600860356727 -1.981255843532336 -0.9205991706276985
Ni 4.042203720427134 2.27077106754824 12.236187475366698 -0.804337485218776 -0.014599237970413566 -1.0368508287342917
Ni 6.528699301103282 3.5216592178846713 10.654148832590185 -1.020155627466798 -3.127452604392323 1.503362584951282
Ni 5.009328433124297 2.568908662591143 3.378820468038944 0.31252350279157143 -0.5205074937071551 -3.0588851397355707
Ni 3.2091661574503614 3.309121692841704 4.814905337131868 -1.5801069289918723 -0.47632488565266995 -0.21971747730242808
Ni 6.954400533598867 3.7289162494731163 1.1483905012820261 0.9716167993261459 0.288211151298452 0.17645995216537352
Ni 0.5836749046426437 8.442798737315401 3.794478482364213 0.5851283150113342 -0.4388135189707733 -0.9025050321301489
Ni 0.9253574113728155 4.206319587792443 11.600764669470353 -0.7728746387238044 0.10061266601775576 -0.3891485476454782
Ni 6.342947429583605 7.204630501300392 6.2004610241683835 -1.0370369766031688 0.4030911258684994 0.31625083104448765
Ni 8.076182955473772 0.4975252894831933 0.3170015737837988 -1.8219461778940043 2.37425461816184 -0.05014319651329429
Ni 8.390844289326576 6.96729802203646 10.755838052115712 -1.062480613487254 0.2654815709114203 0.23029576703890658
Ni 6.93352155593975 5.3020920746515365 12.358010795864041 2.583552185682525 0.39948181125068616 -0.40376269801422726
Ni 4.6772648358868585 6.984700285421095 12.448345552561427 0.5207916006064773 2.485490825331713 0.5302941407802738
Ni 0.3983510802029972 1.2979920211519866 1.7562108127206992 -0.31365890194759527 -0.14594070053059383 0.8558765336383325
P 6.954325765549953 2.7995213634589677 8.407539060048368 2.986673650568327 1.1726528981689868 2.7340676500679946
P 2.911851010945508 2.151871177763419 8.307437726961643 0.7568224703569482 0.022325660080393807 0.16817997154476844
P 1.6643087307979605 2.3612590987459012 12.266991911519092 1.1356724642898959 -1.6852570778686653 0.7351303300954952
P 7.793157852317528 6.004154707943943 5.577745982785514 1.5797837413244988 -2.5119976133729898 -0.6033147561123738
P 4.970495777719807 4.702171942181195 2.4664147519391837 -0.0022402021844284 0.16668718904932583 -0.22943213348703065
P 4.312779943439267 8.029845457159581 5.681417490207862 -0.41034626476901587 -0.28853511029677403 0.3471086969656086
P 0.32874109206384233 0.537437408593874 9.806499723654477 1.5152955889434419 -0.9914086372410926 -2.261694549974221
P 0.8698066202312479 4.406623190831924 0.5395916630031966 -0.01165481063010896 0.6550587214538848 0.3276133072451584
