# total energy = -381170.69255892443 ev
CRYSTAL
PRIMVEC
9.28766427584348 0.00000000000000 0.00000000000000

0.00000000000000 9.28766427584348 0.00000000000000

0.00000000000000 0.00000000000000 13.59343547918698

PRIMCOORD
 96 1
Ni 4.572865120365867 3.1025164054335486 2.5429374160325073 -0.503699678121197 -0.05544455412154967 -0.5684680807468339
Ni 4.048687921079962 3.6600177443246453 8.790452932297628 0.09434508784148912 0.20002231286634584 0.2762251825811694
Ni 0.496295630976321 3.0798916551330335 3.988232656442806 2.689160505142659 2.5422389287560345 0.003922217872541632
Ni 7.396825897304733 1.7979432110734361 6.241847254726368 0.7549995582155965 -0.19927695005988905 0.8871046384146787
Ni 7.734293180625428 8.588405367462848 1.9265708606370329 0.6256116198373614 -0.825861989554113 -1.0400793629739185
Ni 0.962805722456028 2.826394144992535 8.49990692915682 -0.6430881793555698 0.3540193080425129 -1.629764444118
Ni 0.8895659878727888 5.421116791012966 2.340381815959042 -0.036954208626846036 -2.350700227880668 0.7001342736362846
Ni 4.172046678670865 8.81627821172522 7.223143788090972 0.009401238709241873 -1.3969536239667233 -0.33493658037944896
Ni 8.872384991924484 4.928341184816569 9.858408017665088 0.6987080827127192 -1.0676156207209742 -0.06052993906425705
Ni 7.179531702710789 8.1494239130483 9.210911997744887 -1.8354830360381744 -0.8624739843501922 4.037625694590691
Ni 4.8066449191401945 5.921935514516524 2.1942255575111425 0.5095491949234385 -0.586877436491957 -0.18292936193980108
Ni 3.5742461642650167 7.731711209942528 9.916574801812077 0.35057428691670595 1.6323563732148918 -0.34417146871415566
Ni 2.8679378675271012 4.533178930696696 1.053522983769772 0.6664343102806781 -1.0841051337355652 1.4749369826207372
Ni 0.677980920540637 4.728879305730419 6.354183412294015 1.0171080988897256 -0.6970697757783478 0.7924193936249514
Ni 1.6729683998896392 6.129375497259546 10.315772546082021 -1.0457455601207604 0.28887552435532826 0.46446155855618076
Ni 4.284120924104491 0.6114366631707151 1.1938558766846574 0.0757819801273211 0.5276258499194914 2.1090201302642195
Ni 8.56541839825358 0.9016065159062813 8.763116549884039 0.24783480436393449 0.17690115346785018 -0.674162017942239
Ni 3.2660814618959337 1.3043131397589574 8.408355635586513 -1.1293210681505712 0.39548863093089304 0.1663624587200554
Ni 7.946897104734249 2.112200621241016 3.96312531346769 -1.5824453473170617 -0.3448273571305997 0.7445269408190468
Ni 4.440868834950875 1.7356322711037502 10.430582937426376 -1.2936412996296172 0.9515177145834258 1.1267358239218983
Ni 2.1782452022701464 0.8775830433581236 6.245272545330156 0.23642810518888957 0.4197783567161932 1.2105944104097666
Ni 5.309432627481072 3.0930151248270517 13.2210022434148 0.9772143480185815 -0.7717754921223546 0.46276180225625463
Ni 4.301377404424014 6.81163803105492 5.690320670296815 1.0460803177523597 0.7737202745535514 0.37758449695696256
Ni 8.477557093720383 1.3520238714066362 1.7387770742448645 0.3717532349871662 1.7960353715655133 0.34335694323266025
P 4.180656343501972 2.4865863702614424 6.659506089379042 0.29414705716691275 -0.791832667883546 0.11371963571335898
Ni 3.0065562576072264 2.310287926006773 13.342201619049682 -0.3554377856565943 0.24854597149834617 -0.21384507768205108
P 1.3311080513422848 9.09412797773105 8.299716897187436 0.3170206193309766 0.6042940893065076 -2.0389269729915593
Ni 7.03483918016082 5.669961181325649 13.283749703607855 -0.09549462806490004 1.6935476000122316 -1.2059515123211166
P 2.407028237636561 4.008583786516077 3.2144392619386455 0.9029048386717289 0.6481537668039353 -0.7455443263399677
P 2.371967304802224 9.211459041173747 2.4065006983027883 0.5972214987304424 -2.2530744124053776 0.2925156922110768
P 7.216450168410521 4.8088182325927065 11.20948640484324 -0.03773453843629631 -0.4960321342736102 0.027490749221101042
Ni 7.894867609174526 3.4662770664639138 8.150365682211056 -0.3261246385147738 -1.2362627617101483 -0.22214562712794644
Ni 8.81400273396511 2.397582683016026 10.860842346271461 0.5802517036453232 -0.003993437430109251 -0.6008159009499201
Ni 5.545961574896185 2.3051146969766467 4.591291846390588 -0.23259330482383167 1.5339175749200034 2.27713222468553
Ni 8.246099211027799 5.683344705620823 7.735793138414235 -1.6928045511986203 0.3991300843382223 -0.6876798499230157
Ni 6.494780074875786 4.548958672388229 3.7049319602434716 -0.0968367439150913 -0.5609015812534857 1.2114048221262042
Ni 9.10144665722071 7.143179784535003 6.171691953466117 -0.2796668612728667 -1.4141573894395194 -1.0681162145064766
Ni 8.875162003558252 6.700473976725337 11.458844402993204 -0.8116196207024862 -0.3805718617200607 0.014250339271427069
Ni 1.3439621787708205 7.199695221964656 1.1553715107793971 -0.023798387971178368 1.9789840167790238 0.02932111756162047
Ni 1.707100566291278 0.44352126473757464 10.234837052837449 0.2788803608158294 1.12086085319836 0.13722646058604754
Ni 5.759494265437703 8.03754470856554 3.259542946209742 0.6106786526766128 -0.12062279059109547 -0.06994968971626017
Ni 6.673233257254314 6.591093153946534 4.989701996725604 -0.0411708178113549 -0.06766989254314797 1.0572985550656824
Ni 1.6530184969152935 8.114920240073582 11.890653923014462 -2.157105158696904 -0.11385924661501681 -0.2670160052780756
Ni 7.550072358699848 6.366647457820816 2.489161839579313 -0.5598438294129325 0.28056829004121353 -1.0910972487826822
Ni 1.9138811248670848 0.20644713142646834 0.1712701027880445 -0.09803256399540536 0.24432987653446953 0.5846151228203416
Ni 2.314439511960931 8.181949313521372 5.100148114602713 -0.07092439492470366 0.6963668361740523 -0.17926862525876222
Ni 9.261018018022494 0.0002099012137896709 6.156711879673136 0.6840126854840736 2.2488485472494886 0.3464363534889324
Ni 4.163344137196487 4.797468706785141 4.381164013591339 1.6153217863301084 -1.1161523919790972 -0.9691482831809952
Ni 4.179690426411966 0.49018713414846854 4.131793012711316 -1.168902172877303 -0.6134032506966275 -0.79056125737029
Ni 6.417906077241401 4.5330396157317905 1.4767776361794511 -0.3740590003022074 -1.748005107630164 -1.7956160246399073
Ni 8.059667924992398 8.521877827888716 4.24101594519656 -0.2618226340025942 0.1639088549732403 0.16829027187038761
Ni 6.203528209246127 5.18100280516764 9.091846927372346 0.06124959083910097 -0.42580836496035696 -0.6369177888787999
Ni 6.338942355133446 1.071192765151845 2.937065953112788 -1.2314100616035375 -1.5131014095056006 -1.9083797241979004
Ni 2.8441893098430215 2.5381329072761627 4.757893040321462 0.6280798788721956 0.3582066066509831 -0.06786632482467021
Ni 3.7669187607281462 5.613027799001283 10.958946087024449 1.0340544969360772 -0.9372864014753923 -0.4251553047573904
Ni 1.0668647135754739 0.7618401705153415 3.966224607053602 -0.5374212387433583 -0.5520873253959653 0.13775482228569177
P 6.039313016280854 6.8659151413817705 7.590465339624301 1.0589466321920666 -0.12341500862425196 -1.1330972473635519
Ni 2.110946786556874 1.942793623916963 1.9985344701417456 1.076350943711443 0.8071263608178229 1.0204613316326747
P 0.45090960170968447 2.3770848078463884 6.126153606504518 -0.7020980822308748 0.15070778290193398 0.27375486666380594
Ni 8.784681577684845 0.6936845033846891 13.107089969210865 0.15582067864846713 -0.2926617308706379 -0.38490622742935643
P 1.2449835400382308 1.5879119699831876 12.050880064151299 -0.00956218976713837 0.3997638612674793 0.3696305322172086
P 6.565440625075425 0.9092632663774408 0.46946542626855103 -0.42752303365861855 0.0056052620019193785 0.21209055688478956
P 3.8535540935701835 3.6278824257533064 11.769142481858195 -0.13337211983696387 0.17490906273848586 -0.27962598073260225
Ni 3.6063536198433748 7.386934534796503 3.308982112188671 -1.9460900942644808 0.87918949733266 0.2663104945706188
Ni 0.7576792968968559 7.584910387590336 3.3704107240472942 0.7534206437642509 0.9797887936139771 0.060983481661907875
Ni 2.368874512581341 5.881339133743309 4.95588096707892 -3.0956868819449523 0.18404702048401209 -0.9564256934080045
Ni 2.1072595838190646 3.053254633843265 10.391461437748285 1.7233669973665091 -1.2237800558621053 -1.3123087941321336
Ni 1.9412054333170499 7.208992173955959 7.1591322767830174 0.8300922255853768 -0.26251477497361236 0.5732603599291547
Ni 0.6011403584978289 3.1921330785245456 0.9766016190473192 -0.7574855578622438 1.2065945452217541 -0.4280642508740692
Ni 5.598223262064082 4.254855493810188 6.608598543670019 0.6486826427242118 -0.009322048731874267 0.16144162437967036
Ni 6.333843427417936 2.9446168242106197 10.089903979781415 1.2031446389999407 0.9698028860458588 0.026085641343458303
Ni 2.290412324347043 5.893143755102897 13.03224439746549 -0.2728398110487043 0.6993336321118602 -1.9003437412673014
Ni 0.04210469745991567 7.439428413572575 8.772428362138266 0.572241431746337 0.019093526296341312 0.989835636327018
Ni 8.088961218279684 3.582168541935928 12.886943532902107 -0.4857212392659054 -0.6807288725264792 -0.1737165850922815
Ni 3.281257505406213 4.422377095275865 6.56935351805638 -1.5605511183471317 0.7056726869560105 0.5686051205453305
Ni 5.660524914369441 1.2729208343337766 8.030159157892728 1.0215190834732277 0.633269136382619 -0.1401217798559716
Ni 0.06252176994990831 5.514894337722447 0.11236309179419549 -0.2527723508748679 -0.3314023419739454 -0.2540314200929496
Ni 6.011914406516273 6.585966363238042 10.932765090053136 -0.6889864845495811 -0.38212892179453545 0.16043143794760112
Ni 5.876314507342415 8.031266247480504 0.6437521624299976 0.1089353269508382 -0.5525930613877902 0.08165566529927873
Ni 4.6778621655823365 5.538067060218254 13.246666846249536 0.18801886064756648 0.08281908947976059 -0.1279434926222248
Ni 8.624413642058537 8.978886638761926 10.860312020638391 1.5160586923617116 1.0602234420219612 -0.3040000387015926
Ni 3.564261925113517 7.423908726482197 0.734688612621858 0.6805231842735764 1.047138583813545 0.2705314746305018
Ni 4.413804581102066 0.33799296512160126 12.585876463611697 0.4808232877436558 -0.8212802837207017 -1.4482065086044285
Ni 6.878629953845401 8.269309084180914 12.030068265927408 -0.31686635314129946 0.0541749433805067 1.4673733113408665
Ni 8.870072363507068 5.823644162944131 4.177643425194301 -0.09049074709240544 -1.0918073874758294 1.9819495271652514
Ni 7.774369452196332 4.209745308174063 5.682694569117934 0.2869024597893575 -0.5334882222375392 0.09058793479190205
Ni 4.138768977387308 6.230518161780322 8.048333259447757 -1.1660996704315014 -0.7260695054448076 0.7502679570678821
Ni 6.051619171514099 9.11677130336022 5.475232295980526 -0.9948294899971833 0.3313540052345132 -0.770240286424751
P 5.359502425867803 0.009117700069792919 9.864511870660778 0.534587368838989 -1.5200279614221048 -0.16806658589535572
Ni 7.324772197456049 8.591609611655656 7.231640143417291 0.48749092957181844 0.6188203079471408 -2.9374802195628122
P 9.108365967144307 7.7126529227435725 13.35884046969146 -0.6723018248050485 0.7802513908038499 -0.11141052796420811
Ni 1.4145948659774774 3.9226821791558706 12.192754709344463 -1.513437966909413 0.6219789081807805 2.131075310292046
P 1.928453470196111 5.373963319224906 8.40631606450031 0.19704368985399615 -1.3003539357631024 -1.274815939392998
P 8.240777379368442 3.86794068561267 2.3410068757682474 0.8436892475435213 -0.42068775590434 0.3422935349651524
P 3.5769953129058014 7.550991837468217 12.10424791214054 2.2511537983438967 -0.6841001029915573 0.6241597178821832
Ni 6.822681063939695 1.2681191118767294 11.854536053979716 -0.9837248954435898 0.8542585384189352 -0.07416604179045291
