# total energy = -340896.4373302901 ev
CRYSTAL
PRIMVEC
9.03009739197097 0.00000000000000 0.00000000000000
0.00000000000000 9.03009739197097 0.00000000000000
0.00000000000000 0.00000000000000 13.21646030938878
PRIMCOORD
 96 1
Ni 6.323777191836777 1.9437826405911998 11.60844030948792 0.29052257304044804 0.2538146760964532 -0.9516925495983932
Ni 4.84524322820947 0.4201288924190815 5.940494708747369 -0.5299241590353647 -1.075199089495187 -0.6882578339136727
Ni 2.6184031552959577 1.435803542847967 4.742647776881391 0.5904772380280734 0.8820264525608229 0.8923628014898244
Ni 3.6092396198846797 4.4228875137776695 5.105795851853366 -0.5484039630071071 -0.33758661640778637 -0.495917720182933
Ni 4.799415484030445 4.563377768740681 2.643477026677613 1.2434641645545939 0.4180726868789961 -0.34893752264423133
Ni 7.2029474722840545 6.009159569188219 2.4453223758961937 0.542331274450466 -0.6661440327337689 0.4257443444916409
Ni 4.98009870241037 4.5562439918142905 11.69861576488618 -0.20560597760171043 -0.2772058013268839 -1.5225586982637582
Ni 5.550096508926322 7.76473692028597 12.246279431564105 0.3667107874672523 0.9373766471963534 0.5636287503766616
Ni 1.6102559940390202 6.717931912165898 0.3159992275469601 1.1499423439453487 -0.19295177917280965 -0.2717108396505836
Ni 2.57984463950395 1.5598861108802804 0.23066841939048316 0.2672075524635914 -0.5566826580761316 1.4062378774821265
Ni 0.4949008077147634 -0.024653971853709506 4.829453199939235 -0.054097038954719734 0.14829531680569943 -0.16127064601944482
Ni 8.741748305793296 2.382311259421943 1.31116562382708 -0.30308164065238125 0.36156523871057084 0.941199106266237
Ni 6.950158926363336 0.6202277231653763 4.64475339424683 -0.7456937074336383 0.015855736085333985 1.0377699981144515
Ni 0.8086271597523914 7.370419658204096 2.5575836434546626 -0.36805778841345 -0.4567819305237359 0.39392282910567
Ni 7.709436603960383 3.5088339671700814 3.725270953097285 0.08541873188613677 1.4963653276978421 0.0659415969981316
Ni 7.404571486477018 3.9924769524872117 12.692216342281442 1.0292236512063373 -1.086822018446096 0.1587144552564944
Ni 7.9673632752875765 8.763438599688472 7.070673702922718 -0.1885881028874752 1.0540700208260558 -1.113574861059908
Ni 6.950944544834977 0.5732694107949785 0.35940690562943817 -0.6324983196548656 -0.2369436113727274 0.29865574367054376
Ni 2.109629408983709 6.626538296631727 9.235755133867917 -0.40387582655332377 -0.5242582189988391 -1.1459069975337104
Ni 0.172473956856152 4.886014117858396 1.2426587900902961 -0.13076373567983932 -0.05206303924382646 0.7097669116300421
Ni 6.471328982947177 1.9826391495965885 7.011781213861284 0.6788424541370438 0.3747727385397804 0.17882048197775008
Ni 3.271035382892158 4.639411188639675 0.4890086691774601 0.05180181516263981 -0.7499265145680633 -0.11480541257837001
Ni 6.026488326051185 5.411899898696606 4.7214749075658125 -0.27050936314331475 0.9229926105605394 0.06354147219707122
Ni 5.108913041467276 2.7724204961269847 9.34485677035481 1.1594837077768807 -0.21918217362424833 0.24045573829104394
P 0.12123989337860763 5.49246642747794 12.304101854086579 0.9433076679688076 -0.035275792483158604 0.46142251461954087
P 3.8510927178840575 6.344302603170555 12.571390930372356 -0.20523033942984656 -0.060798362234295286 -0.5423621276884014
P 2.299947741262949 8.536232319631631 1.467212027538309 1.4931848730873316 -0.5158512258820663 -0.6637441650430247
P 6.46817747896324 7.685579086695164 5.77112620237854 -0.8626565326746434 0.20224014645327107 0.13046985858850435
P 4.631970388402529 1.1657133303564091 12.739610808355062 0.08613169879276135 -1.666807098693594 -1.201233538020157
P 4.03436757421066 6.006567931241543 8.061353946826848 -0.22493733094047066 0.3789813773044892 0.9642511029896943
P 4.843193396105305 1.0146668915618156 3.698587015353636 -0.5881922986486386 -0.025805648209194267 0.7942790725415094
P 0.12270186614364888 5.476447034734374 3.675219832375889 0.7969399072031244 -0.8623852812911277 -1.543538385839219
Ni 1.5095884685005418 1.110403983933447 2.5886688506589732 -0.40059921268458104 0.8291594293584623 0.28639955201101
Ni 1.6973241929304812 6.56846574041196 4.907787488649424 0.5441333606562112 -0.06951620172326738 -0.4952299500872891
Ni 5.967729482430904 5.526771767406239 9.19071300816053 0.07569353417857286 -0.006844790835975309 0.5527198167736417
Ni 8.581138993878389 2.4441222759550327 10.385097800692867 -0.2030384739848503 0.5525992320353773 -0.34739511785777594
Ni 2.2081658315416455 5.331658453420779 6.926997629605744 0.3366931580592395 -0.7035821229755689 1.1797882236621875
Ni 0.48405566076717527 0.13899487083768158 9.103194207410048 0.345209937280999 0.21474804911229464 0.22995972385572658
Ni 1.2585517614706083 0.9524404905494677 11.414237229317877 0.5739262756479278 0.8499318860191232 -0.2491386107770225
Ni 4.022483966064926 6.899319478141088 1.670692629751608 -0.45340555785233533 0.48123774957325516 -0.2811460169215545
Ni 5.710154984901343 7.7406536505863714 7.977851733388846 -0.40315926010227343 0.4630574791198025 -0.3748984654843673
Ni 5.459515602155917 2.890109755217672 5.024237818380238 -0.4600696001360722 -0.7863276789049167 -1.3237270632714042
Ni 1.0690280777603838 7.577145677414034 7.2479336113877135 -0.8220081630256616 -0.2277676013004142 -0.7104310275766023
Ni 5.255056137387149 4.3601825176044375 7.186265270393151 -0.25134281751719295 -0.10799096075969788 -0.25890905990022506
Ni 8.118310383011044 7.290268513902021 8.84651730155958 -0.30379769288279934 -0.6144957124298579 1.756455552390362
Ni 4.612131264469263 0.39980575526650713 10.358770551795535 -0.468185030154355 -0.016935856523390188 0.2859750628790817
Ni 8.18226153262205 7.023022782083643 4.648202891444148 -0.6281811803367504 0.7312865308693728 0.45129956725292597
Ni 7.171215710107681 5.981346869272673 7.0431174577726265 0.5482183293588623 -0.18987288313716977 -0.8453933747188214
Ni 2.3206627846416064 5.131804338313352 2.7335341878002573 -0.2124836785581502 1.1062790987294433 -0.11465011794742835
Ni 2.3668607628130145 5.362243393230505 11.207836293613447 0.07583803017623714 -0.8657120316715154 1.5605873709017057
Ni 1.1908711816436532 3.4632861560096866 3.9288969398783244 -0.18237786031170525 -0.8748091088767772 0.040548353736007584
Ni 3.5548332831992355 2.675256648370075 2.8413273631774887 0.025859384265265142 -0.4155848874601359 -0.1972249526268668
Ni 1.0701658700296564 3.35785976915449 8.359609033031585 0.2273017174075892 0.37085900530767096 -1.3114577589857477
Ni 3.8081816951572147 2.509328609101189 6.943320433621115 -0.5409446785155845 0.38892691855297534 -0.04687146774055798
Ni 4.123621056666913 6.875335539512616 6.0440455443777426 0.5108267760842815 0.09054448314847631 -0.9747394041155278
Ni 0.8019855231329484 7.346399599186124 11.149921764097746 -0.27561505980099626 0.2684151996184474 0.45509117308487435
P 0.18192756579822528 5.60341020382937 8.013033895772274 0.8440324898155528 0.23305173251748895 -0.5860976209031391
P 8.503471126354487 1.7167659925792385 8.027255396128442 -0.18309365543180725 -0.16947400776584362 -0.21693168702717477
P 1.6844021235866025 3.211933395571622 10.39051676212771 0.7382699041657415 0.03530330328698437 0.9658138194911239
P 3.948852552067729 6.2072618454048625 3.870440604520113 -0.043980262235692 -0.0792704528965538 -0.2606016171112996
P 6.77685329753893 3.9257355027872745 10.488199840483691 -0.10333597848618978 -0.11803908902431928 -0.6111211395306702
P 6.304768836862028 7.673885110594309 10.090714820242605 0.8658734969500442 0.5349545223704205 0.9871843147470999
P 2.4172035556796287 8.502839019538225 5.772421118342141 0.10543965509275388 0.43737035876634345 1.0077189443653418
P 6.815863318199697 3.972059902321935 1.6116809434048232 0.0730560965557258 0.11297838667196027 0.40100364721185133
Ni 5.197182243309637 2.9613030429235714 0.4319709621168892 -0.30637059581629816 0.7439191320317189 0.7676576132992392
Ni 1.6135610096783353 1.1598889175494196 7.055871567305327 -0.9562711701080111 0.05370211750914622 -0.49403438711729103
Ni 6.775462662543153 0.8494612600829439 9.293815047951357 0.3414507273488829 -0.43720915059813087 -0.8080745836637051
Ni 2.7083158348605996 1.6264018081458373 9.0860921059912 0.6799691115423192 -0.3922063606351955 0.953203329815965
Ni 6.398419976739993 1.9461665862982465 2.4847866104549317 0.06068497658488258 -0.03895452688632646 -0.2172412478477936
Ni 4.240271854559456 6.934898061799286 10.3371750739228 -0.278213673766108 -0.24674671350607824 -0.19745275236695672
Ni 8.17537156832479 7.155521400869622 13.291397617494495 -0.32971595541045795 0.5259008968085845 0.6546380889766984
Ni 7.769035246636554 3.823876004395273 8.281698255888292 -1.1360457884689146 0.23159391702503984 0.05618708871452904
Ni 2.9961772789865067 8.363360135481233 12.14776377823013 0.36139194635750016 0.27990365987402116 0.700581131365716
Ni 0.1733282040678438 5.1279846071236515 10.146937109510198 -0.42162440878599644 -1.1912131776696775 -0.4077944448814396
Ni 8.611597512324863 2.1796668442255855 5.741415375994731 0.5220450133976041 0.6705586168616968 0.1734928991172496
Ni 3.551699839410049 2.620100813602491 11.507030509945203 -0.3438765631815562 0.4232627157203678 -0.952295987510347
Ni 1.0600521609694573 3.294305943827991 12.612587137607655 -0.17108866055113117 0.8273416594234333 -0.7215351079095639
Ni 3.31158955020408 8.350094922437098 7.848687026553782 0.2632961332243272 0.5620120407088449 0.6773260174925174
Ni 5.695625558224682 7.665405849159018 3.5294821878281626 -0.8643331490461179 0.509485945785671 0.40309369697166064
Ni 3.0277645596048774 8.359016658643773 3.716944300307634 1.401996328596953 -0.8308656134162916 -1.327272100310185
Ni 3.359629668240024 4.189730399550588 9.269774219709422 -0.25014468344403373 0.9671605633270052 -0.47575487208181283
Ni 7.211733757030102 6.010270271165366 11.440630397926046 -0.8419038735083243 0.3216038678262848 -1.4015831523189346
Ni 0.4771891747230903 9.078047192239653 0.4489222609095724 -0.2953253937457301 0.10097493445318093 -0.17847184038907973
Ni 4.664876063237676 0.3599938619588247 1.5556302259873591 -0.521123015803967 -0.5977112938826674 0.029966207344787103
Ni 5.746329554986303 5.582270745874079 0.38258445656230616 0.4673103408588855 0.9956010780558855 1.0996777913628415
Ni 8.09725219593213 8.929727842852365 11.068018780904888 -1.2233697077975643 -0.25520795689955406 1.032518777017841
Ni 9.164374923146351 4.827860290762254 5.829146384033531 -0.4511123909427844 -0.7973857364912912 0.2183511930825207
Ni 7.774931900222546 8.609782462752452 2.6756991231414586 0.4922870654088813 0.17592259160466475 -1.085142573861144
P 8.54286041110501 1.519124251328729 3.451544320392743 0.29758205099039076 -0.13880640347865772 0.24359325547876115
P 1.871072296526271 3.3000490857586033 1.565410724454414 -0.4866710047736844 -0.7882526638417715 0.03834980342279202
P 4.894132175398681 0.9503093875689257 8.078627620095826 -0.5426081822609365 -0.054542354022254456 1.1238631303597935
P 8.438896900024593 1.7080429185148172 12.496625336144836 -0.2008250112732993 -0.5418857022726152 -0.7295361238371695
P 6.350000594614293 7.653142976923527 1.1883987409823298 -0.6253642797132455 -0.15406924317499918 0.9664913051741225
P 1.8797682802985667 3.1957063105884282 6.069262994307662 -0.10511415343253509 0.027380963116114137 -0.32189337404224566
P 7.078828783862241 4.014970925048778 5.969769381427957 0.17869141259905352 -0.9265530742182883 0.23145841988844007
P 2.377723969955353 8.644024591999125 10.035059621090175 0.8167679976726449 -0.3269535621739724 0.031379028531913704
