# total energy = -340860.12757940835 ev
CRYSTAL
PRIMVEC
9.37516141458325 0.00000000000000 0.00000000000000
0.00000000000000 9.37516141458325 0.00000000000000
0.00000000000000 0.00000000000000 13.72149638608313
PRIMCOORD
 96 1
Ni 9.000304689770253 0.07891260628441003 13.572274518994721 -2.133328882212913 0.29841277442180214 -1.9917788545508468
Ni 4.352043549314022 2.652458088249112 9.730160046418627 0.8924687309400695 -0.9725976751821764 0.4000243140177175
Ni 5.322653981360898 9.215914645495301 9.878118839411615 1.920838004565911 3.125476454502559 -0.4617996954533014
Ni 7.9276456287962045 1.573377041899305 7.782736575719618 -1.1348358273212131 0.9484961541482826 -0.3469996821915701
Ni 3.228683616935456 0.15656331588038666 10.49861856654615 -1.0103751510412664 -0.4714649864572074 1.4736737996375975
Ni 7.472331553235607 0.16799069978478093 11.961289018212424 0.8748021668982418 2.6876998614367325 -2.702068728563895
Ni 4.940794293273374 7.605571343250581 11.445373901091402 -1.5780958120991144 -1.1373223411884927 -0.10552115906296666
Ni 7.773583605905966 4.394119272476645 7.5468087707882345 0.2866749171595837 -0.04065891117194288 1.185851399137132
Ni 3.8978732434115884 7.430321456200911 8.942559322290784 -1.8258920499156297 0.1517195119959 -0.17113905417309236
Ni 1.715607611440338 6.891099688504512 7.425895442630262 0.9781276038614704 -0.6976349042531985 -1.3893925237900135
Ni 2.8480333246340237 1.8515755733448669 2.093420042466965 -0.31998510127593927 0.25597825940667523 0.8327502320335142
Ni 5.255809082486232 6.039188171556114 4.231420851151156 -0.2333939463482561 -1.0136846750304735 -0.4782966646670601
Ni 8.094392244698703 7.487669316848364 11.405979474012671 -0.16415053867040116 -0.7488070562516395 -2.7460944993255416
Ni 1.7575052065414438 2.9223221014478886 4.295116633401418 1.0100234241288024 -0.29031688478754514 1.0222004258109685
Ni 5.624946676916964 3.0135799199115634 7.322283974342302 -0.8989587095397872 -3.52220847092225 1.837557659179016
Ni 3.923889315554253 5.550611024297436 6.604019129402027 -2.9571604716005586 -0.03317905785512996 -1.2406102400455665
Ni 7.226458577374876 7.408299202700689 3.9840637872831515 -0.12232126133944095 1.1920526428518372 -1.001150804229521
Ni 1.6172059201937041 9.135438262333992 0.38381534669976153 3.8752623297277005 1.0030914728956597 2.3471155958532033
Ni 4.216872476105754 9.027745786405058 0.31991706096903716 -0.26895538839263355 -0.9558022008913927 0.5843114755369937
Ni 9.167088806317283 4.52507152317529 3.8845558270228837 -0.2730488417357168 -0.3949600121209327 -1.9752916555291016
Ni 2.4250354294971257 0.09490850620866755 6.200620946128717 0.43547468440552745 0.40071722631968404 1.0756220359652184
Ni 3.0633714006862274 1.6550721960078385 13.484073003060237 0.5708962305723523 -0.34740565938073714 -0.33756013404522506
Ni 5.174104553216566 6.142952454970533 13.318509532492659 -0.6241057247157962 0.6827402465295532 0.14414272808990658
Ni 6.326143103499423 4.219385019289263 0.5021514430624129 0.7999648100723772 -0.6083366348069974 -1.6406898327812518
P 2.4675236597495784 4.715321668036947 8.078105714779339 -0.5038927679686096 1.7557973499810728 0.1023173074136883
P 3.376867413795621 0.6106998712027427 8.432709934422482 -0.6612926181787385 0.6827513022731467 0.21060034549250825
P 6.4154415132864075 1.1256474716948937 6.197724958854891 -0.268424455589828 2.034535271681767 -1.5120200035159637
P 1.3667109898946554 5.446865491205282 5.065825192200738 -1.8333672752467522 -1.5408122451573076 1.522923794912661
P 2.0161565270257604 3.9893841912258408 2.35643362542623 0.06283930392372404 0.6003410181960306 -1.1415528343300727
P 3.5738301740281413 7.700588601328384 5.784585045648808 0.059747809482593874 -1.0378131926475611 0.9956327026247691
P 8.270110889804997 7.261643557105118 7.58236125683487 0.3325207718491047 -0.5898282915901649 0.9167908526252018
P 5.02825517147839 3.6585816306658674 3.4049207084523765 0.3876380245382227 0.031132973959378637 -0.15419265612674088
Ni 4.846048914868412 5.081318583488294 1.719399864118431 -1.8163092913232008 0.7278003720929853 2.2683963874744286
Ni 1.9969655721875497 8.033809953460542 12.228994869318502 0.08547503904536892 -0.1341766180161302 -0.9919732514953108
Ni 6.832036173369814 6.721268644589423 1.4370246983883441 0.3675268556106444 -0.53364557375101 0.5937600225444033
Ni 7.687791506382533 2.002900049184417 0.3893007534783825 0.6783002084803287 0.8746594706727905 -0.08504489348648579
Ni 1.0826061069356239 0.1837822211963501 3.15488797359716 0.3384649052476816 0.28866289412388996 -0.6653935277209896
Ni 2.834936224531932 5.636449999626532 12.158205840155397 0.08999863794733533 -0.21239960348477616 2.598048836636803
Ni 6.141696183378779 7.5750364434420545 8.718021400619264 1.8785459286659196 -1.227162599181093 -0.6628802743808325
Ni 3.08395925453318 4.053294664666038 0.23700313591327962 0.23023123234955833 -0.03197912400975783 0.7820529627889627
Ni 7.498131996672225 0.06709615319301736 1.6954557025860468 -0.28616918116775875 -0.9589127214959162 1.6557737236975676
Ni 7.167882570619068 2.879271361527486 2.638025965201754 -0.45739668128959937 0.6065324917187231 1.0722911718197725
Ni 8.386747269454327 4.421738497172965 1.160386193755229 1.17374253168874 0.37877466061032183 0.9998508544711748
Ni 5.201180018567202 0.05903632716741415 7.542170878575991 -0.07947768381135345 -0.7071225320286596 -0.6894076312473998
Ni 8.187778224739453 9.226292948868968 9.137775490004321 -1.1747540036723898 -0.7541217835963335 1.1307688563406912
Ni 2.7443909183143265 6.542465571470539 4.1959921172314685 2.6464683655907715 0.8442142668090559 -1.5572225681945309
Ni 1.0175143631927333 5.388298859610606 0.4508983746671934 0.4959115495353459 1.3573167263013914 0.08348423386758526
Ni 2.181787498753493 3.477153512429886 9.859649771980605 -1.8244483754905676 -0.12522275125695206 1.5118253710066545
Ni 5.040686635140075 4.035088101746738 12.07917041926015 -0.5150089324864291 0.4552534096943514 0.035224370419932885
Ni 5.271803107378263 0.2611844890223157 12.14662470360843 -0.9229249905473976 3.5643799620839776 0.4524889595753368
Ni 1.2895440386131154 1.6970260420757395 11.786518201896627 0.11843041092546701 -0.6037145626539537 0.1730126170467214
Ni 0.5342660575217636 7.266696768955532 4.152962002665558 -1.0380337932987993 -0.03890798991910719 -0.013204157395099841
Ni 3.873732203495422 3.298819197367627 5.276532876169604 0.497793082828775 0.7099270913569903 0.345753725599611
Ni 0.4021869124549925 3.0308677170398783 8.12972535197484 0.4729001762418371 0.40606692066737166 1.8601946798522413
Ni 0.39645868900304 2.5149150992743246 2.580354661495231 -1.479824906840658 -0.18070792880845005 -2.164741849306556
Ni 7.167179433534131 3.2760281806545395 5.355431419712316 -1.3963183043755694 0.24785357341701186 0.03482147855455939
P 8.642614167082295 9.022476945848597 4.0656239390713775 -0.4400795301673905 0.3573154622952814 -0.2667033591336633
P 0.11451478068504767 3.6680411682485516 10.750284454470647 -0.4407547018575441 -1.3956667868344994 -1.657281418591346
P 0.5399342799424681 1.8525412149415135 0.5288115887748799 1.2795012606838092 0.14724373561273352 -0.22203429836106275
P 0.25261090416665194 1.6361999966481326 6.439250672498485 1.5268868933254671 -0.5448854083308874 0.29209325996167756
P 3.1126472475986047 3.0995313971742484 11.888386827730058 -0.12254237621131155 0.5396845808562384 -0.8635877862396611
P 5.913457885608267 4.759628679549103 6.50870936629689 0.9164866911212216 2.7851636974128615 -2.33514093998983
P 2.892743468074877 0.7318438283245754 4.233068066962134 0.8395885951115862 1.4943688660931038 -0.5432494153893612
P 5.642965736613614 2.3387933222393333 13.60405350268553 -1.5917529978712328 -1.229353950405457 -0.687330694113713
Ni 6.926303418557019 2.657876931383692 11.837836896419773 0.9843838691838273 -1.5144972614118628 1.186692921201821
Ni 7.76863352082801 4.829248626118987 11.502935515412673 0.04833365410838127 0.7822684212338785 1.765463412315927
Ni 0.37302828630071644 8.891834075467324 7.018929073029924 -1.2247015392351102 -0.09494029822332681 0.624227337895325
Ni 7.701685495180886 6.008072011757374 9.416678096050934 -1.1876187754501997 0.5105357272064239 -0.22226775452810754
Ni 3.7752273854763305 5.1611387053703295 10.165432840026297 -0.45566144376604756 0.10205325511902424 0.687904564339312
Ni 5.675741299932804 7.003301616938174 6.362973424008417 1.0349587539179015 -0.465857667572759 1.5666346055370504
Ni 1.3203226926110863 1.1200505004987962 9.451188064179634 -0.0055610390275452615 0.43906857240437286 -2.0556250024725307
Ni 5.073509074264928 5.184745361101943 8.497763240004728 2.4248603561338498 0.3992959204921252 -0.8624223051766502
Ni 8.620591913582071 1.804381012203903 4.566074727904357 0.5799609118777819 -1.1401114738978557 -0.938025850744578
Ni 6.51131191102727 8.271310910429955 13.43405839345062 0.06975582853789922 -1.329143349190969 1.1258930163056287
Ni 0.42368321941568293 5.519504239659828 8.99894154134159 1.7365919806972154 -1.0389460207004235 -1.317720452066008
Ni 0.7944530293995822 8.04373824909985 9.303078331092417 1.2766949015832658 -2.0615989606677783 -0.384175519910919
Ni 7.962811858204181 5.651403381632855 5.488324328765388 -0.5194823948767505 1.0893710101201948 0.9877892953209504
Ni 5.385973819649747 1.3480075434353342 1.859948529752295 -0.53554099100151 0.4253743627467319 -0.5083821711985309
Ni 0.3142010252265569 3.552182926973218 12.84252416415103 -0.43630875027104854 0.4027514831408935 1.6727579169603901
Ni 6.4448701440813 3.8738447054290117 9.926226541246884 -0.21561913886333833 1.166424657871088 -1.738392010020432
Ni 0.5899151389720084 5.605436966600248 11.299157950552946 0.6926528776575749 1.9822398047121603 1.3921410330694282
Ni 3.4133086651176168 8.704162099917102 2.602034721614118 0.027163962009301608 -0.34293656786579 0.014203545193891668
Ni 0.28917684513170977 3.8020497214763895 6.040449130728435 0.012316098363191691 0.5914516861262007 -0.45584064965638915
Ni 2.9653259655626285 2.7353720133048696 7.75263105829096 0.2382340480493768 -1.404215447735459 -1.7910302050414382
Ni 5.222705388527403 1.6065651123083258 4.286060227747431 0.16526356922892185 0.37583717524855276 -0.4105452681536994
Ni 0.07176404592088503 7.935783268659207 1.4145768125727058 -0.7571477149068508 -2.185759589208803 1.7508875713842815
Ni 5.3263384196859676 8.737247043553667 5.006685738260867 -1.055820427858259 0.7246718537663326 -1.3039483379825803
Ni 7.424396354365176 8.620048154236386 6.046678925300975 1.1832579273783428 0.07737632119763448 0.4813251670807388
P 6.6075104394077675 1.8667820847017684 9.87756945496925 -0.21363064767839982 -3.16401497689739 -0.8296204281552808
P 0.3496231965334507 9.285675219482172 10.860989169671448 -1.6192830849707016 0.5469705729946903 2.1896509538434095
P 2.381300302814051 6.8419457186868575 10.499977027394248 -0.34277870213168704 0.5742191242979982 -1.6952481276431064
P 8.687839944385434 7.112690997032089 13.24538796323979 0.6173869179347238 -1.4194358642296394 3.235162286466177
P 5.8608351061715895 5.8667133322016625 10.836976569462797 0.9162061837663253 -0.6231181639915463 -0.5255908217673335
P 7.2054863419214925 5.387005087374322 3.29848262908297 0.33200629410653143 -1.0213342211559313 -1.0837914591498885
P 3.1788546355162617 7.1039439716954735 0.2641001641345207 -0.2176407972790574 -0.5225638620155516 -0.06225103552042183
P 5.61274021712246 8.717352951630518 2.7575405193187597 0.7206161956397202 -0.41678379286424344 -0.23585757739740026
