# total energy = -340873.69900703867 ev
CRYSTAL
PRIMVEC
9.24561865259520 0.00000000000000 0.00000000000000
0.00000000000000 9.24561865259520 0.00000000000000
0.00000000000000 0.00000000000000 13.53189745952698
PRIMCOORD
 96 1
Ni 1.4300475582759962 8.260294491575172 6.464444035293773 -0.9719376730006746 -1.5332655431583013 0.8704222926629913
Ni 0.9862856046410826 4.141445391657991 11.360082269084831 0.10759398243159535 2.1349648751544392 0.8585797915021085
Ni 5.33973302969384 5.418690612126953 2.0093918851650545 -0.2323793890408127 0.1383124945613747 0.6455595237141979
Ni 1.8117714114277488 2.7612409629952177 5.6800411345424155 0.804637275847382 0.12781339480226375 0.12031837197679922
Ni 6.29239231966171 7.184659229248655 10.300534383038597 -0.3962319368548208 -0.46653181082164813 1.0638394415079937
Ni 6.373217517042305 2.180643854792379 9.581679219572697 -0.3242189368516287 0.9350107180673382 -0.10996016867092676
Ni 8.74215763926241 5.287560004205543 13.096197708464343 0.671110889820741 -0.49475686710561245 -0.0867860445473086
Ni 2.2217128923998604 1.8805125853610274 1.257248796664941 1.0395833971741064 0.5113394540546419 0.3098091891842019
Ni 0.814674905013945 7.763564389256498 0.4415799876566682 0.6489461807982436 -0.22606990188301712 -0.9774735152172392
Ni 4.559421315151693 4.4622128816971545 13.416226473581213 0.6841193862652669 1.1351402459355093 1.2373043156007852
Ni 1.270052129235594 1.9109121791596315 10.837249936470469 1.279272946723087 -0.48721916396767057 -1.519770336885344
Ni 8.205236833098686 7.3437855701451795 11.736552761775402 1.2058129298607234 0.0358630324451963 -0.10312591935791271
Ni 2.0743284870642316 5.374283906222241 13.614848247807686 -0.19928697736221807 0.31612356143800396 -0.6091357336695251
Ni 0.7663841147555847 3.7255312411013617 1.327740166190092 -0.7037312469589234 -0.4833722794177547 0.5155033556243445
Ni 9.05046203549363 3.803037261421829 4.994785473455928 0.5765174334138715 0.69285110971131 -0.554690053126135
Ni 0.4664155682107467 3.4159232126543264 9.199903590957053 1.2029829166110957 1.5072467504970364 1.1760056166913038
Ni 3.8906857252937166 1.4104653381830996 9.431894651660999 -0.06420790213647651 1.619497514974353 1.3243991496377645
Ni 0.7415060043561675 7.737769113496734 9.901817082988478 0.12059450845632134 0.3609070363012817 0.471904130877155
Ni 8.223857508862187 2.665003319488627 11.165452752949061 -1.172400930059181 0.8613730379765293 0.8921733111868376
Ni 3.3142121629650187 3.4216739873936 7.801815362329365 -0.7791193340819356 -0.18974329953784097 -0.5036942788045583
Ni 5.188964727968221 5.919331611093075 5.6498246039911395 0.2720872491533959 0.1437390648935847 -0.37851317941881907
Ni 7.4319702798930765 5.173274913285669 3.622610864505467 0.43567908710684966 0.24485720979284925 0.07330137979731247
Ni 4.751203180773482 2.9958577793678987 1.885439575487328 -0.6769251825096728 -0.616677293462209 -0.7293648883666277
Ni 6.638927348604981 7.341150568857892 13.458581576729259 -0.6655259395337958 0.25858587223285145 0.8667111623599912
P 1.0535197427504037 6.414240326557027 11.77189783693741 -0.0901701305281931 -0.27307763809112323 -0.009655006591260791
P 0.8114028806084322 2.6341599359995334 3.4859523012518827 0.5532255527654666 -0.83597285273587 -0.30081547032602385
P 0.37355072635188474 2.7227237161080575 12.974152769893873 0.831600177589471 -0.8077035734775315 -0.8077655370637185
P 4.8279140778984875 6.697710991357877 12.162455878615491 0.24824129577373374 0.6592935854708387 -0.5581646419382968
P 4.895388602090158 1.7439732905867624 7.632422686592824 1.068547131396308 0.08706732323315328 0.7908978147741025
P 7.053963165399182 4.306220805489719 5.522353411892565 -0.8764227332208003 0.786291940570975 2.4848099972146045
P 0.4249683848044931 2.4476295817152156 7.38746834411728 -0.14692517593105017 -0.6665592658943166 -0.222434619123275
P 2.887397428135714 3.584211961535771 9.951425373890482 -0.2997345785570193 -0.5914869102395104 1.3716547401906185
Ni 8.16296586507946 6.11638347928944 6.231546903971743 0.31311639918056394 0.26634443313234774 -0.5308297015687696
Ni 5.03103107186489 3.602638479309681 11.22653578103581 0.6715680319628176 -0.851802620679275 -0.9199952184951123
Ni 5.466527442514416 3.6086851138426157 4.294523248897872 -1.2764797002486663 0.7939746539272133 -0.46165288546279204
Ni 6.54528772391147 0.34564005306744866 1.903612763312917 1.1018426602246443 -0.2915692691374075 -1.3105810128077495
Ni 7.04419979220839 2.8773659320069167 2.561655795315636 1.1122276030033942 0.7942173660656386 0.1156962998237556
Ni 3.509331696884039 6.378376572194258 7.392110569192181 -2.490605520850459 -0.6235282549457714 -0.8832664956155111
Ni 6.592921150690792 5.3308387446469245 12.104052230785076 -0.4387356145449863 0.0350302521312558 0.04055786681770435
Ni 3.2154504655937637 3.0514331924832905 3.800852521758018 -0.9300942546023272 0.39977851655549856 -1.087798266316436
Ni 4.877923628645643 9.045977910495965 4.917775942851697 0.31110682494970293 -0.7339928740569424 0.26436468369815763
Ni 7.64910363158414 2.5439134533145653 13.955039857862507 -0.689012195581194 0.9874141713697189 -1.9513855383354652
Ni 7.045808529836418 7.09682585300573 2.3856460303815106 0.21103331926486885 1.3636611804621805 -0.8843777264018189
Ni 2.124384265904147 0.9756808801620682 12.7280621408983 0.370753075857426 -1.431398178797838 0.06364251655130976
Ni 6.621702761242816 7.4818966200732655 4.683592745989099 1.017884572044434 -1.1512217248784045 -1.319633609928321
Ni 4.376727892566409 0.33194821655395945 0.12894494369574525 1.0722783163039662 1.288793741729329 0.7761581945710826
Ni 4.419239246667985 8.850303639463831 2.72491770139042 -0.8202487571323939 -0.32609172839430933 -1.7304511579068005
Ni 1.9754928247445611 5.199948522807863 4.261437802909945 -1.3812997194795502 -0.5669863539949849 -0.4811392763221778
Ni 3.7902690622016735 8.879658478366073 7.573884052731554 0.9998482833680135 -0.10551370286379894 -1.0145961311011493
Ni 0.03685488467153139 5.85408528097241 1.8846278101784724 0.2963597485475154 1.0905758290615735 1.4036786013953826
Ni 7.224433880258872 2.2462230271809123 4.937423806836311 -0.6371802985115671 -1.2117575774799323 0.9361155210957426
Ni 4.21762928852554 1.8131212717363243 5.685223303740748 -0.8062462722057147 1.189187148378584 -0.11467505764809284
Ni 5.818804000578409 9.132017636739825 9.128157590994412 0.773549553303642 0.4738216596148421 -0.23953734024183262
Ni 2.7775964622135056 7.838722022464787 12.230196676621455 -0.5003991529930543 -0.12289178913093031 -0.1054000601040701
Ni 8.663283267396265 5.719922110165979 9.513343003731991 0.9219307449549282 -0.07005896160061482 0.4663132670529388
Ni 6.118177129288506 8.26817175858138 6.847356874991298 -0.8089988952501874 -1.676052785661578 1.886628705674054
P 2.4497745652192533 0.11867306148459897 10.264661383057277 -1.0115745706660062 0.4165102274878827 1.7815124953589896
P 5.415916926561388 2.28776359133454 13.018565023169717 -0.39379967326424437 0.1490111119258014 0.3624219302839113
P -0.031296418798137014 6.54895823447657 4.104535957837005 -0.02048629287880988 -1.5364884209709733 0.930943747086816
P 7.026744064382427 4.489746333744673 10.233348322145744 -0.5600839704481967 -1.2562895984540363 -1.2556871889833472
P 0.8424653852572064 6.771731413484284 7.9320463715656775 -0.5484702974686684 -0.7380876129516063 -0.7721372463371476
P 5.639882790362296 1.4787257399516802 3.4145308225004123 -1.3064201965618405 0.5313449506422913 1.382221459962871
P 4.994612580389007 7.114854809181909 8.477652511797045 2.055993184445227 1.5745474326262239 1.0834163351986568
P 7.46359029534053 5.05333150381204 1.3015491779563069 -1.7817570072696283 -1.026040368382349 -0.12771260755834135
Ni 8.650505822557557 1.4516268319761 9.18994421065296 -0.26090449306369906 -1.02747812927014 -1.3870211953443596
Ni 1.8695102992842823 0.6301822850584634 8.157461023793665 -2.074515154508814 1.4039169426584337 0.5701161578732181
Ni 9.069794623885626 1.4094113376681845 1.7965355566160943 1.0981816664332893 -0.3583009661370023 -0.7142786834574667
Ni 4.927350705424031 9.128929600143495 11.531693893273824 -0.2956845768573617 -0.6839522645597833 -1.6943366715724304
Ni 3.241495373054429 5.335036255469482 11.447660466255723 -0.4784920685073178 1.3277379842030101 -0.18911209371174528
Ni 8.566056342704622 8.284407064758494 7.510243686553351 -0.7613090453733922 0.37907959344525033 0.6791489296338691
Ni 6.882872994096516 0.5388596123740562 12.760890558690486 -1.5871725775894021 0.28563567726179195 -0.2592466457453019
Ni 5.522629855887265 4.090159945550675 7.089780691669192 -0.9253415704086901 -1.3881550518384866 -0.4178199474382417
Ni 6.999774595066573 1.4307132428117317 7.2683339262669415 0.22798511662785897 -0.4533880743508385 0.19325259824268007
Ni 3.0107247339993326 3.196256561480046 12.43053628677487 -1.0276809893095655 -1.5884725273477482 -0.06047363190502489
Ni 2.1480807862526334 0.7848318974521645 3.312703278017351 -0.6268958858664235 -0.7608053662640962 1.141767264333724
Ni 9.07927138290131 0.46458863398489386 12.052590193363418 0.9134347916687754 -0.13693541170818999 1.077486342867467
Ni 2.282595290564035 6.545916425973 2.18216753272973 1.3321170871073122 0.768425087592883 0.9815739105388579
Ni 6.708315715836892 5.802651904968263 8.28064132432231 -0.3514412629026915 0.4083048088589549 -0.35931783743729084
Ni 2.0897779156644347 5.50099510847585 9.11428731404287 -1.151864757779042 -0.8914207492915294 0.7174393405736353
Ni 3.1983922993655325 7.49612562702462 9.859449035974453 1.770845759673763 -0.5761219977476659 -0.6639421399864437
Ni 4.1205502937307275 7.126596744742806 0.6107054650170586 0.3741140219098589 -0.32967430353924515 0.6809355892206467
Ni 3.0014976066845493 7.194320900635376 5.1466133230675934 0.9938884662401528 -0.3430977760340026 -0.9552267880038967
Ni 0.2208315991118176 0.9319583500301953 5.981991941704778 -0.8537188638653813 -0.2762933168149435 -0.2829262487504288
Ni 9.664445072287332 8.08133629888485 2.8634716164471414 0.06994583306151825 1.6349105070953134 -0.8907741168464659
Ni 8.444994213386217 0.7296577441819245 3.813599456055505 0.1528166017148207 -1.0527163350116386 0.07926839601402477
Ni 0.5966807862357014 4.565893248138014 7.189970837106714 1.4311932618758836 1.8733445869706384 -0.7454342831246646
Ni 7.712454609901668 3.692228523077465 7.831599197932414 0.39868425505005534 -0.2841395523322397 0.11765008111601674
Ni 4.47086678066172 5.153785149378291 9.366400538963143 1.1747956555436025 -0.29408920734578387 -0.26989409815681903
P 2.798889121738501 4.391668812146258 1.9139382701116643 1.4294971051203835 -0.3384340520097462 0.49963964911921055
P 7.352402486635539 9.232314106790694 5.575628515112247 2.0564271866588517 1.7483318948419633 -0.48477250219939094
P 3.2868913601441934 4.787150145703218 5.910597275247108 0.19980762575237848 -1.3467474354259772 -0.3364733287389496
P 2.692222420505382 8.842842425292458 1.1318495476838444 -1.3813105181128276 -0.13505670662823838 0.9123839818067577
P 2.739772636717736 0.12401055707460325 5.427846548178887 0.8881276803625543 1.8332338349926816 -1.1848990625261915
P 8.267376635385919 8.89459015232737 0.5889163157758268 -0.3947244990713589 -0.33882408835931327 0.6535919071003712
P 4.602062107912995 6.857752648491039 3.692935812896684 0.7418429662289805 -0.10691084032164168 -0.8451138958051897
P 8.171074272549463 9.015661527264328 10.278166458076017 -2.0615835340488107 -1.47018764086121 -0.46785155807433615
