# total energy = -340886.07671642967 ev
CRYSTAL
PRIMVEC
9.13815884808153 0.00000000000000 0.00000000000000
0.00000000000000 9.13815884808153 0.00000000000000
0.00000000000000 0.00000000000000 13.37461917342376
PRIMCOORD
 96 1
Ni 6.450169576286978 2.337294358625273 11.61734161979689 0.2708970855000367 -0.3874652464057843 1.307706776583748
Ni 4.766701360629413 0.33079039237528807 5.973720583673418 -0.561176175071111 -0.27598067067053117 1.1216782068933326
Ni 3.2300650848341124 2.0731741471590657 5.096398829180483 -0.9848314982442072 -0.4067426065781576 0.8040628914011507
Ni 4.008572270089643 4.595159838654405 5.304654732832403 -0.9432899273569948 0.5800017924180463 -1.02328286024187
Ni 3.9128591920390234 2.8534632734323426 3.0490920688877425 -0.2929779765594761 0.5053192160024911 -1.362654850684853
Ni 5.471244286409889 4.74766657529626 2.7460369030917398 -0.2570164708632025 -0.41845218170560194 0.6357985876726922
Ni 4.958017858821868 2.7715762300476183 0.6573342822329015 2.210232377539187 0.2398394448632837 0.010672649222497749
Ni 5.920951370334569 8.205481998516431 12.519393060352511 -1.011780001808593 0.4265393295891105 0.014336985447962405
Ni 2.5423729243701656 5.831890872083534 11.735720073777332 -2.4611368219673806 -0.7116695279693936 -0.25817809527147145
Ni 0.8828028223003401 7.984886838678552 11.826360559730766 -0.13579667011805643 -1.0216499526241374 1.1973100345960346
Ni 0.5803681375048756 0.5512512212749072 5.431165234565111 -0.04047507729591094 -0.09431217772102467 0.028752389542344034
Ni 9.125164603172767 2.7240121121124004 1.5603497985699195 -0.014286591826001203 0.014165749977420764 -0.503851630318029
Ni 1.5658052795319417 1.3170645897727415 2.830109794124899 -0.04947111014693416 0.6784357056169283 0.3384281384724752
Ni 1.838890025041271 6.692513554700423 0.9525982536097751 0.06200935182326095 1.0195647879603342 -1.3443156860560332
Ni 7.9357783718612875 3.9758942132719026 3.6214588343149856 -0.3789834341870183 0.18984922898808596 0.3017626647306416
Ni 8.228418777770495 4.24202481973249 12.70991453870628 -1.5471885809972967 -0.8757375342283175 -0.6093684185056214
Ni 7.884531575822727 0.06377064303764068 7.24309220746812 0.5447969623821391 0.4394750638141722 0.34515825810745715
Ni 7.275226543821471 0.9693759136537827 0.513747302654748 -1.6050877673069261 -1.0593739495374723 -0.5922389579141865
Ni 1.7599271925574633 7.001858515381116 9.567561159845155 0.6804871888293184 -0.7719459562619478 -0.32859109777739537
Ni 9.036341697057432 5.197337106584678 1.3412203994461238 0.04677890802675169 0.48975761411880814 1.1395861975220052
Ni 6.429946830275328 2.283982338637941 7.1654388731783785 -0.32085567680635063 -0.1960461018274172 -0.046352619122610496
Ni 3.7757045626269794 4.749055575474196 0.9264475838124236 -0.3462270656916037 1.2125901006835569 -0.50795253986028
Ni 6.4946724109353 6.0359825166493675 4.979330787210015 -0.578469672044236 -0.4713050638405754 0.6960996985555946
Ni 5.383344334360157 3.184456532938882 9.730436965578479 0.04918391792381852 -0.2141703222319537 -1.252130067759708
P 0.4389606088638114 6.020995935782172 12.605151027917325 -0.27826458160870143 -0.44841298973375027 0.824128294692458
P 4.340991082410379 6.324017290389632 12.517359819960468 1.2748231384818496 1.7698728542375324 2.3125563698210945
P 2.650294582932111 8.926181189524472 1.3813040203704354 -1.2636354972961463 -0.384235426614577 1.0801505199631913
P 6.527752546751915 8.067861322992055 5.976703278792353 0.16896261534706386 -1.015127063903955 0.6737516698776977
P 4.899113285486534 1.0745195718598577 12.671462079175138 0.040722931640658905 0.7606421012133545 0.6991310291827508
P 3.964480652599263 6.5524986815009205 8.382408637628659 -0.922301755141102 -0.16342574468923465 -0.16885385768334146
P 4.941422961959167 1.0629506624831073 3.928072399251041 0.7953900462175012 1.626154615279554 0.197365334859473
P 0.31044062595262956 6.056333196887932 3.537814522941992 -1.7518764176601118 -0.45055703265994657 0.31801743602660715
Ni 0.9482941806899887 8.092424694559753 2.9694594093444437 2.504089671379823 -1.051985113272569 -1.2682408572786414
Ni 1.9721883513277316 7.301389093225608 4.957931046310747 -0.9056816300859176 -0.5110509762799457 0.35047709921720926
Ni 5.80627661222332 5.876083009323633 9.51815478904236 0.638021820576256 0.9422182915593708 -0.35759905497397126
Ni 8.637771751262528 2.6153319863480293 10.509910054247218 0.46914045208908883 0.7795109130933995 -1.0787886066186583
Ni 2.10166692712487 5.726756352036524 6.8082830642677035 1.1202784983323286 -0.11853865436855712 1.4519819164864607
Ni 0.6863086431814504 0.3709882402879165 9.041777987885416 -0.13320962611717058 1.0215723053086663 -0.021604465643653117
Ni 1.6752895632940643 1.5867042493144285 11.772874914721195 -1.529994071495881 -1.3199403425354623 -0.980834461269672
Ni 4.359578097949329 7.34667780955355 1.160190726913549 -0.6772915647101562 -0.017598944028685816 0.34303761222002854
Ni 5.522701260106953 8.219965980635035 8.197906464651245 0.23021940527501641 0.34817879010133584 0.14008989817677164
Ni 6.928561341517834 0.82648526179641 4.884344192805092 0.3602066678001474 0.11952415821027804 0.33630697836441437
Ni 0.8616909334116303 7.671064180055832 7.124619630449305 -0.5775731283718957 2.2944948843336936 0.03794536889552175
Ni 5.363350042325141 5.112014115391377 7.193699543903922 0.8815963070019398 1.1956534728292183 0.4385083290255286
Ni 8.5771766185001 7.672087653871152 9.77917442313769 0.2678510995848613 -1.2227328455445134 -1.067405304482381
Ni 4.7065814121383855 0.5784116576489813 10.58569006592856 0.618063118066142 -0.3515577338758978 -0.34782012121033645
Ni 8.407225136202467 7.725838305493621 4.650127693064381 -0.20875789296713082 -0.37189464566103697 1.2206196558562525
Ni 7.4783495435263765 6.722907071751823 7.740333253403101 -1.0534627262593599 0.2491805197585515 -1.0173143013632608
Ni 2.386558174146649 5.876750094935405 3.112608671103366 1.2186373353189013 -0.9867554547397972 -1.3842220353326675
Ni 3.6093261005239023 4.682858751204701 9.710361343927781 -0.5292898678854755 1.1403714124274618 -0.24481015860499775
Ni 1.201859818435701 4.10838838156061 4.239995234604073 0.34318467932085417 -1.1352703437554705 -0.17859705311303434
Ni 0.47120186167822764 0.37033394809883646 0.5036797928124368 1.1019259639670702 -0.07766582741359529 0.17724079619545605
Ni 1.3288619531261259 3.3826906175438167 8.806251076134732 -1.4311253847524255 0.8969349942415391 -2.0773253702641
Ni 5.63456146522607 3.0357604086272834 4.819022804174059 0.8821956311488355 -0.14476647771683457 -0.22275369302559056
Ni 4.190576984194492 6.969463741494402 5.961094389292805 0.5744435816039783 0.6946629661090682 0.5352121469071814
Ni 8.050361748381883 7.4583278370141635 0.3283788321979385 1.7243635569518239 1.153034866827743 0.47185759390993576
P 0.25033529851610625 5.9650429878249485 8.148459885948563 0.4529288753262329 -1.1692207325589865 1.6511130849971047
P 8.636300507653004 2.184422095620804 8.125121027695624 -0.06360986354116141 -1.7510017283646424 1.2065492938061155
P 1.906603783715616 3.7847422019426245 10.686962799954546 0.1489805157981821 0.211781510284803 1.3639483726852961
P 4.3451489447851195 6.347091142029675 3.800892984274748 0.5150495559163775 0.5444151535626881 0.5172470777883286
P 6.829595078839945 4.462556012456913 10.68904904166917 2.2881866827274786 -0.7756779125005544 0.08964665392455529
P 6.637629771353849 8.2784136460171 10.226608846902813 -1.6837439836582486 -0.6392238113041573 0.2010227291064022
P 2.508488630555797 8.970419017559898 6.183046565751892 0.9414585305752109 0.3181896999384133 -0.010840542258929718
P 6.883007618576995 3.8067743034492163 1.3298835993096336 1.1406462633554033 0.4594137117196282 0.053076310999689236
Ni 2.8067490042902032 1.8776906484328053 0.4717117709540749 -0.7261939468378138 -1.1868376743098012 1.627285386449888
Ni 2.011701751126364 1.6804526231659949 7.289863133196465 -0.31037328921778806 0.09662797033839488 -0.3497404781615009
Ni 6.90347709488341 1.1922556132580038 9.307036813971168 -0.21000410666940608 -0.46223446899787496 0.07441775278994281
Ni 3.179412269134801 2.092053583788107 9.57598654250342 -0.9405118503912254 -0.34842021668818063 0.30068485828543057
Ni 6.786316757506382 1.9207679302669298 2.519310038521001 -0.4907778278532064 1.224097587102524 1.5717359313193577
Ni 4.195730905907357 7.30093218527234 10.639550375459814 -0.1945422635883811 0.5530831136503314 -0.9333927228479408
Ni 7.306223179371186 6.480818961792207 11.681834177400695 0.04756977935916323 -0.703632259487214 -1.023273090049857
Ni 7.728068016305571 4.269421020610451 8.388079779144624 0.08314536247092777 0.03762012434561909 0.44397706544958376
Ni 3.1880204149743734 8.703667016282866 12.57595369588758 0.6012180214843452 -0.2774785953722963 0.3965417547857558
Ni 0.000610429025566296 5.2721146622165485 10.469758810945823 0.3835831377425587 -0.5069061008736366 -0.45155127825241587
Ni 8.939184789874485 3.276441242090833 6.325312167529194 1.0792406065544122 -1.7053636188105536 -0.7190069421710714
Ni 3.581929899645942 2.963294807238949 11.91907266634432 1.7589533791115513 0.42027098008189556 -0.7681713197108642
Ni 1.4695530500964658 3.5906568415533644 12.764268308827065 -1.1278575962311672 1.9705957927153286 1.7881492839492172
Ni 3.112502668458208 8.780199098455286 8.626736510375196 0.11587216327998753 0.08854930709531847 -0.9887907400022713
Ni 5.847645058312222 8.06331965793657 3.60840588790602 -1.46882418485478 0.5963038720121795 1.7080987583535292
Ni 3.3184402211552446 8.815518083242917 3.699674165387247 -0.012532328139055837 -0.4976357313153042 -0.18081025871426926
Ni 3.9367189253586883 3.4663596019462872 7.57856773399622 -0.9339429389244561 -1.7796898403279544 -0.13323893669320924
Ni 5.365305608365128 4.577605435089841 12.277378969481326 0.6027784239929296 -1.2632436611743665 -0.4650847939624765
Ni 8.23696295649661 9.102063337055528 2.7679447256350427 -1.9677943187107918 1.3569822257801083 -1.1915250524831416
Ni 4.721896966731935 0.7150591192328976 1.840762433833764 -0.11183090333107837 -1.4028039120999132 -0.9481989346228379
Ni 6.347319596006309 5.904466131380652 0.6040377971159807 -0.8148322141025128 -0.6983987790024165 0.033086755251639795
Ni 8.17590177762185 0.09346234947282045 11.419290298373262 -0.710882256181408 1.4519034978400416 1.055336289132989
Ni 8.87838861761262 5.575181707619336 5.948629940327649 -0.04017451533635662 0.5074624875977388 -0.6830480075779592
Ni 7.213671904357182 6.397287049775718 2.761029880670282 2.1405253999613527 -0.3397509710489568 -0.29025337853946137
P 8.665862452229456 1.8092732515104273 4.080275749011926 0.5287818179008055 1.4591108142217581 -1.7526431206228072
P 2.216067540464158 3.6787121423072087 1.9070871923301738 -1.6658781591214211 -0.7069929484293308 0.13499191482857395
P 4.636372936039196 1.240696994463497 8.234606225273653 1.27152904111161 0.9637047435679209 -0.20588159986060028
P 8.543813199752458 1.9530713225629905 12.535509117680188 1.4857330447949768 0.4872924404077672 0.8624166487496953
P 6.3894647856157665 8.09024067454313 1.6228767381587643 0.9920413857290851 0.6627635462973102 -2.1591694974251006
P 2.1883423658598447 3.755792514023552 6.203763686168978 -0.5611882592559689 -1.9330435454931676 -0.1345391435618715
P 6.986177434424952 4.169705428889201 6.18462472582248 0.029717067448458496 0.6930112894382582 -1.1991820548077672
P 2.217474816960224 9.02765130778627 10.623165656255617 1.1405683589296163 -0.06680111678494946 -1.7956291372660302
