# total energy = -340885.49085098127 ev
CRYSTAL
PRIMVEC
9.14216585165478 0.00000000000000 0.00000000000000
0.00000000000000 9.14216585165478 0.00000000000000
0.00000000000000 0.00000000000000 13.38048382818487
PRIMCOORD
 96 1
Ni 5.66555568403829 3.2723286119846597 9.192405854195309 -0.7816199890166022 -0.8584612636463732 0.9839832913112988
Ni 4.401404396722043 0.46916133140732075 6.222433355519616 1.5610008042900407 0.10948528591703724 0.20949245714031015
Ni 2.8506004946267587 1.9062970268180672 4.932046794446985 0.37018974715478825 0.5391929859318004 2.139481017857238
Ni 3.72459156376648 2.540543934900047 2.751656660494067 1.243164116815672 1.9189541572796371 -0.09099879707707555
Ni 5.405552483135219 2.916405805460103 0.5037644296990973 -0.6360479846793369 0.2977975094353065 0.4402674778084804
Ni 4.581276512677315 4.808486764155657 2.1130324833335923 0.8578866220898257 0.1899937249857502 0.4181148529708413
Ni 4.274447137546904 4.895602463923779 10.41338874789889 -0.7793126810396643 -0.4962758748533001 0.9102777340970323
Ni 5.343221195380044 7.9296953722399035 13.081269341862876 0.28467639867231614 0.546874156626142 -0.14486957895360209
Ni 2.3035149971428766 5.813046248038616 11.755852743346495 -0.948551175755934 -1.117375465752921 -1.3695410362817253
Ni 0.4071582474113741 7.569914571665379 11.968682367714411 1.2909400986483701 -1.819016662952035 -0.21151462977666152
Ni 8.02128159117967 0.004774953299285317 7.396116510797308 -0.8182134718699199 0.18790238967436024 0.4768977274370045
Ni 8.991713369402602 2.4327029448208406 1.3418085021457495 0.0974761772713031 -0.2361280574499675 1.36159247085861
Ni 1.7329889860473382 1.4274303719902577 3.1188033042109122 -2.5360253437461546 -0.19307853455866103 -2.493247072238364
Ni 1.8086495518234924 6.855774274951473 0.476668878122567 0.06535924213210034 -0.11880244955290509 1.927955332336983
Ni 7.887120305200325 4.009269470690557 3.9721568478331024 0.6818275049072967 0.12641034380715005 -0.40541977400167595
Ni 7.647796683778362 3.9893669753190384 13.097258990188456 -0.26645704745081206 0.3384664479095784 0.4404749658335963
Ni 6.754003683093069 1.0165448635026466 9.633854537821424 1.020747752524842 0.011457092797006074 -0.22107167733747732
Ni 6.763319550242163 0.7426812247342742 0.40231107100072677 -0.2792616554146481 0.3849427370942467 -0.17791493944434522
Ni 2.1343117889039855 6.678864220778641 9.315346045632163 -1.187883599075812 -0.1994265882638759 2.1976612257423955
Ni 0.0658601638293154 4.816806135211276 2.035158599170004 0.22832038848009062 0.2687260459906469 -1.114750626535564
Ni 6.447210876626639 1.8017472164971273 7.229462138437874 0.8013511488969425 0.9202003925273828 -0.37703762331455715
Ni 3.148589395239826 4.361910239622842 0.3529561736591191 -0.6090724845317574 0.06686385170208484 0.25760011128081445
Ni 6.11016664288214 5.859397029634206 5.252950534126985 0.18623425794331797 0.6027084899869427 -0.35913297511999437
Ni 6.320317612613466 2.424822397732991 11.57524285459541 0.1484002178146799 -0.3776390043439819 0.27421483701936
P 0.11149237117768364 5.5454184806955595 13.019558807178777 0.07430153892705268 1.206634397320754 -0.00016686459516745454
P 3.838082412430711 6.284882577216128 13.035735869907256 1.61395755899273 0.996052049550375 1.0507548404098936
P 2.4469281551093487 8.891615793921316 1.8983561414346493 -0.20189638996060713 -0.433718363836053 -1.848774868051074
P 6.421119134876379 8.174230028279121 6.2886802329705285 -1.3928691694847044 -1.4007251751940135 0.4284270335301267
P 4.607176268941675 1.1768893128922029 12.645627762076902 0.3575651164122423 -0.2197197912952732 1.5311870633627178
P 4.083412436911511 5.81106239801766 8.483681376616952 0.13182020196881167 0.9007859925565131 0.06982524832325394
P 5.025220093403517 1.5494508615279967 4.294359689301017 0.04068899307892993 -0.44160290879045233 -0.028721022083776342
P 0.2006997985255034 5.868868313605217 3.9742979431091747 0.5039544744444805 0.501280270046427 -0.3233401337911012
Ni 0.8028677603469776 0.12777274038190972 4.754647634393411 -0.1663341765852813 -0.6497234252839004 1.711149629364711
Ni 2.2009856055068724 6.713458176904423 4.92603856295495 -1.1995792902461857 0.5920746644221804 -0.582648486012274
Ni 8.17632358429202 7.51224578856775 9.674063612301449 0.4171748576550751 0.1542512772788182 -0.30412062343985685
Ni 8.8189264320936 2.533394761091812 10.587535125291378 -0.45694416713321306 0.07704387755888022 0.08361536012881082
Ni 3.5026289155693746 4.692737800490615 4.953388266746146 -0.20787420481059685 -1.0252158155985247 1.2603743100463713
Ni 1.4703436991716579 1.4201166391941094 7.1680587805312115 0.8026433853458047 0.13703157096642204 -0.2132375260050392
Ni 1.647710861644249 1.230160714146148 11.534700091056562 -0.5556215638014689 0.49728837527821457 0.5440760250557145
Ni 4.388733354652716 7.315094978881577 2.0575303935768217 -0.8181733626606038 -0.33803193147532107 -1.6161540524234166
Ni 5.67387505509391 8.301680964418 8.620189456607262 0.20356195058848814 -0.20441349995550603 -0.888645243428921
Ni 7.2640908347944375 0.5270513549220336 5.04809562115667 -0.7403617536977636 1.5745132369541786 -0.40796413769008455
Ni 0.7016740391628702 7.995976075704998 7.06977958186637 1.7386933433109346 -1.5812032473798445 -0.07614604833495918
Ni 5.69044980204318 4.804820755591588 7.4001171226368 -0.7333372427508145 0.275446652543932 -0.5691674208067037
Ni 0.5664028942317094 0.35774301177419815 9.151622651690786 0.6613466113451255 -0.5824962767051258 1.1071563591280738
Ni 4.4422150257245505 0.5495026861730098 10.58667941855423 0.11862247233161508 0.5850763787274763 -0.2039105921771585
Ni 8.17371806698339 7.52735778895779 4.996594143239393 0.5762227849915883 -1.184669977234521 0.1833764767795487
Ni 7.291361915958075 6.527808212040194 7.517222783735527 0.5938924343572095 1.0346833887693276 -1.0998261440152477
Ni 2.402744066854618 5.424568188405204 2.8582853993623116 -0.6549890445582139 0.27175763372811906 -0.7910585087216828
Ni 3.149028219207595 3.6913140795440054 8.336764026424524 0.5891973428743853 1.5427868523851753 -0.7280150592069526
Ni 1.2056322827810655 3.6930053802531146 4.304434356227712 -0.467685207699801 -0.14690203600259863 -0.8379137785123246
Ni 0.7418986553250863 0.21880860092876658 0.2570795362178116 -0.18372229015474165 -0.24162661867069354 0.6447437126811218
Ni 2.317895624253303 5.976883004838332 7.199918314807833 -1.6250667815320143 -2.039377173155101 -0.9165098310496732
Ni 5.495511396527842 3.7190239846754123 4.173466428830484 0.07237372577672052 -0.43310181329797665 0.1153422589184465
Ni 4.157573687464454 7.117185369417804 6.465289509882118 2.4220172302581 -0.2136267910236579 -0.14699305305450813
Ni 0.7436338384309725 7.785249149515974 2.838200974887489 1.0833883101741986 -1.1095533986053407 0.24317288011189087
P 0.11087344653980957 5.899430574527122 8.19701870545532 0.916285373743693 0.5336211482709777 0.9516061605321741
P 8.53071964909538 1.9840054377771428 8.2669315914703 -0.5503340901502844 0.15413403497466358 1.4052624009427346
P 1.9139033089260615 3.516945547517835 10.735885052895252 -0.7991016907411335 0.6622153871033241 -0.9972949208185405
P 4.264582740438099 6.372784503259836 3.9413422631297306 0.21698670863482628 -0.056353181978748106 0.4338587460686593
P 6.151498375346374 4.5710281445967125 11.576848218944166 -0.8517126320686299 -0.8013732603841295 -0.9607019521858552
P 6.273683423872026 8.288013426255198 10.94342959110135 0.32300357638728894 1.3762678134825976 -1.2684046365500157
P 2.6118254031645076 8.54406721144835 6.026034946094848 -2.2342899327090233 0.8945626373546207 0.7826916248142263
P 6.715725434071229 4.162556167931831 1.97343435123691 0.340225082471898 1.4948082676233676 -0.3737900629115369
Ni 2.5220676174237777 1.902347611108147 0.44895897299116017 0.6943955713802945 -0.6495714730870684 0.6044172451479333
Ni 0.8138676144723846 3.685069980169294 8.669001309288754 0.4118907264380003 0.23566525888093606 -0.42057668424777245
Ni 8.330049105501061 0.10095511065163297 11.463636206342787 -1.6736477757645114 1.571664968872106 -0.24463120982497222
Ni 2.6722825468906684 1.8241912340153075 9.477690800941467 0.11425185406774518 -0.9505895463422015 -0.28130773931039943
Ni 6.7477595837183575 2.2174049356342254 2.6837504799150294 -0.3412357831245994 -1.8388398683255494 0.3783108336000259
Ni 4.276065300928051 7.350511729946925 10.760879734726087 -0.8660874127330631 -0.7519083208847824 0.08403265017188753
Ni 6.969932501733353 6.499302938467205 11.72502353117753 2.0518107709327627 -0.2764432121292465 1.8102083206317856
Ni 7.659580935746156 4.356927759155466 8.594886683782386 0.8338149258526026 -0.4985227619059479 -0.02668496549035404
Ni 3.0742453013669784 8.58643200867004 12.737845704686936 -0.4215058809302612 0.7934331796014464 0.016726311615745386
Ni 0.07761150399952665 5.296733281294527 10.744247392131046 -0.14692234771757276 -0.49930797681140465 -0.5223918552140616
Ni 8.72728536015786 2.54957639490329 6.168001813400881 0.31739214373778246 -0.2477736121086959 -0.6140835645931036
Ni 3.6802063478598552 2.991810390588392 11.813803105156776 0.45121060708354555 -0.34630574144833903 -0.06829287083912755
Ni 0.8956863432628954 3.5003799427345585 12.72439849272462 0.651921975597116 0.18808185267501804 -0.170728448998235
Ni 3.290411816323137 8.531615581362908 8.484858887597131 -0.5339489639240418 1.252553528450372 -0.6736606528257881
Ni 5.7352555575855835 8.159511141026874 3.9349729160808846 0.17259969787901888 -0.1441098179694421 0.7236544682454118
Ni 3.3632931636367545 8.763625469988721 3.866999997690082 -0.29926226690629104 -0.013529659055318633 0.8181836470732491
Ni 4.4387958556423515 2.99810020079308 6.492090683713603 0.20842930598311846 -0.6553723960395617 -0.6428989461628992
Ni 6.1954996202812 6.094972362998142 9.6128211565163 -0.7036104051103431 -0.9809421904921298 -0.8138081437133727
Ni 8.289805290790255 0.2679559711022836 2.3664460109873344 -0.22757759677679518 -0.062118366597299475 0.44371121338270686
Ni 4.580234305753865 0.6255005978743863 1.926776392863882 0.7288254709233899 -0.6977089520242435 -0.9455473559326038
Ni 6.300469970237918 6.002837614098664 0.7347366824844581 -0.13460624935438106 -0.5326117331698569 -0.07853151784800023
Ni 8.566026694168785 7.349990626485199 0.91703970037785 -1.2110875479961014 -0.42218696615768586 -0.929118006731987
Ni 9.035742040835414 5.071607443663088 5.9831636728770246 0.11439043652813848 0.34529632634721824 1.0701021345882538
Ni 7.424307293860061 6.351611246814986 2.860359756826619 -0.38459975193253115 0.2582727118678068 0.6612301403719192
P 8.631987421824048 1.7575265595784157 3.976693190599913 1.1218353012964875 1.0572383912517083 -1.013735068652435
P 1.8588948961330312 3.346517289035589 2.040550648673964 -0.46030922695070403 1.1425491368050709 -0.9804331120661953
P 4.635910096664543 1.4148507515808828 8.30969498712938 -0.8202479858014453 -0.08399228385225534 0.8486273082750868
P 8.396722922103947 1.8219879720104677 12.804748989656304 0.2487658008186361 0.2644068497900027 -1.631032769307462
P 6.40853037230101 8.26966509910286 1.8523408773310825 0.7490029743125295 -0.8639102025760863 -0.7767480056362815
P 1.8940190978865332 3.634239537236063 6.340141485357426 0.9300094081980048 -0.475689051840884 0.9828831162685847
P 6.986040998216869 3.7202307505867767 5.896993273072805 -2.1480533329072813 1.0480382128096788 0.8419925765673887
P 2.0502587147442513 8.46486862743206 10.694726107368327 0.618994885851792 -0.618418958743664 -0.8854989844904556
