# total energy = -340860.72199168033 ev
CRYSTAL
PRIMVEC
9.34233252021541 0.00000000000000 0.00000000000000
0.00000000000000 9.34233252021541 0.00000000000000
0.00000000000000 0.00000000000000 13.67344798078044
PRIMCOORD
 96 1
Ni 0.6370396441778623 2.077585285361164 9.901928010155784 -0.25010457423471766 -2.3458578121867015 0.9359165177110591
Ni 4.063456891921737 1.9377118821827548 0.5586864351799329 -1.1797614841893103 1.015807377800431 -0.1336109753206473
Ni 6.010819403645187 8.34197427951319 2.9043359400241107 -1.6149903711326186 -2.1975108162074606 -1.7387033706132635
Ni 8.956363438384743 4.866094051998537 11.715396211543077 0.6206694453407375 0.7478722031421959 -1.9316176116799184
Ni 7.1756494549739065 7.4115433522658405 13.371319987703336 -0.3496769719134171 2.148965046088273 -0.6379673131892367
Ni 7.855388230144751 8.656792202322837 1.5565718062536955 0.954537475246356 1.254537134539304 -0.6350431975639063
Ni 2.1757078043020424 0.6288576293165444 6.092423744376091 0.20991128984528365 -2.1833460946713044 0.2089666665438272
Ni 7.797680641884463 6.333914633108326 1.5330805110164452 1.706726303486035 -1.7409577138650794 0.882278677780945
Ni 1.7047421349839844 1.990075656215281 1.7259445587425604 -0.11153291247468534 -0.48442231794882384 -1.0920187321556871
Ni 0.2097278922410328 0.22505118611581418 7.673251982904193 -0.007941880554895999 0.292659931098425 0.49917479366765005
Ni 1.093744242833895 8.07374656921027 9.472636617948213 -0.1669656395216931 -1.1750393961232926 -0.1140263683205004
Ni 7.853566475294378 7.7721573893141045 7.723884622712237 -1.0058865191422934 -0.5105125872779724 -0.11082868731880913
Ni 6.113230053233868 1.6809285292732066 10.26978515764248 -0.2596395103083464 0.6622868637712078 -0.6026686378879427
Ni 2.162591169379354 4.054170613351116 0.30112486596763544 0.07403414419827894 -2.279031755701088 0.9641917105066685
Ni 5.829279197222341 7.936077956517441 6.4097024375836265 -0.9166697536663052 2.4886077736941403 0.6105701521232064
Ni 1.799155747896154 5.683230512217795 5.120883751138497 -0.35341689857182357 0.036460042599246886 0.7784714160852916
Ni 9.193406442582297 3.813035667489647 0.0024364803332172797 0.08195597014851692 -0.048149306011717075 1.8743691715804105
Ni 3.052298868971434 6.199151485843528 3.223611089701004 1.686511519101057 -0.4430645809376434 -1.1911537851866518
Ni 3.4539911423124745 0.1302152997716606 12.603719377448872 0.4777881004617578 -0.5900717750595386 0.022836795388857443
Ni 1.8516036029217744 7.691860040909186 1.0869813282893552 1.6983604480198429 -1.0255258906397757 0.24193155150562207
Ni 7.637833331679909 4.3259203830314235 3.015446169698266 1.1306652408832916 -0.06140359991846198 0.14390412971653926
Ni 6.9366445609374905 4.720708672606177 13.1588884244177 -0.42571451969497004 -0.3354495154601255 0.37148841136155375
Ni 1.197593611637742 3.187687952518155 11.880681693534308 0.8199625933505427 -0.38585676426808385 -0.6906913830558299
Ni 2.923393364225529 4.3587867089986725 6.915073115042556 -1.1248640608204818 -0.7173979458127386 -0.09778136721654772
P 1.9815367642499415 1.6406537335811064 13.109705714623901 0.027277604769030444 0.7418450231115095 1.5803552975572523
P 3.557065097513342 4.424678180586791 4.420092029530133 -0.8957060069304446 0.07549170258041192 0.32570452025821967
P 2.385517909069656 2.0741005953140395 8.023292367954237 -1.8916690963114389 0.09214088110131874 -0.6551425394169427
P 6.485157655019578 0.7878482476247946 3.531468974748968 0.6264765389408178 2.5915123210698656 1.415580752149607
P 6.081316645188354 6.394350182477891 7.803040338077587 -0.7152729290499359 -0.46882060685582483 0.5605596245330347
P 8.151297271840779 3.53964164727772 9.53687449667215 0.4351651235849086 -1.3935754515231096 0.5649757513228593
P 0.40035164861781714 8.630166554509687 13.646866481338474 -1.5289550887084056 1.075407091740935 -0.4300257454758143
P 3.9811042303522957 8.302867275391842 0.7816047667709254 1.9202091127326606 -2.346165059014475 -3.000819603051406
Ni 3.1223943902142612 7.0869533495921395 11.310443464136494 0.13454171466503279 2.025694533461686 -1.6955525462574026
Ni 8.126857729848078 7.514383749152557 3.5687560924864563 0.505555243272697 0.3238769801311777 1.1966238071622877
Ni 4.424042901972302 1.60344322297066 7.880391114791183 0.3341811902706632 1.4583461681415917 0.11061374309452562
Ni 6.393247787235101 1.0767692245614418 6.330983943382367 -0.7895821812864724 0.17343479218580454 -2.682530658530967
Ni 7.89758754634545 2.683968065223641 11.655808011737248 1.878568297263423 0.006800053640968934 -0.8584674342939602
Ni 2.9025693049358767 6.60416962957807 8.521867432704646 -0.016665119360506783 -0.6242687326562216 -0.7569332849031997
Ni 8.533576178109636 1.6014346214689665 2.448066694065654 -1.0837680621111208 1.499246248790063 -0.08892134572275652
Ni 0.857384163146917 6.574834705320776 2.9500190120386782 -1.3857718963182908 0.020918495320222042 -0.060029859499386946
Ni 0.15307038216116503 7.330405193929982 6.278122223024072 1.5147960235992042 1.8966819761449982 -1.3094551267334222
Ni 3.4831952739138443 9.357373721448464 2.303333409486403 -0.3459828108912816 1.975262087842747 2.3704583843442015
Ni 6.107213591061353 0.1880219167571485 8.420820763670605 0.5288116426974763 -1.8096614469893804 0.23929308544151043
Ni 3.6433882504233406 2.7525407862582068 2.879354542742581 -0.2659860213516645 -0.6617325339296346 -0.15614078099204723
Ni 1.056169381253374 6.827012288275278 12.446720544443696 -1.7214836643008673 0.0801230307048362 0.10734047165989255
Ni 4.627799175237137 7.48923418988484 4.542387833985582 -1.246055322320538 -1.4280243772295989 -0.7862767710623232
Ni 7.092026236175488 6.353664324152886 5.483121485586733 1.5843423072294585 -1.3620971784091704 1.1518786417361129
Ni 3.987494385827451 2.4999708253359323 5.3536610462864065 0.8177748416706045 0.5059959303545415 0.9873300962963448
Ni 8.95353271161724 1.321183329153583 5.641035867183379 0.47706022115679775 -1.6879767907926735 0.15896205249092624
Ni 4.402854491712575 4.687122987031346 1.7901824374664945 -1.4286699812333974 -1.6311240434696874 -1.0940092802231545
Ni 2.9900976187468915 5.863836485384039 13.267729401511568 1.6696872484548662 2.3986780413115274 1.436734760519403
Ni 6.5160153794851325 8.048335424630704 10.35925013699443 -0.29971375262141287 -1.4939993985688271 -0.4355245638068564
Ni 5.8486084833014305 2.4077993722396074 12.516619876702636 -1.6829741953717599 -0.1803160926866701 1.3759878203483336
Ni 0.33544299041564296 3.2973389098454984 8.066390416547788 -0.7523160978461624 -0.6899272511962957 -2.5986777284700535
Ni 8.136386909065417 3.266032753416775 5.694075091860428 -1.2035380177836177 3.1521351947406684 0.7974147899570138
Ni 5.487013501333736 3.8385682623925717 3.6531902257516062 0.6892309964602193 0.9937825367899077 2.0830154786703416
P 6.108287959306445 3.437380475010096 6.502326059576148 -0.8683728663331303 -1.3095209469743512 0.17408039618960341
P 0.6013771580736049 5.738873444980994 0.9204252890691443 0.43963550065143636 -0.5073303328952489 -0.1448371830537699
P 8.351204504088415 8.637350808252954 9.515502976694128 0.3116940649117406 0.8848772917460568 -1.382997161786631
P 9.07940195827919 5.3120409547048 5.9394449170740735 -0.6836509312692806 -1.1894028639338161 -1.3979224156378955
P 2.1213634557655205 9.333149053104783 10.79023716256273 0.7613802649309598 0.8951267373882068 0.25189251937307583
P 9.375217576649558 3.057614656201498 3.9341515353420067 0.5194312299238409 -0.42666891318843936 -0.8245946928059152
P 0.2597682281643906 8.974095185595043 4.669209064336008 0.38415417975468036 -1.217435087480684 -1.1569542564868074
P 4.4810684999552715 3.3457882465328637 9.702159044430125 0.4288983167395904 -1.1587828250551142 1.7163136900641538
Ni 2.025006637679619 3.856206586277212 9.480771921146703 1.5152896754061709 -0.23102287501291824 -0.8141922665256688
Ni 4.811917865448203 4.4658872095354925 8.09926141368132 1.2180498382465474 1.046051007176321 -1.761734284290798
Ni 5.843171245748009 0.3542322896724167 0.6489735397976926 -0.3168545260667575 -1.088651358345351 -0.630197953656463
Ni 1.4541527485657058 4.216848650323173 2.6202701733220226 -0.2845732974355486 0.13998833960190085 0.7204277337779978
Ni 3.4459660786382655 2.287927903085041 11.183978176656833 -0.3124096029215265 -0.5623763660267992 0.7068520519760922
Ni 8.1342194879101 0.6896061468270711 13.1522301439979 -1.0643132958206185 0.31157836526948274 1.1589910844111782
Ni 2.8466367598631317 9.039099135589392 7.973424865183352 0.5480650916104496 -0.7392821474803397 1.4925976331252941
Ni 4.281273375698428 0.09872696785789971 10.280874506398343 0.21677227863117504 -1.1303119713089307 -0.629091865076478
Ni 3.1521684041021576 4.793074380662547 11.183116813594248 1.1052797109306514 -0.8364197104653014 0.8319722162169092
Ni 8.432968598706196 6.236315284791145 9.681758192805713 1.1366057747374425 0.9509770115886074 0.4822607915211307
Ni 5.259107298385747 6.27247011182163 12.366239152087228 -0.04111939574812919 0.025100908832685804 -1.1996307123094112
Ni 6.481542172316529 4.745129529933746 9.77533940388625 -1.0291748002462726 0.42592406460261484 1.396831239456246
Ni 6.208110782774339 2.371934157518667 2.029659119297496 -0.7804313680251398 0.05401630631545536 -0.08270673227161239
Ni 1.5990429843320662 2.6774097477622965 5.868903766567847 -1.3003166547672638 2.402045672232179 -0.4157224414792647
Ni 9.080719227170999 0.17758653128090732 11.202067735204412 1.815028110617932 0.10856405965434851 0.07139105014847706
Ni 4.53708512602111 0.3154466617913398 4.70413070346778 0.4226307385633237 1.3550670110352663 -0.28981063457508793
Ni 0.6235614609848692 9.226609092521922 2.3823798195607306 1.1871971145317488 -0.8502357904127873 1.0129472826438168
Ni 4.5839182391745545 5.8287653689312116 6.133868200105456 -0.1477363589784359 -0.36338172309401934 -0.047434796443195724
Ni 0.877052575898153 5.482734713018501 7.653151954388408 1.333419865079136 0.8977616039078926 1.6430773591768217
Ni 7.609843703312122 1.926585164096628 7.925184796745465 0.8554535871683009 1.106382714186843 1.1312553090588064
Ni 5.58435126433907 6.332485256225724 1.1658950772412457 -0.7367737792361891 2.2636326475371984 -0.13117588351659343
Ni 7.799857405372345 5.095438974161692 7.748921139755907 -0.501830229012626 -1.1948428040024648 -1.1015546966705803
Ni 2.3334811166769405 1.2461643986484654 3.988257654398095 -1.437490407738505 0.8243766632578382 -1.1310797027128907
Ni 2.340553262429415 8.288517452570439 4.089919983148238 -0.4982993330412322 -0.654869488261214 0.8945976043576142
P 7.5606843493497395 6.393098309914045 11.671559184443552 -1.154911772135482 -0.8387298466557168 -0.7786007425743042
P 2.763368549702221 7.510076933839625 6.188930974016305 0.41673339924228225 0.17819827501271893 0.585018014685715
P 7.502799256770697 2.612816860400854 0.3562848001371707 -0.2482443810975273 -0.06894670237304255 -0.012533613690636478
P 4.656424082219413 7.1090199391130735 9.627269972347674 -0.27171366786406104 0.8585085719445408 0.6012673866650419
P 1.3209030591766024 5.803811998647379 10.030554179157964 -0.06462287818670806 0.7325335159025964 0.936314010259794
P 4.527462523478112 4.273201600361388 13.148989288830748 0.376537543749687 -0.3458928222806365 0.16822496585009092
P 6.171404758122456 6.128140416009232 3.6611199976336413 -0.23970291928541942 -0.5469428050805484 -2.391983145789855
P 6.367238733371309 -0.043378318570530955 11.964226436739175 -0.5932391170439266 2.367054500868975 1.9361324688311368
