# total energy = -381164.6461615378 ev
CRYSTAL
PRIMVEC
9.31048926969672 0.00000000000000 0.00000000000000

0.00000000000000 9.31048926969672 0.00000000000000

0.00000000000000 0.00000000000000 13.62684216487834

PRIMCOORD
 96 1
Ni 0.6869446614640716 4.556721065688599 7.612145279344684 0.5231367037998861 0.4958174471596429 -0.04361388003520875
Ni 3.1389663033428508 3.4020993527167827 12.999953209118981 0.38380553816601 0.5803308936226909 1.0693883963506807
Ni 1.4346439899858412 0.33012202008532715 4.541404379695921 1.0779121175509758 2.565589944777149 -0.6397606576442336
Ni 6.609125333043691 8.393843721743702 2.6899521276920892 -0.7664191129064477 -0.25503800698059303 0.16082404540032946
Ni 1.5473009108486457 8.247762144195155 2.3175446582280346 -0.8499696812355942 -0.48264594277469136 1.25343361706248
Ni 4.137534904696363 6.569295059700626 3.3733792862882295 -0.36688202293779393 -0.34455122065107757 -1.1116020536042532
Ni 5.849826996917717 3.783773552208502 4.071073838729838 -0.6425341066243129 1.830953780709253 -0.48738422879062515
Ni 5.383110787908571 2.600428979661335 10.000289516045319 0.8842219175502448 -2.7160784125794257 2.0611508173867663
Ni 4.802787988125216 4.750193033914142 10.701213877234638 -0.7012043667720117 1.387997957435332 0.10654085857673262
Ni 5.296048402207076 3.8248607416107796 8.33970881259786 1.601456598312242 1.6959009307357569 -2.2918535900561046
Ni 2.3347262352330116 4.79799308612155 5.481915562749914 -1.1574566500445227 -0.6240977542959961 -0.6403589533498649
Ni 7.519765673188251 7.151898929369221 8.924628200962204 0.27110045976009445 -0.1437758316687911 1.9205071035890537
Ni 8.168697468825988 2.37312269321964 13.369526565631741 -0.04638270102959754 0.14336085561855955 -2.159087479234256
Ni 8.511500375375375 7.043953116106134 3.6496773675712535 -1.0374802347881746 -1.6726643288053196 -0.6110512055246831
Ni 7.369326786634433 7.712632459607508 5.984936162793798 0.9602347827414496 -1.1121345290689557 -0.42505426040315186
Ni 1.7719257763640195 3.6890393233011443 1.5435264384752754 2.1812095079442755 0.19651687081624866 0.3867880178331016
Ni 8.572921673468922 7.922891240090542 11.481323019105453 -0.12267067425905971 -0.08852668138749915 -0.2425031077383759
Ni 4.696266679729236 4.528193726389125 1.4751464806583514 1.2467641754621044 -0.21335656808140677 -0.3411321676671996
Ni 2.7915081521297096 3.756903480009324 7.660492788324549 0.5315421542547619 0.11191806372824595 0.6915658152409832
Ni 5.8133112577752435 -0.04519218414677411 6.711968998155306 -3.528209682811007 1.653202877646598 -1.714026436691874
Ni 0.6852454971618022 2.4409402974811827 6.480885446193442 1.1308850702035813 -0.19677732356648692 -0.3016029992243257
Ni 9.248881819624405 5.903436794465487 9.712940814979481 1.1503249240957478 -0.047326038779473334 0.21641258129891117
Ni 5.508523079150057 2.8369526505372593 13.618503015983203 -0.5385306697574532 -0.9640775535263074 0.36214116581869893
Ni 2.171522667811185 1.5749623746406616 8.512729359966606 -0.6575840589788998 0.26867230993457597 0.7763854800905402
P 0.03472067680012979 7.666117254927295 8.012079210505505 1.090831139605489 0.1359761331187142 -1.3145860202020845
Ni 7.1832287259562735 5.82000549960172 1.5048255274876374 0.09579416158318986 -0.15366378020646437 -0.032109736050351154
P 3.564744290778959 0.05781534557700471 10.70081818143822 -0.6775458468128073 0.05128425209627298 -0.38111847825215006
Ni 9.45145013592292 5.26428101262163 5.32237194868273 -1.312139872654437 0.49561098757579164 0.5482149869247527
P 6.807038404678454 3.4728870030737995 1.4961723587066547 0.7673429102722977 0.7791599575118839 1.2188412237995911
P 6.468015556796033 6.22465798675372 3.796015914625238 -0.9249278799100393 -0.5799400859421754 0.5323901040773541
P 4.129620988767985 5.5059533840956645 8.619100769484412 -1.3229395343731023 1.8269960816130857 0.017795633420524194
Ni 8.141538771457657 3.221317581444628 7.648678708416878 -1.1094554395748957 -1.7993878329775137 2.1572100597058848
Ni 3.273065281126898 2.8437493077463376 10.341124185150873 -1.864616720179337 -0.45262651359446565 0.24755018324398015
Ni 4.189040531656119 5.732989666346862 5.908653461635688 -0.7047339771918251 0.895183044547439 0.9962369118676715
Ni 4.946234697194077 2.0611468168336193 2.3001703540939786 0.2284664271396517 0.4889729134339837 -0.021693682923349736
Ni 1.3582141830963568 2.436489883582636 11.728882412981267 -0.3483325420703807 0.33788872102923745 0.439284802180237
Ni 6.322948822584185 0.8480086784384375 12.191404246548373 1.5859754719575072 0.276048290683673 -2.0225349047867813
Ni 5.653468777000646 0.23693426345526733 0.5752355484148072 -1.0904462454622446 -0.6718115154321914 1.7886773885385454
Ni 0.3802059353247721 1.8460745133682652 1.939222234894217 0.024730155756828374 -0.16318868897776412 -0.11439429318288041
Ni -0.30192147896124877 0.8140980142098007 11.560849494745264 0.050160937125107156 1.0210064055028674 0.32272101214986354
Ni 0.5073732538044924 3.1533975618004826 9.583199146200705 -0.25551648927890835 0.210695733419792 0.21568110244952532
Ni 0.7266436569076181 3.2516511556736374 4.078963547385965 0.38559708284879396 -0.8185145480501064 -0.4303684735272137
Ni 4.665262750268646 8.252724635006716 12.2766538799778 0.06478382924460456 -1.1363247531619138 0.04090522285479407
Ni 7.459042661794267 -0.11612600918623266 7.948305151758898 2.118318267736694 0.9457345322427454 0.8806054038435801
Ni 4.035473320688259 1.3087754847673079 12.600958706331303 -0.5355739011219744 -0.28634504462399074 -0.3866324660918438
Ni 6.943958460728735 6.35296584017606 11.076237594199723 -0.39232823092504043 0.12304734087218808 -0.019557096196321157
Ni 6.040105467303926 5.358642821955889 12.841690718383262 -0.4786375929462467 0.5926675608111729 1.9133617507935239
Ni 1.6902727849618049 4.9124655524032175 11.945794469137736 0.23419304521078377 0.7119394938013287 0.3623584240358276
Ni 6.5228450284457065 3.451128389515421 11.821734991995536 1.9144259303919802 -0.2182804877455854 -1.6452712815043473
Ni 5.431199465285132 9.316913565140482 9.643689395361502 0.23882051668046614 -0.00873815120394624 -0.25993698694410716
Ni 3.2307304861547346 8.499042940655174 0.8337580434737591 1.3178428365764852 0.810617661800533 -0.045420080006012095
Ni 7.954751734569261 5.427382164660854 7.298127612649141 0.36343983002546437 1.8739575379642888 0.6875152993206934
Ni 0.46193247959267386 6.000805891852529 1.6627332885799793 0.728843468645519 0.4979141817876715 0.4203761382011922
Ni 2.4984418795678507 1.5959947700314943 2.836890270258765 1.090695128248257 -0.41290245553196636 -0.13407377388967878
Ni 2.1078296103217267 4.91245624191389 9.67567092620148 1.2785594655958303 0.017250045329699325 -0.6745451123132705
Ni 5.143747417787757 7.5996869135755505 5.108362903098576 1.3271422596005404 1.3083642076620885 0.053611357567552836
P 1.3066154512433268 5.999716564601211 3.644798671163641 0.9344792710439004 0.07508161162618682 0.3659525691449891
Ni 6.199035520124427 5.076888793926948 6.101868460355792 1.1195423914972527 -0.11272667567247038 -1.0514140712604472
P 2.500732259942417 1.4750794451351932 0.7339142180234663 -0.6137146112894591 0.3069784046036262 -1.7119093903488711
Ni 8.399011043320465 0.6733215534800671 5.5652844773351875 -0.12095317734732071 0.31811719482926504 0.2965466677473409
P 8.439874780978885 7.727119581001104 1.4982849087350654 0.5686755687719497 1.3962146889181697 -1.2163217998118472
P 1.1028553923108908 7.075227049757221 11.204439308043728 0.8856115988089199 -0.9483894533670892 1.3535125220639528
P 7.4928956009890735 9.349314068000195 10.15752971505288 -0.38489440035481454 -1.114916462689467 0.8657053468032961
Ni 2.7758292881021926 7.887576554071317 5.601967805285556 0.511763686076254 -1.0225241276989745 -0.6164998873440802
Ni 9.024284885577014 4.056766409780262 0.9243630703643693 -1.6739398530836331 -0.5233832725930534 -0.18752983682628993
Ni 2.8051200875265216 2.4732383849582957 4.917409422236123 -0.9997721787144395 -1.3380015709125472 1.4638128476831176
Ni 3.4957721858408055 8.486203775872546 8.419549051728008 0.20013209897133274 1.4310531367535935 -1.1012196819286648
Ni 4.352663071097682 1.730819965983087 7.972601804707954 0.6283886683618661 -1.3003431371298249 -0.7626287926260802
Ni -0.052219741491174504 0.7764845683756152 9.182297855198756 1.8974764470218353 -0.3078399812729731 -1.471837774870123
Ni 4.47694879313054 3.3547089620397847 6.157956710162545 1.3070987106861038 -0.2653933820729881 -1.0401588100616022
Ni 5.24003649841281 6.9569000408939665 1.0476320869626634 -1.3434798204182992 0.5784311054968168 -0.5015265817292782
Ni 1.4264321383989824 0.052129429744697704 6.953791268507512 -2.486286324649815 -0.8863662175867573 1.3695302376484477
Ni 0.37368952384445175 7.9609432099720525 5.241292483423089 -0.3218512079504005 -2.1116758227195116 1.9385786163787837
Ni 8.294752183831072 4.596542028542335 3.292353821866689 -1.0045487741674763 -0.636540350934723 -0.14362619346480424
Ni 8.991763346356041 5.7451677863872375 12.851965774405095 -1.363562192990471 0.474909236252066 -0.40573679102146254
Ni 2.0252735014547443 9.339538054206317 12.432626921387888 0.0593631724496655 0.8225113279143255 -1.2245238760066652
Ni 7.131415852848711 7.833668820865066 13.255633211786245 -0.28383436238699505 -0.30960092982813775 0.9733553792838077
Ni 7.62539317460879 2.1616628596133576 10.089695351910548 0.15743944519881273 1.040308448265589 -0.11203222070860706
Ni 2.8853206425936455 7.132318970313478 10.12434899318752 1.186593162399163 -0.09824313734431468 0.7682371399517931
Ni 2.9164269874368376 5.939356662290999 1.2495123580998764 -0.7400833032253964 0.6662579326038138 -0.7593521787573374
Ni -0.05679957119137397 0.27018667608844965 0.12960014934099717 -0.49278817341501585 -0.48169077795027365 1.3120611968977018
Ni 3.5235174440367687 4.080228842885573 3.4416773117990713 -0.4348249666366705 0.36516041226099694 -0.07250356648636545
Ni 7.299190870530342 4.614408857561816 9.582068852796345 -0.36160946168494496 -0.7985779570271795 0.3050241090907328
Ni 8.762008401221212 -0.04752353067438123 3.220295289716468 0.2442604567491148 1.477717887799984 -0.18942396852520926
Ni 4.909961030774119 1.283031981776758 4.633917125849737 -0.2104566208257924 -0.6905962522388622 0.33095702690641066
Ni 5.777828982948124 7.124498159278375 7.764179983769235 -2.9864797893899664 -0.9556957572205154 -1.1575342973599936
Ni 2.1827697389188105 6.475166012599557 7.543547456077496 -0.11281872116564441 0.15981848695395057 0.3969449037614454
Ni 1.1426391132073175 7.618354444677196 -0.06170899221376709 -0.49078091317699984 -1.8079686326679896 -0.08279903487510257
P 8.828178048871786 3.943355339281929 11.579845686120173 0.04746924922555696 -0.706141399062313 -0.2632333983071918
Ni 7.077601224535735 1.983450783395594 3.8554149744368513 0.5378074184381834 -2.4481962026463124 -1.7183767432407695
P 6.3928054240084515 2.1703495461559195 6.737942470232245 -0.49844922835553507 -0.3133470271341313 -0.16212065272456597
Ni 7.437135080406649 1.403835580801129 1.6137861840874228 -0.7286519214600031 -0.8207899743478444 0.559938446009268
P 3.2656634421115314 0.5634670899048415 6.206658948785788 1.994499338805804 1.1439136212527654 -0.20947780185229084
P 4.54839748822981 9.231741208772469 2.76668545653365 -0.3303309632866375 -0.33953756948657005 -0.42749218042068315
P 4.015632667931347 6.074098063838645 12.793056446332107 -0.3286330067589243 -0.1774156312104235 0.49386340875706564
Ni 7.877381568257699 3.158192463804147 5.427952897656631 0.6161044516778744 1.4916254990200117 0.438057100420723
