# total energy = -340857.8692315579 ev
CRYSTAL
PRIMVEC
9.40761320185167 0.00000000000000 0.00000000000000
0.00000000000000 9.40761320185167 0.00000000000000
0.00000000000000 0.00000000000000 13.76899285702691
PRIMCOORD
 96 1
Ni 1.6287118028308258 7.3467153841982205 13.228435890250637 -0.9435907464268652 0.7446588384112208 0.042558699297817026
Ni 5.698191148547779 6.020938125158689 2.6017750750488076 0.3210055721206536 1.0151833710631872 0.4998062566040618
Ni 7.852741475809969 6.344362449900186 7.2033856974825206 -1.6579650749219317 -2.9319091532329375 -3.341759452202141
Ni 9.18811450003279 2.2144109683026563 1.9961044880989318 -0.12002398066483201 -0.38041939530259644 0.34713055134247955
Ni 6.312320120278336 1.2211081576382725 2.445882462033337 0.694226649902598 0.2982356254139896 0.3863193057267992
Ni 1.4992630489856593 3.09988371962305 13.781109630549977 0.5596170581141071 0.05125674129244721 -0.3906899239906691
Ni 4.832483791982376 8.653799716356186 2.367812445415641 -0.6409261387072446 0.696118210498356 1.5292852183543146
Ni 3.5334805993268095 8.80833857387178 12.549679440010621 0.5029054643546759 0.19150964740964438 -0.15731346114390973
Ni 5.639873356026979 5.086818607404185 7.186244085972253 -0.1826066884930597 -0.6527719823022371 -0.6487127246311989
Ni 5.445427404484411 3.0872116650133523 0.9926461592822331 0.16016661432198867 0.30968063402613766 -1.6594308608341808
Ni 2.2986373268183375 5.19558002042773 0.7693357697638109 -0.0756325990336504 0.34387399207839486 -1.31166216168707
Ni 5.616420177005468 1.625682551469042 5.278962516064056 -0.8617566465681932 -1.768196494976374 0.16876489751396095
Ni 3.0070776181199563 2.6771432252345027 2.210790918849195 -3.4012275256607873 -1.710845210750415 -1.4088586029344252
Ni 8.394695241181507 1.6953647404029921 4.58618966332739 -1.0138204292773896 -0.30646572663326577 -0.06625964245918266
Ni 7.509758723797827 4.875843479952754 12.309672419073275 0.19710976720524118 0.4260510770987823 -0.11566210415171048
Ni 6.329187970252492 3.0522623829977427 12.007786824123095 -0.045507754623811944 -1.688359885163705 1.099604772033061
Ni 4.825851424870398 2.767042374343835 3.1751436822601105 2.4254671364799134 -1.2490511717240684 2.6634319900283034
Ni 2.0704462677145323 1.498811483565269 9.460509109986326 0.14928724840532354 1.8674091953228096 -1.028741569363596
Ni 9.161886075198465 4.394390073300566 3.7241409274284414 0.832723749670953 -1.328033403956242 -0.8158017771046338
Ni 1.5164977958638821 0.04531458993614816 11.012288276602064 1.5948653182479695 -0.6779672506209421 2.599676859158529
Ni 9.303113160425474 5.918583296536929 11.03734827591113 -0.4065847408440546 0.0991633351657389 0.06689007695432996
Ni 1.2480797838936573 1.8156410716464844 4.022570165390052 0.7082095944452512 2.0684272964435215 0.674744115697954
Ni 4.968019271389886 4.616550852519579 11.586717121789992 -1.723106287505955 1.9601383448274308 0.1843532388705212
Ni 0.958061892648105 6.196992193433286 2.549852577794284 -0.7251233394814544 0.528546819071864 -1.1382363683623302
P 6.369226770860416 6.789267280339548 5.466193769254601 -0.33439407761241763 -0.059847311174935636 -0.5072259461069007
P 5.669497929127156 6.699424576907764 8.521491988943175 1.0072682299811686 -0.15714556810747776 1.322601177197077
P 0.8166118469947785 4.089272963310719 1.7657355666030368 -1.2889945448862252 -0.28395751822842064 0.4605377980217423
P 5.4779495223654235 7.804169970279259 13.246803313725005 0.16233919649327525 -0.011304883489857951 -0.4949522709458702
P 6.876259477055118 3.2252495694588563 4.972533984832494 0.5594262822595398 -2.5914195042457435 -1.4924263976547523
P 4.5455139673244584 3.2115803078791303 6.932825572049319 -0.0666915877902787 -0.8131188309558319 0.0766381574800293
P 8.850174228548338 5.339977471210394 8.624566499953682 1.6536561631339328 -0.11271330593603168 2.7921671253138878
P 2.34740639222047 3.7565351017736774 9.344753136753198 0.7239519448811725 0.7239735421477274 0.08886735255636953
Ni 3.7256875389932778 5.667108395444259 9.066605771496151 1.075435116765393 -0.8760324397609169 0.16961824665319175
Ni 6.840472917489201 8.843795866985328 4.033281673466222 -0.13645590096861016 -0.3827151333153086 -0.132740656900552
Ni 2.451934379427857 5.548610103043552 12.127095111996626 0.2681123236660479 -0.9825774121027078 -1.2373361972799852
Ni 3.9999947166544234 4.590350650524027 2.298210221191552 0.8741061692724816 2.1507658467424378 -0.4960802139027264
Ni 9.123211378464637 3.873245947718673 7.142761158272562 0.7693671397911782 -1.1429003494969026 -0.4216236374550481
Ni 9.26446668653042 8.456380959129381 9.94349783906784 -1.0126441495811012 -0.879715287929143 -0.31796421419116855
Ni 3.6519506688887415 6.836032524188698 1.5169023232196481 0.299202103092317 1.210870803999605 -0.21900528172675185
Ni 6.245149763995307 4.8957217660628425 9.671298907463141 2.1535989453158586 1.6973723730749606 -0.013889099277266403
Ni 4.8425028997472825 8.351890602373695 7.5622748414279055 -0.288211151298452 0.505225370737104 -1.044453580782214
Ni 4.049996179349704 8.496579689157027 5.327649735233744 1.3621830532547572 -0.9387611862487059 -2.911482252837154
Ni 7.939846563880638 2.0160138193316737 13.622229159669594 -0.9445405119346442 1.7179887637737319 0.29702000783933363
Ni 4.304914266772849 1.011158459995643 8.469541268849877 -0.515252415955803 0.7086384544525538 -0.17167692895443334
Ni 4.362733455808634 1.2271196222972158 10.744164722916386 0.038995150316274776 -0.24438926901749525 1.6243023925621638
Ni 7.054242105979297 2.4521507545251273 9.987338256058672 -0.3210395106823826 -0.9877617845171246 -1.1561620996028155
Ni 5.584688298610138 0.5295629983882915 0.33223173196168815 -2.141725333806724 0.6027023193393556 -0.11665275019975394
Ni 0.6533869404657238 0.9955982682180334 -0.19809422383480413 -0.594471446789131 -2.34781313614086 1.2042275876514743
Ni 2.0349231213105097 4.315733021636363 3.525055141191364 1.6093889657854412 0.798848694190063 1.1257680606919902
Ni 1.2445895594985585 6.590465604012798 4.71070318343221 -0.0934112631733101 0.5139326687031149 1.9514498159144975
Ni 3.0409356170362902 0.5857019877557077 1.3909851872664492 -0.5549145104321153 -1.4970055323850024 -0.7832924916230187
Ni 1.547194836837485 6.175411129383808 9.295019791026274 -1.9653869948208798 0.04986963113693347 0.6793772435945912
Ni 1.9640743883738854 5.378652167944222 7.245009680868272 -1.9882770120451758 -1.2734349998850714 -0.07807720391940103
Ni 7.852449839809301 6.610372112961663 3.4246100579933376 0.5387178460675948 -0.5641874510936089 -0.07570896079754057
Ni 1.6598415939989697 3.099911942461824 11.37313232251322 0.11314113750206967 0.04275256047617798 -0.28091513185767103
Ni 0.9189723201842932 9.092222701490364 3.308358303559072 -0.8187654877186479 -1.1393776810556246 -0.4818566141041765
P 2.46277194951722 1.4023834510861297 12.687355151358519 1.674925099815038 -0.5777381931948502 -0.8389195940690198
P -0.41942337007126473 1.3577631429838315 7.9657334923657945 0.4008468099190129 0.4812986847181775 -0.34543233770445025
P 3.637914510404949 6.358709059610496 3.7804972326544206 -0.1787412920003825 -0.0322891990510089 -0.5468487027048453
P 6.388107850000478 1.088950011270765 8.198664106861111 0.03933993525020322 -2.4645972697121556 1.1653265397109027
P 1.3119198452013097 3.928685010684484 5.47606611825788 -0.41683830025126273 -0.02558941843333012 0.7093619628821396
P 8.715466619078212 7.959762480442428 4.919798669821269 1.4517194068536936 0.9037540740459016 0.6129407092379121
P 1.694226419239092 7.935660176129105 1.531291267188121 0.8869526862178466 0.788383790102997 0.19505159912463182
P 7.474292023071354 5.439444162664242 1.2212624424902392 2.113044420932264 0.21726927287225165 2.33006301124629
Ni 8.91262196314312 7.488299958716372 0.9896376046688838 1.491201781219032 0.13249228833517182 -0.2706638864433081
Ni 7.894878174100122 4.86019861965882 5.35656497431939 -0.5671743016360749 2.7276630320932314 1.4774389231069844
Ni 0.3434286728647781 7.490717715238043 7.436067950996623 1.5086929960252597 0.5187791981621388 -0.16711039262967348
Ni 3.4443905049290096 2.8265549337060825 5.059829106684244 -0.9010086500902804 0.18895705619111974 0.2254831761416117
Ni 6.853389570034944 9.241672040413645 10.25339683870736 -0.41441426419080246 0.36568954529158954 -0.25286902435373226
Ni 6.991455697319221 2.654028720278284 7.018097116360946 0.9119764619556939 1.166624689697036 0.8153590331402603
Ni 0.5625244517928926 0.28597167692659814 6.1274774600093975 -0.4481229692971573 -0.20267337733594773 -0.2523285784692299
Ni 2.2432264866913005 3.001781132043297 7.297896458447587 0.3594754460610777 -0.907373930186676 -0.04717280103106069
Ni -0.17781517341411798 5.223454777523894 13.773536502145518 1.3940292512310766 -0.16033527868936903 0.07214901136042412
Ni 5.903117180888568 5.678134117792117 13.851882161821912 -3.491675078220083 0.37819847639187765 -1.539721068975658
Ni 7.555893657581017 9.133061149196896 13.421214812782933 0.8874707635048457 -0.22498309657674156 -1.7689493139819987
Ni 5.3898472273247275 4.62832918390142 4.738212925146892 -1.6965917861551942 1.6127964488050934 -0.1932078610476737
Ni 3.1490479047680235 0.735248225092112 6.42389629108898 -0.7374234970050461 2.1431255565883607 0.6030378483019034
Ni 6.998991195271982 3.9257027973873244 2.9064556717989434 -0.2716807577435966 0.044959852540141926 -1.0111475104309169
Ni 6.819851429958053 6.896928002650891 11.461047406056712 -0.5660417306935284 1.023247121907928 0.08829271099982214
Ni 6.742003433005381 7.937776889037184 1.3685047554213614 -1.3478388687179432 -1.147501852824656 1.3883280870812413
Ni 4.553416362181285 7.918745288090325 9.887912958101694 -0.3362244459529371 0.803635316945429 1.4471086475545594
Ni 9.277345708624463 2.9985166903583935 9.52497571831477 1.208185800968274 0.5065443466588438 -1.2213853303776836
Ni 4.814618735038193 3.249587064095298 9.468523455436959 -2.0531117491323734 -0.628846324724575 -0.998687687401009
Ni 7.544736228652211 7.980205223328005 8.322336586370454 -1.1596757691830286 2.12145784180694 4.961350041110933
Ni 7.208997338592161 8.972793055410104 6.5295870592538705 -0.30471403404948166 1.8265749349152671 -2.708364074654303
Ni 3.421718157780256 6.258941324543055 5.975027092563109 1.6441363965689553 0.6289139447377169 -0.777592355914448
Ni 8.845282269827445 1.1253198428380191 11.54881102703212 -0.8004520341214408 0.139318824338702 -1.0882376678467
Ni 2.241279110815868 8.706792799961551 8.771316794728836 0.5676424995217451 -1.1911090479916455 0.20665267369866988
P 3.9359759107011993 4.239437280816283 13.460663756060471 0.11831316862131236 0.14914995149651086 0.4484559271565438
P 9.18789812493552 8.291465504557742 12.47348153836496 0.941790717103649 -0.8289863941157077 -1.7525374482828788
P 2.495726817592774 7.387967766873443 10.724007030702428 0.8791622436391504 0.6272157310996875 1.1772654572403336
P 6.264228403006789 0.9642897324043187 11.994665085615592 -0.16297425897411288 -0.3454333661457148 0.1398088766012431
P 3.020812732990156 0.6531686838458685 3.8179489397080255 1.0438683977027055 -0.12505717221336526 -0.23261901585544453
P 2.326766089463472 8.216355122966185 6.686511687407192 -0.2309938215471957 -1.2955246326952592 -0.5109064802822814
P 8.881360465394032 3.4362999578136866 11.564810554333317 -0.37763077681386575 -0.1089983189782897 1.0754173761535801
P 8.134113770777637 0.2962777168857101 1.8314270461342887 0.4491285277435361 -0.5720095182411891 -0.1526808474679048
