# total energy = -340858.44658079563 ev
CRYSTAL
PRIMVEC
9.38707492556160 0.00000000000000 0.00000000000000
0.00000000000000 9.38707492556160 0.00000000000000
0.00000000000000 0.00000000000000 13.73893301363531
PRIMCOORD
 96 1
Ni 8.106311898393463 5.942835168353158 1.1134497818802844 -0.24492251581314592 -1.2254294185400703 0.26421941636954493
Ni 7.1177871884029456 0.5096111613738037 13.672930935060496 1.670908008235845 0.6604307843990755 0.03183102846766776
Ni 8.844577188133215 4.777608158032545 10.112954072400772 2.016846339042436 -1.2302096135375329 -1.3734298298131702
Ni 3.142567429627519 4.038826579166244 11.596017117392375 -1.840187383492379 0.34009524176225303 -0.8758210950810594
Ni 8.60285061908305 8.49158561877426 6.397382686319275 1.7498177353588704 -1.5095836261603293 0.9512132959691294
Ni 7.771718996089703 1.593108664254233 11.447870299297943 -0.5696353615820576 -0.4278865876456243 0.8572818986262912
Ni 7.3264055438287885 1.7412273211235803 2.1059170633826283 -0.8936936044861061 -0.1604409510292979 0.5425184507606076
Ni 2.264782043744214 0.37370602782359624 7.777733295060245 -1.704997493720386 -1.0101661203542536 -0.500046654749642
Ni 4.141267728948561 5.929186361262213 4.910857688057287 -0.12840192031588207 -1.1824958524013378 1.4699945510137973
Ni 5.312023726460761 9.23849640461495 12.36314390801371 0.05663934576059923 -0.4511134193840488 -0.7078776650271293
Ni 2.789660343943818 1.7999528624997534 0.5387589680437455 -0.07016694793338885 2.0646804278065796 -0.8543346430725093
Ni 5.193906161381415 7.470713048236703 3.5431195533241517 -0.23081024478147993 0.847727679278953 -0.3672743732802061
Ni 8.13061503564137 8.041597403149321 1.5976454376153428 -0.6483962218320446 3.354811143179777 1.4981499304020909
Ni 6.624806169149031 0.22173397665518896 9.791298436900822 0.2157700626189058 -0.3149107720768254 -0.7908103972666187
Ni 8.823587688370248 7.508664992575556 4.213785699663611 -1.6267009747013275 -0.26964547248112275 0.06791131912999272
Ni 4.434313437177681 4.019151269907219 7.078874946288711 1.2844236376860911 0.9770580249463754 1.0199345125949273
Ni 6.5623351848366225 8.314413964692756 7.677989051933519 2.412938664995599 -0.07818339047996212 -0.18800317691828267
Ni 2.9412240573485007 8.706896958695182 13.471573482168933 0.8287151427321922 0.4786879865682078 -0.49812449802626463
Ni 3.6192430995575178 6.056334292518649 9.888982217058869 0.6182358961985803 -0.5478750870868306 1.7378595345557295
Ni 5.855150500515109 4.368716556880894 0.7595091792359832 1.2081701172389903 0.09797240018143127 -0.10382063143209216
Ni 8.28918150701706 8.57513058652489 11.34911451517168 -0.39195670651823467 0.4704997943304607 1.7339882245257812
Ni 7.360199013930168 2.566304280723763 9.183047891131107 -1.5100770208569798 0.757789719366224 0.6840024010714284
Ni 2.299955413874732 0.4936794176360094 4.53228164570908 0.37648766434835806 1.3573522075250173 1.0357079733791001
Ni 6.9585448476252285 5.665127940720053 4.033229066326951 0.2522804988401139 -0.07689603912710628 -0.11266136965217372
P 9.341547714274098 2.967789479678195 8.600792033529373 1.1257089253192807 0.32978280409265137 -0.0276504147274169
P 1.8128037682133056 3.6388339251412893 13.36497291944164 -0.0005988099262634848 -0.7492911949769095 0.3247776375685762
P 3.322508270842331 0.5618661919330658 9.86709531292321 0.022363198186548583 0.7231497606948514 -0.2701221550072251
P 0.5215336853670706 6.92592476190237 2.517315952274301 0.052477758183741875 -1.1013284395923872 0.3626103921456335
P 6.001241549178374 1.339441735768247 7.49711607416841 0.7221370031596208 -1.0905503751402768 0.6762641518869064
P 1.1550889692901993 7.633081284998798 7.338486709390032 -0.4971976153366211 1.3031232709781235 1.6177584207960591
P 9.316568707624162 0.7223570136895289 1.3355836479316727 -1.6978817086112117 0.6227461253641082 0.4077502219070655
P 1.8548203160393526 5.111665997059699 9.494015403003992 -1.8380525965375636 -1.2207150437835366 0.8629655792746299
Ni 4.874304417897628 2.020014062384924 12.965362319370328 0.4269455638885937 1.1005712497113886 1.9562593214879986
Ni 1.88913007526728 2.6406405278717675 9.68993210720923 -0.7595642947681434 -0.08540664770127872 -0.08534776943888527
Ni 7.3116866101846325 6.130755023341907 10.862358065368939 -0.5535867927596273 0.8300989104535962 0.3019367284146606
Ni 8.33067237864153 1.3786609352359023 7.382931693525864 0.42751223502534114 -0.44819650284757007 -0.6952252663704414
Ni 0.473430558092764 1.6214670179143063 13.30259862200202 0.23700814606207565 -0.19328987923851873 0.36413737031312127
Ni 0.5970855587312218 6.910229572455285 10.892803165807774 0.4578227130834244 0.045210792208683424 -0.5739692130707211
Ni 5.329690201663759 4.132875683873386 11.669121780296685 2.017221720103984 0.27215769738001516 -0.6071737248471478
Ni 4.452092557281017 8.694618664558348 7.757716296270196 -1.8617347706458516 2.4190545480853496 1.8050807695972333
Ni 7.221786592639939 5.920212317535292 8.366831391650006 2.3218725050156976 0.9339090003627272 3.5672320868207925
Ni 4.982293329021589 1.250762037977213 3.962267472651571 1.183384682764194 0.8679442634361441 -3.8040774820527576
Ni 0.1305854781317488 9.112052503985625 8.827772446417802 -0.4656239542953981 -0.4060931459196168 0.5441914675876562
Ni 6.850875097052225 2.5413722094489684 5.822958465413535 -1.8867438910956795 0.11953855638798122 1.1547382226720952
Ni 6.846547655464243 0.1506531671269507 5.450289709380551 -1.0743722227185175 -0.0024960269489763464 -0.9449354333802179
Ni 0.6573946996646456 5.246473781539114 12.529536383840377 -0.5411822484476873 0.5157753783388085 0.20535915169822697
Ni 0.6413465561965023 4.756158691593198 3.6807838247346365 0.07564159789471488 0.6404774812056001 0.4225708318596658
Ni 2.5910955458731353 2.7031866087844016 3.0628749174684455 0.5153647731639511 -0.15359744574490322 -0.8275715160460521
Ni -0.042956194036366066 3.180444277366147 11.767396007474 0.4841824340238758 0.5282830238875159 -0.8133445738133928
Ni 0.6213595960465426 9.228677524135493 3.125084941095072 0.08580208336748449 0.7392271258726882 0.277821837644328
Ni 6.345146429910069 5.435951890982538 6.620352002048169 -1.1534968940658263 -0.07715674898766066 -4.118266545472211
Ni 3.945049699634919 1.7435271545054798 7.9040082283390625 1.3506071754916997 0.6748677857600119 0.6201251428014932
Ni 0.13561037939432322 2.798305840044754 2.3748980660695556 0.4122977320684319 -0.6962794186665686 -0.5009059174261437
Ni 3.6696235312336563 4.409325043452718 1.4484406961652376 -2.1361234142389147 0.03415093485009602 -2.517709576156103
Ni 4.8205728004364365 4.003747079786007 3.2132342691470153 1.2353348505792403 -0.4737542967120163 1.2264097801754685
Ni 3.686585975809543 2.777494694707322 5.362044633163321 0.6621194849554081 -0.6151384882201794 -1.446939468966547
P 0.6420843802937156 0.40342081382523887 11.486091652690103 0.5578867056865617 1.0239181798330237 -0.5874960439125624
P 5.750578484701399 4.129984464764712 5.020261231387991 -0.2914890507187754 -0.2993154887417297 1.3060769542898087
P 6.550056890699788 9.092865322628064 3.2463452988938464 0.6484543287634897 0.5869836230525182 -0.5983412141571824
P 9.135238579305183 7.1389268813663636 13.102559114444412 -0.370295162384401 0.1731799958625211 -0.23464684491875074
P 7.327550766982224 4.138892798966436 2.475577261869087 1.4018834571681726 -0.5963192986311472 -0.4302843984538396
P 7.898172283794056 7.787705184862661 9.483560078837627 -0.7417853735181676 -1.1657795680879213 -1.4316079808157989
P 6.978520543285154 3.3817688754951094 12.91428161189709 -0.5726551222449879 -1.5734562564445742 -2.2345012773888806
P 4.794317151582671 2.4435401135054775 1.6063557045339734 -0.6111386230321668 -1.521971972522353 -0.16334655471186707
Ni 4.057863567323354 3.516182402823342 9.317785272547813 -0.611964718477888 0.5945223546317244 1.1916746906871283
Ni 1.0405948151717237 8.210977784957453 0.9294002179256463 -0.5974055897167905 0.7040032696733874 -1.5036911719352943
Ni 8.56498315841945 3.90247931438221 0.34364767487592296 0.7406170642416793 -1.1767144698328702 0.3834054745141139
Ni 2.963227361214509 7.3701680876100735 1.8679040212136029 1.9952084490576862 -0.9115098067319205 -1.6882691252221116
Ni 5.017663827727699 0.11990392545720477 0.9082023250970539 0.028957049353982387 0.4709579649138018 1.451720692405274
Ni 5.259596912428483 6.403937680811439 11.810371914367925 -0.550541063954768 -0.5823754348565453 2.4913100031166513
Ni 3.0115707976095365 0.4209258313377529 2.118446931130217 -0.37902637160981173 -1.9467292705103763 2.323102263657741
Ni 4.282411789071985 0.6314000114966631 5.83150351981167 -0.1297242386717314 -1.92319904859892 1.8819022467326623
Ni 1.3800596094150983 2.8431385103792493 4.999858423814283 -0.47621869909210884 0.4469875701411334 -0.3816617523501298
Ni 2.894711100583964 5.625176549400201 13.368050941343371 1.1130547268903799 2.2848956706810326 -0.5293724002969529
Ni 1.3011330825783234 5.10957267932842 1.444538489076031 -0.166071666952514 -0.4351684660190183 -0.3336978228763414
Ni 6.971761849264878 7.567578275452293 13.226169057122734 -0.7291638280994152 -0.8070782811887067 0.017246188674957395
Ni 8.855400485640684 3.8296731604637957 6.624487947305577 0.07236061315059795 0.9433606326939301 -0.10198769198841146
Ni 2.8600915678801075 7.938696286690625 6.171762460602427 1.3181400561019299 0.40879100446675404 -0.23325330700533375
Ni 4.8116832403847685 6.594063498431805 8.071032454315127 0.7772218599489067 -2.008572271959102 -0.4092795140673983
Ni 5.431455482044049 1.9244911868983612 10.811193812927948 -0.8407466199754294 -0.2614451960585175 -1.2164691240229888
Ni 8.59789424346818 2.566003894322862 4.549620511993596 0.1539021214695156 -0.902805336979387 -1.2672910917708624
Ni 4.7495126424732605 8.098727141770707 10.490307917580312 -0.06320825722736856 1.8583540270990768 -3.014166199561641
Ni 1.038576594040669 6.350318708250585 5.599247570757416 0.43757321880576894 -1.1147611680585254 0.5363182354871666
Ni 2.3019736350057864 7.6190569949067255 3.999691863373842 -0.17378446221573943 -0.6903795082423658 -0.7074086958105107
Ni 2.2523160081068165 7.987687431262596 9.304761644653741 0.8760298686577558 -0.7721012508928896 0.2678662690935129
Ni 2.5426206904277135 5.875717581901809 7.513341633354586 -0.06407420477208965 0.9881855023181045 1.877308970935025
Ni 2.5422076591264746 1.7936635222308859 11.886801479247211 -0.0399477440375312 -1.645015199629483 -0.583044435899112
Ni 1.791692236474972 2.5562413362935743 7.1638092011435095 -0.7584510070993067 0.7167394862931333 1.1244195170838958
P 4.867132692576114 6.43087858614226 0.7260367471005679 -0.1906645258005297 0.11635861599810284 -0.6108061793934125
P 8.343006995228533 6.073822413296112 5.9429675261110555 -0.9134111375196915 -0.0036157423757163533 -0.1140839610313132
P 0.33352465316555446 0.7992831548378029 5.596732773357372 0.05203809954316199 0.8221215486750745 -0.8522096263097064
P 5.21699836595069 7.634301604752459 5.911671017967168 0.16073997032695542 0.3165652769611128 0.031453590523590993
P 3.0365779654845566 5.553994359461658 3.1204824582087647 -1.0780532711145305 -0.3279933162923964 0.18636178466011774
P 5.861665130584653 4.480826393942217 9.312070421270668 1.2004071854641198 0.6451437763330179 0.555569884627927
P 2.6199420274346727 4.45305003893389 6.081689720877215 -2.124813388542734 -0.4328950966038093 -1.5986828922218466
P 3.296064880488002 7.345320500010533 11.822379860743949 -1.240772990875676 -0.31091090688881295 0.21270479343002077
