# total energy = -340888.58176159783 ev
CRYSTAL
PRIMVEC
9.12721266483658 0.00000000000000 0.00000000000000

0.00000000000000 9.12721266483658 0.00000000000000

0.00000000000000 0.00000000000000 13.35859832778527

PRIMCOORD
 96 1
Ni 6.647330613426565 1.872365500617795 11.155604965869529 0.28298152746839655 0.9872956435139835 0.7924175938527386
Ni 4.841995361450129 0.05353749039428393 5.825818510153422 -0.6553063186883166 1.1074571781979443 -0.33982656148189866
Ni 3.010592790557609 1.8204316614607505 4.901510263314351 -0.028215028981635276 -1.3467942295035127 0.37188564679997244
Ni 3.2575477793224863 4.341997533179118 4.545851086328651 0.3239474283577969 -0.49231251933017794 1.005711684127326
Ni 3.845458918447742 2.626766123058279 2.639204688260954 0.03192718772589985 -0.3318126900384866 -0.27187256203942856
Ni 5.137552756807495 4.54105291071444 2.4739318623727264 1.2213472780508965 0.533571525979965 0.32345480499209456
Ni 5.21167484956573 4.962657110774581 11.583093479832051 0.21228441806315052 -0.22764161724551119 -0.5947498972614983
Ni 5.843962495893368 7.8556001321345965 12.266519072386242 0.3864121225509216 0.39584035784335697 -0.574988398363855
Ni 2.0452075238369427 6.545662593326333 0.15927715999327788 -0.4012607575279799 0.3025589353796918 0.14079232356043495
Ni 2.8012601717409455 1.4265285513552028 0.18482970412404445 -0.44329186645710106 1.7853010158671445 0.5275877975927042
Ni 7.9490719154047715 0.02364586943834008 6.765181181299282 1.26589858229871 0.007472911338277452 0.8478616337536559
Ni 8.008946429441716 2.1872725864871003 1.1017741159135714 2.7698324663724296 0.550808972904174 0.4065533733854869
Ni 6.949459601787986 0.9418461856686421 4.873871238404797 -0.006764058196710931 -0.5071051042583202 -2.2170239465397237
Ni 0.900227009364212 8.163807844024769 2.7105931808737522 -0.566190854676883 -1.1530757473680078 0.18066833381976627
Ni 8.302550601322876 4.005897059871736 3.480368592779972 -0.11678233379908276 0.4100755276061325 -0.4184377835278987
Ni 7.8439446817649054 4.065442994258477 12.705977012828647 -0.16553970570844392 -0.2615894349458656 -1.7382063763721871
Ni 8.255618474618919 7.432416924310982 8.767394970628446 -0.10037509608565294 -0.7711298881185559 0.4698135668967134
Ni 6.622860556698966 0.7548542449020135 0.1795340954282769 0.22634912368633275 -1.6476531514729624 -0.7601865017331747
Ni 1.9783233105956737 6.694335757830569 9.208749545829523 0.5804918446805873 0.12901255731668748 -0.1954462634598892
Ni 0.2553018246012774 4.831343904456057 1.1059452520286452 0.33363843039331575 0.4242309931709081 0.8974584708451769
Ni 6.583075037386918 2.150188722076719 6.833991236379239 0.19883292054393498 -0.10744100179349883 0.9460749463012997
Ni 3.9803591192809784 4.918015914409536 0.4517468193599888 -0.2683861461527249 -1.036987611422472 -1.0676786127484257
Ni 6.3837549706889325 5.673447911863155 4.498347596121841 -0.11199725370561356 -0.24461706875758513 1.007775251524574
Ni 5.566203164921983 3.173376625595551 8.717473681828894 0.5568670061727957 -1.0135322086130094 1.5788460600015777
P 0.3658442334207348 5.799303045103311 12.24676230819655 0.34260438133735194 0.20209307935244547 0.834595255662053
P 4.002109266681899 6.552571893193097 12.447381177234087 0.9770508258575237 -0.012740330384803865 -0.06950463175904159
P 2.563258978444093 8.291561437466095 1.2430058640619648 -0.14795053187177098 2.0089723356109985 0.586957397800273
P 6.613988906143493 7.795114094859776 5.844947322122724 -1.1401027321471073 -0.7260219400363239 -0.5805152417193551
P 4.8201904507741755 1.2623938888664277 12.398222010678756 0.1701437801393586 0.21786679724693447 0.7481036024267116
P 4.056270145690317 6.277313418448255 8.09465551847585 -0.02579819201002654 0.05827328181959642 0.4324742070163068
P 5.0315949468296175 0.869748508644156 3.4984432117048745 0.13719303624495083 0.6512738004901557 1.0994679893448807
P 0.6102974532378184 5.924446255768028 3.2110866167838186 -1.9877381088225703 -0.5947560679090853 -0.39112624019713926
Ni 0.5994378957986177 0.3197536357097958 5.057832031898306 0.5958814397627803 -0.35690357156884345 -2.5610221229008086
Ni 1.8427842048870426 6.757715121469675 4.694037770406336 0.3864733148061602 -0.3234422065866042 0.22388549263718863
Ni 6.0126607646349575 5.583627013595233 9.326172047435726 -0.1827218739146853 0.9332927069349669 -0.8078766087202861
Ni 8.987036775970221 2.3184032485555113 10.289860565351596 -0.3787867447951799 0.25590061209120446 -0.13968546364950138
Ni 2.367927503611069 5.130433531053103 7.005528980931333 0.09285796177300137 1.2457115658278741 -0.04660021635704232
Ni 0.6674447561780796 0.010101086079982616 9.040992292697263 -0.07421103609577542 0.47580835102756774 0.6444806888277224
Ni 1.831329553192475 1.3086140929949468 11.299771112838485 -0.7752583084646325 0.9735433269248974 1.810459003190011
Ni 4.479425971876415 6.969621614212926 1.7361765373787632 -1.0743855924549564 -0.7112316691010268 -0.3729793940847834
Ni 5.676660690665138 8.05168916560559 7.885994662499601 -0.557151370182434 -0.4031276355333896 0.4737008177662616
Ni 5.289602989938814 2.8480006269822855 4.943897038190505 0.1150841201610534 0.2993458277590329 -0.5862063785668614
Ni 0.7633936649222824 7.534751230924125 6.973361945897734 0.3448011318783546 0.2000395392575265 -0.8983020497923948
Ni 5.178196234095073 4.747464821529302 6.764847125321576 -0.25398796844952387 0.45022844567593434 -0.07890612757859959
Ni 1.0127646268374004 7.881174581575378 11.449681014637234 0.02715342048634033 -1.1762154187092646 0.6900534923615148
Ni 4.6253427182039495 0.8958130893964885 10.282580700657103 -0.005130122137713746 -0.9451858588281269 -0.4475182458336229
Ni 8.300277925408974 7.739082137287703 4.577831013505883 0.2642456416217901 -1.5484000848068946 -0.4679739425848134
Ni 7.194014133663882 6.001169604090367 7.050681301196692 0.5344166475890796 1.5259039605869076 -0.7783230634328853
Ni 2.558777517103828 5.302116398284035 2.282971409608649 -0.6580643410494279 0.8595179870456615 1.5620364446434067
Ni 2.481616062581218 5.599937342342797 11.298782635724125 -0.5980182836001249 -1.1040967463661435 -0.47816965217089263
Ni 1.556116714510162 3.1449271042154967 3.4748922652765932 -1.148811572775015 0.7640734954924068 -0.09461942454879833
Ni 1.9317836540294577 1.1540721308495907 2.4258013326667784 -0.2999721484891221 -0.7074169233406269 0.11527078225056277
Ni 1.217305459088607 3.3681787221032486 8.339332354999321 -0.441692126070149 0.7516455541416991 -0.39217602161789233
Ni 3.828500557612278 2.951247654845992 7.144966319101118 -1.4889803480876806 -0.9942198814376427 -0.7439193891420349
Ni 4.086974088559263 6.905539455210887 5.775870752437602 0.4580330293220176 -0.49491961793572176 0.9993248067643757
Ni 0.4857958856122479 0.24479822844979646 0.5568850056548615 0.3385826617724685 0.3652719981381967 -0.43889733693383126
P 0.42425839345677774 5.699232287191566 8.040780321218858 -1.0955406292660166 -1.0391162277297006 0.09097848536210137
P 8.76250734833168 1.8434048553374258 8.116577257471876 -0.7028077067033897 -0.08165257997548518 -0.6435764318458981
P 2.0203997602466357 3.4144171806567782 10.528552688635124 0.03346573585761333 0.06128815738652026 -1.3042527565968765
P 4.188660363084505 6.032521579047213 3.825047733121398 0.8970003002618357 1.3437850103635438 -1.1388927709994063
P 6.952407691427306 3.9943146272020895 10.561921777555712 0.3892027979221813 -0.06838080256724352 -1.2132891836331103
P 6.557226771570969 7.758358810099597 10.010612586020542 -0.2447481950188108 0.858554851801444 0.5585297385871993
P 2.5647923501450394 8.569539821537614 5.7078885355319064 -0.3153512020483537 1.0353783579538234 0.11688106416047613
P 7.176699811540699 4.126193720695962 1.3680541517166227 -0.8987954444890457 1.478344208530073 1.8134383975333088
Ni 5.53062529057503 3.008356623493729 0.23337734744149952 -0.12885392025163614 0.29720409882568166 0.4592388767046607
Ni 1.3831377831034297 1.0167258370648447 6.996699315553384 0.7047357769640379 1.9977258161629015 0.4127975545229859
Ni 7.146324448321956 0.6490835427805004 8.963886514170937 -1.0312381105332045 0.31902762245867633 0.592353886225496
Ni 2.7308437272599972 1.7015953546374258 9.067976896470164 0.11674839523735378 0.243129171358149 -0.12128793497892015
Ni 6.588177149177566 2.414293743139678 2.767327021087508 -1.6498005368332682 -0.439106881841476 0.9471828346534977
Ni 4.385497827980959 7.371501908048397 10.323163938342143 -0.7925489772242801 -0.41309477404843054 -0.9885295159210846
Ni 8.268241409514207 7.543376446741947 13.291003952802123 -0.22373559732288564 -0.33337077855422587 0.3759647019653525
Ni 7.783239591389949 4.093719098600924 8.18844675418372 1.1385233034751296 -0.9926185983887937 0.6345189496293202
Ni 3.4857007103257627 8.647303672085597 12.397553898723343 -0.7767096961991784 -0.46870156477945735 -0.35741444976699094
Ni 0.08245432505462633 4.758125405735879 10.283074482853658 0.5116724119140285 0.1707266492260221 -0.38387984304737116
Ni 8.810060125486022 2.43209180752566 5.62128497967222 0.016648150079642297 1.1691654538410188 0.43373507600660144
Ni 3.7169203847309307 3.1502573963187857 11.872801244694559 -0.31231935720056536 -0.3673317088807028 -0.05098471857798316
Ni 1.0937503833998705 3.5459129312254145 12.550977777336758 0.7866105002526582 -0.22286090802741615 -0.3001922349197282
Ni 2.946063398142793 8.644647653246459 7.969071463447111 1.5516854404263858 -0.9983701561605902 -0.27856745756110085
Ni 6.081717254452568 7.798089566136611 3.438249245230234 -1.9354678386639441 0.729313466303402 1.0593364114313175
Ni 3.39232932639315 8.336129616131096 3.4537718955385617 0.3089668957885647 0.43786683878678784 0.8603489675873892
Ni 3.65125009075291 4.352384301010527 9.271788464442169 -0.6425179086743967 0.6249361910368915 0.3845110488734668
Ni 7.652547035521808 6.3019295105759445 11.256582968704336 -0.9057855026536336 0.016838668823893583 -0.12661346095689163
Ni 7.7118830440209205 9.077770395488706 2.489669002174937 0.965942374649188 1.0930032075561433 -0.8112262419188093
Ni 4.5521333466962774 0.32680988369789965 1.371260541469851 0.06033479233431545 -0.2485729680815396 0.566746727180353
Ni 6.280352780212631 5.808220331721314 0.18397904791851954 0.024358631350022565 -0.37937372764690147 0.39453269477552694
Ni 8.267666395126351 -0.002369424366461993 11.0987506464507 -0.7966164624254345 0.20201106116160047 0.7339928740569424
Ni 0.07776567599048333 5.02391896111238 5.508377710092553 0.38591795652332245 0.3667303278512781 0.5040112958243449
Ni 7.4857654814064 6.233219854833548 2.352502514476551 1.2974845846351075 -0.39769026656790213 -0.15946933114464792
P 8.849279757622721 1.7614333598243472 3.4585947146265372 -0.10574047416262435 -0.5648070869554789 -0.4863691572625495
P 2.322702165645664 3.583307120860988 1.0963562025702285 0.004786108534733692 -1.7574194589655279 -0.2676970905055003
P 4.702403773388998 1.1002763403413973 8.000050135412476 0.673594318364227 0.40924917505009517 -0.19156261213476686
P 8.748497077135536 1.8618235701737906 12.525181536632092 0.13890719072258012 -1.718265671584202 -1.3066253705941109
P 6.329356784155367 7.771611522657774 1.1195667039720498 1.636409203128027 1.2938475021031524 0.20793282596267418
P 1.7194208006609246 3.411414327742426 5.927517562776173 0.3614012023288808 -1.1859149053852158 -0.3813079685551369
P 7.152950804601045 4.118353445153624 5.889191484743774 -0.14816676164763515 -0.6702629399981489 -0.4446257547771762
P 2.4777461244788297 8.825676786083157 10.243573732571784 1.6298873428491092 -1.4332313753518349 -1.3556411383711813
