# total energy = -340861.99762747774 ev
CRYSTAL
PRIMVEC
9.41226325769873 0.00000000000000 0.00000000000000
0.00000000000000 9.41226325769873 0.00000000000000
0.00000000000000 0.00000000000000 13.77579868379535
PRIMCOORD
 96 1
Ni 3.4225248425991777 6.916761719540872 0.1393899726200368 1.3500232779637718 2.2847478322492587 0.04219720219334023
Ni 5.034271403667315 4.401532001032369 6.289850390362401 1.0312918465892753 -0.2730508986182459 -0.011600817463721956
Ni 1.5497291579597456 4.35682375019539 2.7318924906488427 -0.9070075479861928 1.392800778140614 -0.1157487503282458
Ni 0.2353592920271984 6.572978801262829 1.1632136229185508 0.4589545126950225 0.24490528942196535 -0.20650714925974112
Ni 6.853341889195699 0.3449161547834684 5.75055593810841 -0.08607719140574208 0.029759490650619714 0.06332678508310383
Ni 2.613333739239838 8.436503406518172 6.197415375837194 -0.5615847233634393 -0.4761122554212317 0.10968094686761111
Ni 4.055113649020779 3.431607676716585 11.0889535709482 0.21025838877205721 0.621224289402943 0.7727604817434434
Ni 1.6517110311847312 6.732149586505813 12.39423777908434 -1.3332725408679942 -1.0545197067689644 -0.09719772679893582
Ni 8.212576249536571 3.020621198233061 9.549052698361923 1.983978898890454 -1.5701606164124378 0.44804429354042197
Ni 8.04422850754284 4.3643629731260045 1.6380943098192873 0.09068383693981802 2.057061734919057 0.6867550241159012
Ni 8.178485031740458 7.964233681466315 9.63422897540387 1.1292876438094743 1.1673985917485832 0.5641416854573381
Ni 4.208109989516592 4.79846597035808 13.49186580986454 -0.3519732241467616 -0.81746168130556 -0.49781185188185234
Ni 5.013997388445662 1.9909007649557324 1.8019298127706513 -1.3168622178307707 -1.4085814380136388 -0.14002870592153302
Ni 7.852152449683839 7.811726778663875 7.207662777502601 -1.0936745225915552 -0.02447124566848689 0.14369252792636542
Ni 5.967290243450089 1.7075069282292825 3.8874614732874364 1.5438834278834637 0.183962945410638 -0.3858457085244903
Ni 1.9403569108516097 7.357161520943462 4.0169544510116655 -0.9464642113199184 -1.358085743256932 -0.723457007522625
Ni 7.579102690361566 5.946799746171751 5.820867427666813 -0.24249102355351787 -1.6670294991170453 -0.3358138407780797
Ni 0.06771088119918989 5.029395851260251 10.539918367369749 0.7867650235526514 0.03380486436458695 -1.8963680444490052
Ni 7.306740026262682 6.722078464738325 1.4659515432492454 -0.2937338808888941 1.4098114537659976 0.07941931976959225
Ni 6.977461405782489 4.270136804888319 8.071695374404413 -0.6531872154627847 0.5249287627033025 -0.2165272524999045
Ni 8.871340560290308 3.417009256285395 3.667447935400156 0.4587593659650809 2.3070308120171754 0.9493669867890102
Ni 3.1142543938806986 1.1341965562858505 8.39973816470884 -0.38559322619405206 0.8530920289146599 -1.9613465062029192
Ni 5.50316212618223 6.598053070784875 3.329017771280217 1.4745639155520347 -0.19566994943492108 1.0899533649862263
Ni 8.448560515849154 0.991704301670894 13.176220852823793 0.2713249170660747 -0.8171914583633089 0.1333741767194929
P 4.581183871290357 0.044567066886968695 14.106831094419372 -0.28144143667478627 0.9786593079952242 -0.4769314088884173
P 1.3899371633367115 5.244880208031162 4.836420922252843 -0.5713428311914677 0.6768701609020213 -0.23795996845238374
P 2.0670553875919446 5.48347167128729 0.7352502450593081 -0.526221513372797 -1.5765032708010138 0.7833876224399864
P 1.8320594089294424 1.025851993047013 5.689445877185426 -0.7679172947185292 0.514578786927546 1.23846156913368
P 1.5252290365010805 1.6272862078327388 13.188288315644444 -0.17639181793159942 0.7406132075869374 0.704166020503497
P 7.455425550151478 7.851079451663751 4.917408742111117 0.509266116465381 0.18041430882743123 -0.5724314362699561
P 8.82828886780013 5.421915469082269 12.370405928322397 -1.1135851454725532 1.352095330001452 2.7266435896897816
P 9.567377433847085 9.176109647048502 11.59526933493217 -0.7800441598890502 -0.7483856524435046 -0.6498496664491195
Ni 8.287111962879319 7.662071791651667 12.71539267508087 0.37488072487255436 -0.1222544126572475 0.6148266134067153
Ni 0.5689619062830773 0.43658783475227947 9.516804401726626 -0.003875680905322358 0.28424342489995563 -0.40491866599554127
Ni 3.5262103354876353 5.945133775561615 5.178336447485401 -0.04696428456468041 1.1708343569030095 0.6568656927556364
Ni 2.9685525574688136 3.438299795947131 1.1671517138975387 -0.12530039857242292 -0.8488342820795703 -0.3206116791163446
Ni 6.8792350256278105 4.589739618661055 10.48174399138067 0.1629680883265258 -0.4369286432432346 2.1540463172659225
Ni 4.202180263616108 2.3674948332164516 5.230643218512 -0.1021985224476369 -1.3974750436878318 0.9935462524093857
Ni 2.4780230415488007 0.08088710864059802 3.89007902372065 1.07992014911994 1.7977117308266717 -0.3993450285625058
Ni 5.406413471371005 0.5938046341271037 9.457333957076441 -2.375214410971948 -0.19314486902022218 -1.803520881309281
Ni 7.202753340947534 0.6187819573368077 10.682828526476738 3.507444939459831 0.3203409419534612 0.37908422143094067
Ni 5.7657266241503144 7.96192767694946 13.054484521313197 0.1579168990558635 0.20272042852379926 0.41232755686510286
Ni 1.9186804683931749 3.134754303422371 4.7185690318202305 -0.979166586648946 -1.001080613113218 1.0918441542510358
Ni 5.666097816758855 2.8956357534195325 9.574745353585017 -0.47623772525550234 -0.5353221901224846 -0.9855565493356897
Ni 6.641575376441757 6.77625545248941 11.122676769247951 0.002272340973944474 0.46623844795094543 0.7455918917484514
Ni 1.909955300282463 5.546129108302401 8.000722202733623 1.1238875558398256 -0.23542511784567197 -0.5665101856895146
Ni 4.810598377795737 5.523407904613881 9.370876670994722 0.07765759988347916 -0.5593257521259335 0.5051919463960074
Ni 1.1256690457051548 8.782121716146364 13.726274463294995 -0.3263616942262444 0.5064962670297277 -2.121162164943392
Ni 0.49691761904486725 7.047601592148211 5.943128022245118 -0.4450425305996206 -1.4049734089474062 -0.5101240935903021
Ni 6.486884828545806 4.162055785022835 4.090434108408326 0.09764844118310925 -0.09932454333395152 0.3221412283869936
Ni 3.9595321148629816 4.151579935931981 3.7741698244401953 0.8237644835951361 0.40727739603570506 -1.1308912408511684
Ni 3.2300722942068125 8.69813609041618 12.221861588383613 -0.8153541480442539 1.235930318071394 0.9085558663099191
Ni 5.785304131885244 7.6597469626081445 8.76560978257935 -0.0647876858993465 0.4167069168797211 -1.882387671009513
Ni 4.016815149514321 8.380754570790291 2.1556097259445015 0.6189079825649405 1.5751256737271968 -0.18529940483387444
Ni 9.308135464835937 9.313048666296337 6.316947355274944 1.3666508592181237 0.5784352192618748 0.7345562027595801
Ni -0.070924227901452 4.225070888044642 6.389242949944174 1.8300032438705258 0.5986361196897819 -0.05975577990239386
P 3.058966759056189 2.2622939659312036 3.047082835370553 0.3414664110781668 0.015875533579675884 -0.13786049462562064
P 3.943747749251694 6.253837188393463 11.697430041160501 -0.3609720852112622 -0.8216983450947267 0.39160652226766746
P 5.6789173194199005 5.291273254004946 1.5898376357053507 -0.5220355003159075 -0.4138324235454034 0.2242978975842589
P 6.791832748307347 2.266040046738176 12.493327263786755 -1.8083159887050793 -1.141867280246698 -0.036309118843679405
P 4.320963026892464 6.168260890159816 7.330653763715634 -0.815124291421635 0.337839870069173 0.14652536938947022
P 7.397784849493442 3.613518490174757 6.168581848339509 -1.3941169258488766 -0.699045668557796 -2.7541037427832635
P 1.0203081699432273 3.5819403466888478 9.07911909706959 -2.462074760400618 3.755629156743384 -2.207529376785727
P 0.9060037615612367 7.8696498472219325 7.9307683791819175 0.48752332547165067 0.49363226658286596 0.8001702412149638
Ni -0.08123253870495951 2.6211553300704757 1.129118640217103 1.6954982959806995 0.285333829750657 -2.5630651214727664
Ni 5.2825386736309 0.7806794752676806 11.727902243704653 -1.4931779311087963 0.7165577092996305 1.7291200978002026
Ni 2.628158053991047 0.8354353172138137 1.3524876499829899 0.37473571465425787 0.593707572039913 -0.9384765651287514
Ni 6.332514297603214 3.382146232895884 0.641083374080627 -0.5311377197274917 -0.8954057020812063 -1.0088070352231981
Ni 4.505716343877534 9.306733037599157 7.074782326204428 1.9685800478368805 0.5186521856659713 -0.390049976413825
Ni 1.1413687009464355 2.248297930353395 7.496252183589474 -1.615480680505476 -1.9035681617418698 -0.8113460553261254
Ni 3.4071546165745907 6.330547134566387 2.5416348820659898 -1.1150735570926216 -3.1476290793401986 -0.6453173257964047
Ni 8.852243077985417 5.991122094212033 3.5068634282043907 0.0640070989795801 -1.3739926442951755 0.5242643896464262
Ni 8.490605096162584 3.2569066569723346 12.019687113193454 1.265444268370111 0.8096159600088959 0.2100395878930318
Ni 2.0497462353205327 4.175138831057236 12.683680877455616 -0.6359495114282596 -0.8446395272719324 -0.45272241574238165
Ni 2.8530452618327247 3.5067928362293848 7.033123648687697 1.3578785123421324 0.9486097969080114 -0.0035949164401099377
Ni 2.491896717703266 5.270283906769901 10.28618257240905 0.1961160358334042 -0.3657821050053959 0.7630049450185763
Ni 9.246579262630917 1.4671930207830133 4.670629550980653 -0.6745862499638511 -0.3137933706429305 1.7341005817339294
Ni 0.6604340462692054 1.1567765760243591 2.6653826142510835 0.11213300795252946 -0.4384286248275288 -0.2744426367594499
Ni 6.639947054884958 8.847649893478376 2.9488197473888706 -0.07509960934831582 0.03125484424922359 0.2883844436515227
Ni 9.134432145005102 6.065347202864754 8.255615706084416 -0.3957956206483506 -0.5368795073072754 -0.42915182751129316
Ni 4.730161175342509 8.002325111179422 10.73324813870485 -0.26493598282059533 -0.02372356886918495 -0.21782977336141196
Ni 3.7385604085682904 2.016276226904469 13.115855301930537 -0.18066396294439208 -0.07366184846052475 0.13966412349326268
Ni 9.090166270544826 8.226402864374368 3.414579951118863 -0.0017195537942680062 1.2764671018431757 0.16532116193973465
Ni 3.2041697455113662 7.594247022066134 8.76715245253981 0.9354814870561694 0.14366398868127517 -1.8883953106561735
Ni 8.135979250523658 1.8957333703846364 7.474844931862394 -0.5622159291895349 -0.017522582264795628 -0.7904602130160515
Ni 2.079225444082937 2.446689616909578 10.168908594945151 2.2887803504474196 -1.8149064974384035 3.2760140303752165
Ni 6.2767184005586625 5.442650685207294 13.277652108643734 2.5701906767739544 1.2641011240786553 -1.3871592635841208
Ni 1.5732315795049963 7.750349409462202 10.25216947639861 -1.2867795395127775 0.3637807583046509 0.6632206884393869
P 7.179203858085613 8.947118692393156 0.801517285063047 0.2848453201500127 -0.7634687720288722 -0.6799017486394936
P 6.902022115159669 0.1585561644472669 8.04148483278095 0.66845776846861 0.03838477042578551 -0.24926793726603522
P 7.210885536468197 6.128625849259917 9.113338321647047 -0.2190500189217582 0.1984508546141679 -0.44990397245698
P 3.072209813567269 0.380013543529998 10.23259479234268 0.273247073789452 -1.8636697828850355 2.17243279019291
P 7.927130539403288 2.0143467129209784 2.521728886340699 -2.2888304869590645 -1.2375632256891267 0.7571703406146701
P 4.408186471209579 8.3089390015511 4.304358853144776 -0.3379136607299019 -0.4502186754839214 1.0086859362643015
P 4.7569390645280265 2.402753171665994 7.556080294246355 -0.31815344738383916 0.11203402048081995 -0.15819200709412112
P 1.3628486694611686 8.566213807525418 1.9633548350821521 0.10122253168761276 -1.055438361928492 2.321423076183105
