# total energy = -340891.3023190213 ev
CRYSTAL
PRIMVEC
9.06980396569577 0.00000000000000 0.00000000000000
0.00000000000000 9.06980396569577 0.00000000000000
0.00000000000000 0.00000000000000 13.27457489363049
PRIMCOORD
 96 1
Ni 6.668799884510263 2.009015929031084 11.204378320777666 -1.6051584726438612 0.15880547230840392 1.35453479268088
Ni 4.698312481417636 0.15698016170970538 5.800763441673343 -0.568058246902925 0.8518820677669586 0.36600861919390515
Ni 3.121599673933317 1.786325039820407 4.682579999992766 -0.23952757004981975 -0.10628914757724275 0.6310405041624164
Ni 3.4645561596468073 4.292411558318813 4.80510397760638 -1.3524182605585096 0.7021271356965972 0.19001197981819534
Ni 5.020018417160833 4.36724650829956 2.537249456886341 -0.18438486343940502 1.4197431110574128 0.9761362844630543
Ni 6.904515011773583 5.905113346717398 2.5609180165118115 1.819494631029718 0.9960649050661813 0.35680998341377257
Ni 5.049332022582937 4.713812775868867 11.479427372544258 -0.023625352728423827 -0.9437617247870907 0.06491649816772692
Ni 5.805998532344642 8.084315071583987 12.423528630737929 -0.4647824322307092 -0.8450053952517835 -0.5990315553559877
Ni 1.746753486461299 6.89779428726313 0.4027482593473626 1.2861779013730363 -2.4952095952813735 0.4439084169951774
Ni 2.69260703072166 1.5051792660350216 0.5509334324500711 -0.28272364582131954 -0.10177531886728923 0.1321541882694627
Ni 0.43756723558976834 0.2820962892087257 5.188128134939061 -0.9853572888406901 -0.2781995326987209 0.05847151387333156
Ni 8.985590530866117 2.1594567623034946 1.3457892574934311 0.2493000760555513 -0.1879844078652053 -0.4291816523079641
Ni 6.890701700802708 0.8748514933054125 5.172517188883205 0.898268368340982 -0.23744317671696527 -2.1366967702438813
Ni 1.2917939953772775 7.483640114933283 2.903892641832617 -1.8525122236063194 0.019680252037746752 -1.0577695811648298
Ni 7.585348893152179 3.740377958685047 3.696384876042747 0.3955220552719898 0.7629298688062667 1.21424023469247
Ni 7.554484351304586 3.9237693886463503 12.553366498021216 0.5194389432333247 -0.061536011731268214 0.33547934025679643
Ni 7.737794153032969 8.783887167319657 7.157850046602967 0.40406634529757507 0.5612993309125366 0.43102564749523836
Ni 6.717205426632097 0.9947760651906914 0.24400129988511207 1.1528955130364016 -0.48110405220886826 0.1563618958639178
Ni 1.8877707937332249 6.646615144763213 9.207536789196489 -0.561534072631162 -1.1197164551812715 -0.4334936494197566
Ni 0.1946624749668878 4.740994977431381 1.4274147694727954 -0.4688578878516635 -0.03554267299130008 0.19403035694896906
Ni 6.363972853374286 2.074001072239429 7.101844009015871 0.2408920544975141 0.2134157034541163 -0.8879060512700514
Ni 3.425265770201092 4.304819049722723 0.42913866705054776 -0.5536037620404917 0.208422364004583 0.2722363731367505
Ni 5.994940682144536 5.608830070627096 4.758961351497174 0.1679683697545946 0.9993358625079692 0.40117488268239293
Ni 5.355156732121276 2.682476060035865 9.11490688443908 -1.3698711659276344 2.550106504429569 1.3404083805818272
P 0.28451974074609765 5.649054649849568 12.550605649787771 0.3390197493098871 -2.104140947795047 -0.9726215864415765
P 4.043808240057718 6.265302459380764 12.760702209639186 -1.2184283046318887 0.5384859325624468 -0.8714710456424798
P 2.560759294947799 8.608332047718719 1.5756389427312327 -0.9824133757210178 0.4756905945027808 -0.4026699791706807
P 6.350023495348545 7.796103920749152 5.701416440326947 0.14182667836222027 -0.4531613030520131 0.4038614283756206
P 4.680109385476373 1.0059228538861633 12.7091703061965 0.5352846520163298 1.6381326135770369 -1.1282352912855602
P 3.9593592981996717 6.126180741073324 7.962368840463378 0.06095905618187565 1.4429280338143085 1.8131735739076966
P 5.1744046150244 1.0927027352842718 3.7809707719360266 -0.7296109429391628 -0.5221162329551717 0.3037825233741478
P 0.03957336731983976 5.779823078988148 3.503120057819531 0.294385398429964 -1.648784693974244 -0.8277833749465421
Ni 1.543308720612535 0.8967958832555298 3.174348745026885 -0.0939203415992447 0.2151702242513778 -1.9818531107967028
Ni 1.74499394455168 6.344164402185587 4.834812119487598 0.7152837276832132 -0.10057847034571066 0.8279145012077677
Ni 5.779469356645492 5.720225399152553 9.238360516927619 1.252536044948875 0.20187042181867818 -0.622639681693231
Ni 8.73090137435062 2.3555549871894166 10.217200937091505 0.9260964462968438 -0.5533530794822663 -0.3078209551095796
Ni 2.197051098465196 5.222483644214552 7.168708415542119 0.29655001018145055 0.5623313717214766 -1.0022260395715705
Ni 0.7264949009135709 0.14880645465326983 9.290834772970355 -0.49843328751593513 -0.36237770730953717 -0.8572258485773753
Ni 1.6048926874491944 0.9593222026922377 11.564676271084926 -1.1437590979527723 0.9347569501853192 -0.2800016189044662
Ni 4.014276959347827 6.84774711067923 1.730234653059295 0.034516031498998616 -0.6844014362820601 -0.12458408923168865
Ni 5.44053079395242 8.008428024378931 8.093560829432777 -0.3985305030810104 -0.5311467185885562 -0.35787699122570626
Ni 5.30111884192793 3.1200668771151436 4.958863452037189 1.2466042528454722 -1.9894437786597674 -0.8376378991431187
Ni 0.6183139108044491 7.4379283044978255 6.896340397736781 0.8534969776625624 0.471464215126259 0.1159284704392197
Ni 4.99304482108245 4.577158044156356 6.940398782965417 -0.03226065980591864 -0.10002002673907935 0.3700671055339949
Ni 8.20211368149187 7.044053941049283 9.2439221205306 1.1915119398570189 0.29271083894101846 -0.4292441301147833
Ni 4.579797357020785 0.25709265448482255 10.47087790351879 0.14129883088320827 -0.3189144939195798 0.2685684373668601
Ni 8.302443849554775 7.272603923422917 4.7481555874192365 -0.8761113726279685 0.46743349670031104 0.13181865930691491
Ni 7.136448030911587 6.233503727756415 7.064422906104035 0.12657695129200136 -0.5132168735830129 -0.16853401245007749
Ni 2.3827009095372995 5.047173409312373 2.6991726615895626 0.28290105193944826 0.7432619580636941 -0.061605431516622934
Ni 2.3954802628911804 5.260540540362802 11.574061703910047 -0.701294612492973 -0.29577739368148415 -0.11656944645732828
Ni 0.9094745617888091 3.247942038886876 3.625379197166335 0.32876156191698863 0.24062568821000496 0.7636430928232074
Ni 4.13316394569465 2.366375262953207 2.460176986343207 -1.475834297624026 -0.37341802428409887 -0.5640267571460286
Ni 0.9943497844187734 3.399044967826308 8.142291977505927 -0.011424696897173871 0.3179117636866783 0.651674121252368
Ni 3.575588696025951 2.6030427196005985 7.051440389148219 0.4292770402352478 1.2178855447545411 -0.16750120031018892
Ni 3.8345860092789175 7.063744484790429 5.987523396713164 0.27579889367702826 -0.9841717531730211 0.08255169475098686
Ni 0.8797754897112479 7.2793337177370265 11.247931517942561 -0.8262862215757253 0.4000981046784464 0.4965044459243385
P 0.13128994284890458 5.602453998655642 7.870189704947764 -0.058321361448712465 -0.4760641757921156 1.1826614314449244
P 8.584632650760812 1.7412390458373388 8.005563780383788 -0.7957214614149909 -1.2656892945013813 0.5093183098595551
P 1.6725171435219681 3.401629861868789 10.41426237512589 1.1917952754253927 -0.2860120867646042 -0.6900113262696697
P 4.081874206009626 6.16922602923338 3.9791867959760516 -0.9911463847186416 0.22786915987528494 -1.965135540931706
P 6.766200505991689 4.0646959978816986 10.271347664928744 0.2997242941443741 -0.30439573147811444 2.210903692574599
P 6.524952798497094 7.835149425496106 10.165032333432038 -2.416533067215077 -0.046120448507146375 0.5147353671100684
P 2.3378325908420186 8.666714373864163 5.766541258511623 0.3669943801459421 0.18122369210260403 0.15842829147464327
P 6.971250627087889 3.9883554604937514 1.6167369440459534 0.4946967032916384 -1.0010163355341857 -1.5193934131618994
Ni 5.438381250485515 3.099532841633819 0.26532985016686295 -0.34830323149434206 -1.0600969437464258 -0.09684342878331063
Ni 1.5942265983475876 1.3128359398634408 7.125180613827466 -0.28953321254398523 -0.7650903667926953 -0.4427272522028827
Ni 6.592513765944262 0.8224271211827946 9.165270597170638 2.0805089101984042 -1.4331280170047513 -0.2805937439625103
Ni 2.948656657785832 1.793807627838116 9.47090484083216 -0.8204552167162451 -0.21446625620581775 -0.8019797836198769
Ni 6.802561348855925 1.896631991906924 2.4470221431178913 -1.7890193452589962 -0.29669630595132773 -0.1893082688829514
Ni 4.024362581015333 6.670151285255279 10.397429726517325 -0.138888935890135 1.7130782138459917 0.7871131509206897
Ni 8.235073347984422 6.882566086921636 0.5172953446439147 0.11876722543959546 0.523046458078925 0.8814219862076045
Ni 7.548498280890419 3.837216252339688 8.377119170991145 0.3140008586680463 0.2653123923234076 -2.1193135417704276
Ni 3.166758226345648 8.493172750675262 12.534144863129177 0.7770310840943393 -1.2249167405697097 -0.09610115130064739
Ni 9.011666216382377 4.752640605328033 10.133836743750935 0.22162652139968284 1.2439369904259543 0.6032967583902449
Ni 8.676364644956095 2.508027456481181 5.894123465625206 0.1554823214724419 0.30709256158398723 -0.16579758735552091
Ni 3.3428847435770304 2.636637272349197 11.708719264857105 1.2762303032420215 0.7015671494280692 0.1941170031255044
Ni 0.9209025143976737 3.3435740486550256 12.46372327960833 -0.12668442340414313 -0.02181323922034953 0.762984376193286
Ni 2.897747849854438 8.429684125070459 8.033480636042585 0.773573464563042 0.42345169180272235 -0.31280349592583545
Ni 5.699491827990756 7.859175335385696 3.393817132997935 0.24210252986584757 0.576454184276104 1.0692410721395393
Ni 3.2922117505407393 8.36897992918861 3.6448130654639654 1.1512592629845593 -0.02697987102295353 1.6684137810590816
Ni 3.556378851878669 4.447233106757954 9.35836218214399 -0.738269132834793 -0.7033808055980402 0.18947564769875108
Ni 7.357125423710226 6.14524546836208 11.581189662604737 -0.2812475754964253 0.4625756543873775 -1.059303244200537
Ni 0.6136991947033456 8.784050423785498 0.19044864418746038 -0.7443194527939311 1.7864919508514523 0.4444110676632088
Ni 4.6710758610331755 0.1342974897418407 1.46321691243171 0.828209149630051 0.11065693762763522 0.3491519526478825
Ni 5.800311765451183 5.5577489364262025 0.41337806923433823 0.9035702401698696 0.5986656873761367 -0.3167907627083576
Ni 8.12712454484894 8.9300198438546 11.091650638094876 0.14424120134098384 -0.3605223992683533 0.27694252036316824
Ni 8.970979077173356 4.9352973811930525 5.671057086543096 -0.14651277098397994 -0.11839492970184125 0.08591649745816171
Ni 7.985417932499018 8.649363839466737 2.475854141965764 0.37949688348832705 -0.28152988262353446 -0.28618460778672644
P 8.526404511277548 1.413429132232423 3.5377141029312225 0.6843723828163375 0.6958608430719113 1.18149286505812
P 1.9420263592143585 3.175084306103535 1.6632115249690351 -0.14438466889738358 0.26048026104208694 0.13232233841621083
P 4.534747642252348 1.020380120916743 8.045453683851287 0.4576849019539795 -1.5457608474118345 0.30033673091739244
P 8.60322574825936 1.4246575491608153 12.461268083758156 0.1281466097719664 1.4622724997791914 0.2813419349824445
P 6.412233278637594 7.6336728070410915 1.2261975474023945 -1.1373110283345833 0.9030884154374446 0.7200328123324244
P 1.825851244161226 3.4730817750851664 5.968766135768408 -1.1592181128203196 -1.4438279199207587 -0.9092212678080598
P 6.884461675886122 4.087316088204324 6.045028672844898 1.430486722727162 -0.5609645732809371 0.2290333553867152
P 2.4834210791574907 8.480511304768934 10.37842032503088 0.5998802765095281 -0.18223722096878292 -1.0038147242149293
