# total energy = -340869.71571214974 ev
CRYSTAL
PRIMVEC
9.27204824673164 0.00000000000000 0.00000000000000

0.00000000000000 9.27204824673164 0.00000000000000

0.00000000000000 0.00000000000000 13.57057984208931

PRIMCOORD
 96 1
Ni 8.708094513347472 1.471260809298393 10.282577327634584 -0.0696547841836607 2.5564424739499265 -1.7692007678711725
Ni 4.99176483119512 3.674827993927723 2.9966286564955413 -0.6743954741092837 -0.685459188122613 -0.3735113553288535
Ni 7.167886752834077 1.3725505830161295 2.448444762046431 -1.6850423907546979 0.9591479774351738 -0.692997148370871
Ni 4.634030663392913 5.2893512216261955 1.1745775163724725 -0.3623180577161954 0.9149918517432499 0.9699970043345358
Ni 5.863754614279418 7.846257623159948 7.829668074328065 1.130378305770492 0.688802136452917 0.5664639058326115
Ni 6.014045245296627 5.459057521799431 7.499957745330623 -0.5263032744533258 -0.4822759610297823 -0.19419465044097522
Ni 3.2207294280650656 5.758934108162474 12.907548908589291 0.49912877092106295 -0.23448512252990583 -1.1296141739109578
Ni 6.6679749962837755 2.6967659782049593 5.966753162903927 -0.5262649650162227 0.34048553522213615 -0.13939312922006314
Ni 4.901028566457355 0.7333893505732596 0.3244642040650258 0.019932220147552766 -0.1508144836831274 -0.23933190909924593
Ni 2.621300777029744 0.14317804276048107 1.2998067280191827 -0.4784640434828599 -0.15408441268365075 0.37775393265529134
Ni 1.068547935156223 7.6054903447575875 8.985582811867085 -0.12640057361513715 0.9357337122762918 1.6027840588744138
Ni 5.044096271842977 2.8161436001647693 11.5664491134324 1.0341275162658576 1.654340590795467 -0.2064158750975155
Ni 7.762818460440233 6.765350047609751 0.1445113633071079 -0.6759409642195326 0.26332210136625617 -0.14107283091533124
Ni 4.209046329215989 3.4567308736373414 8.77313607781533 1.221302026635258 -2.7786279531768723 -0.286467686244784
Ni 8.59179521142577 1.639761743191646 7.846034166795736 -1.8530688674407378 3.0090157657089533 0.003305924444781403
Ni 1.5282282741000297 3.7698201288386555 0.05349600991528708 0.3770077985178862 0.0478410307426789 1.1699586391662755
Ni 3.74424781960641 8.541661246226804 3.265637666837893 0.785666391171834 -0.06653192228396285 0.819911428397633
Ni -0.014936342618645305 1.633067324313589 12.361197170885756 0.29939956381510374 1.483910389763941 1.9375396335913082
Ni 4.120071753656662 7.8048208392734715 10.335706164436893 -0.2126297172177112 -0.7417630049206644 -0.0609459435557531
Ni 2.270594821844667 2.3245303268497324 10.71340305224527 0.9022633484329879 3.6634039434583743 -0.7736343997079643
Ni 6.573335199208531 0.9352529686867681 11.65001715762359 0.5189733164508159 0.05057976983008063 -0.10650897689753269
Ni 0.4403898424399322 7.987007316468681 1.5079354691741083 -0.40197526709650133 0.2789245837902035 0.27043685803416645
Ni 3.121509239125887 4.963012209393382 7.527831376952804 -0.5459261908905759 0.8116481599475763 -1.426643694831988
Ni 1.7384626974256014 2.587986307460688 2.5248881643180936 -0.9433228374774593 -2.227924395502311 -0.2225824575550489
P 1.3265241352174113 6.845349280407362 3.2458520429543944 -0.5107270172816236 0.009697686903738139 2.4116945081758527
P 7.200236929379147 8.109231457258911 1.8185527962966268 0.7503155224763659 2.848955852168158 -0.13647544135263592
P 8.129444522569388 7.585768698007412 7.182311278386146 0.5714428471044416 -0.976851308252208 -0.0411114253283292
P 0.5624239062398578 6.2883773385723485 13.118543639876084 0.8563218487058671 0.16618556682255894 0.5047044652366275
P 2.8151978512373983 4.165708775426462 1.9650196345917985 2.001188320790205 2.475023864362118 -0.21953750008113804
P 4.258902132965728 6.612435426921502 8.413651347292658 -1.381691298491014 -0.21302438155296863 0.4260479917749888
P 6.9298640007307535 4.1691208892036435 1.7089970551090128 0.26106750100412457 1.3241471815279584 0.5037027634449907
P 1.3721518849389047 4.239848073693697 6.101970224987539 0.42428832877140477 -1.2041836217874164 1.1768772206629796
Ni 4.875048287099578 4.746194631769443 5.3657668077529355 -0.48863687025080366 -1.2314064620591114 -0.09366014595932257
Ni 0.7396739449161226 0.14039364665372137 7.41367577259981 2.043869404598499 -2.07856592753942 -1.8279522748787682
Ni 7.922752021697303 5.7124255138517634 11.339983969544447 -0.13871950019180626 0.1631375240248545 -0.033796379724154696
Ni 8.77963763808859 3.3093423937403985 2.67102955371767 -0.7497035999239798 0.09455771807292747 0.15099497512504964
Ni 5.842354726785574 8.049371113385316 12.576778784470296 -1.0977962580694127 0.07987003415376567 1.9797658892503707
Ni 5.093423568839186 1.590554982823435 4.597685161232117 -1.435348678805154 0.5856597620347721 0.5842579965912389
Ni 8.12392765382639 8.984392280864395 9.024001544029453 -0.7920224152968488 -1.322058931540362 -0.63624236007833
Ni 9.120515222067654 5.782104956883062 2.008039157124376 -0.6295862882143932 -1.438328587369084 0.1400572451666233
Ni 3.4764432483392103 4.9539163300036675 10.19829069969956 -0.8732787882751798 1.5714960473944095 1.7067538142898604
Ni 1.4191889860031468 3.748002999170971 8.84022861936882 -0.44962860730840626 0.6875158135413257 0.16383403587124687
Ni 8.209378851028845 7.435913853260658 4.050139183706566 -0.02966178873049085 -0.015197790786360924 -1.2807718998661166
Ni 8.661159404814613 3.5343008297783727 6.360435989199367 0.8078033322801894 0.5403741507240952 0.6019276459568602
Ni 6.160636329039121 4.824339454905544 13.083002951508382 0.1743868716864287 -0.43166302396892114 -0.6815534253103037
Ni 3.1070170276211733 0.2704573042879923 5.70930546959627 0.45847140241101686 -0.5089406148051622 0.3217609622294394
Ni 1.9265091091511868 6.144057906665206 5.4505559807062305 0.4072982219713114 0.9896191494408375 -1.9145837961260834
Ni 7.612027138814416 5.801464993749243 5.636133245967514 -1.0408913173522525 1.5178816045030632 2.5674036009471206
Ni 6.5883002851769294 7.720927346186685 10.591118643141042 1.263498971718282 0.3729428844198932 -2.0371228299032853
Ni 6.530145998191925 2.5722330973861465 9.197691116155616 1.1844925711163923 0.15503494952237817 0.6037610996211731
Ni 0.3564787324613623 4.016762591413849 11.383436496732987 0.8942325077087117 -0.6774548297608978 -1.8231142300601764
Ni 8.13141019681059 6.593177382586704 9.15175460722548 -0.3704139473504524 -1.7403362782309963 -0.533959248336687
Ni -0.014491284299882518 4.924672289641629 4.503437571800281 1.7777190897548287 0.1046284720453682 -1.8463099514503494
Ni 2.405623661347635 7.536895731378273 7.2178927637663985 1.046512777304088 0.16968920910044322 -0.4381494030242131
Ni 4.158717651002563 0.7375256113232613 11.386001145294857 -1.1031840047438872 -2.47098183308226 1.330586766505715
Ni 0.4585009343990854 5.910059223527363 7.410133850146323 -0.34609311121690073 -0.8452977296812216 -0.05477992395435727
P 4.973628704705535 1.4386417433524035 2.419119127659286 0.15249778492282123 -0.34658522036197087 -0.4774214611509584
P 0.6135972680541016 1.07846902684531 0.7472779517331509 1.0464341015473526 1.1759056007783295 1.409261751910115
P 4.518111515451823 3.119747549947451 6.58677966925449 -0.15439911571059214 -1.4131829413413919 0.7694967233905069
P 1.2945170244597208 1.517797219754027 8.936525331476625 -0.2544317408551618 -0.27906033803711944 0.1091530993885991
P 2.183697185106233 0.6403387825779299 3.6340652879532054 0.01745830468576348 -0.3354952810963964 -0.47034244281698995
P 3.119432300304994 3.58298835544136 12.200019300745812 0.45989656489331765 1.4247652468623526 0.1416929809978334
P 5.349341374176096 6.137094598386231 11.47573046558642 -0.585369741598179 -0.04073861536994275 0.466933417135441
P 7.649959088440637 4.30035746094882 8.32909304834222 0.39785018918453413 0.12821551533668885 -0.7081059789878514
Ni 4.865600069874176 7.797087950984968 1.205506287911994 -0.5534818917506468 -0.5006794032376345 0.3298583945255932
Ni 6.477851645737298 6.359762838492238 2.4420665200156617 -0.3620020691376733 -2.6931523999108715 0.2388421139470209
Ni 6.103724496527329 1.0127302043447233 7.324177326311107 -0.4555359739317767 -0.05471436082374447 1.9090289277461252
Ni 4.225736016169593 6.93436094415992 5.779994638688262 -0.09238179346753123 1.6145324576595936 0.7032054563624406
Ni 4.453967485260136 3.0404993530627524 0.5755132568356376 -1.2858200038129854 6.324913776763301e-05 -0.3060378950672278
Ni 0.8848881294849433 8.59282440878791 4.862827727430216 0.448444357192318 -0.6658223877282919 -0.008669759859856036
Ni 2.5675970732323674 2.142779635924979 7.329700685487919 0.3674929170489155 0.5700169132911925 -1.4595553579583442
Ni 3.1757599937734096 0.08911180187427915 8.629029903019262 0.24382054099821882 0.29930417588782 0.3293768269034843
Ni 2.6192609264020814 1.580698795472501 12.892784098864336 -0.8990810940502644 -0.3657900754251958 1.289866148857901
Ni 2.7267888706248318 3.6061499321136403 4.578021928386279 1.4050001484202836 0.49599253928492637 -0.37453079773230336
Ni 1.9203988293165062 7.197779836577644 11.404064022602812 0.03464664353959194 -0.8306609536046533 -0.178294434270951
Ni 1.7172575229462164 9.596291836873382 10.731967547366665 -0.9639037469526044 -3.4960966043265462 -0.31482746833439973
Ni 8.578072579930586 4.514347063838954 -0.2864488060040377 -1.3526087793027608 -0.9098704713562847 2.0622561346358035
Ni 3.659927812297477 5.9488256575012635 3.5635532149838873 -0.14811122581935138 -0.22254311967668125 -0.5876752498029041
Ni 7.926961531628934 -0.023782803908886468 5.895603173011049 -0.27075593193648206 0.8972188440305451 -0.3127407610087001
Ni 1.2608687611515925 1.841846036054874 5.054077631846063 -1.8874550582300913 0.48280637961195555 0.9313839199480282
Ni 6.740844023932874 2.4508990732334417 0.5353133641933887 0.6518589835696644 0.09252988900962128 -2.5340011142272743
Ni 0.8974350652547309 8.75029160519517 12.87470731348392 1.3568076478754567 -1.1024026464931724 -1.2802934175678014
Ni -0.1042530567605215 0.7178197270552081 2.82947958724553 2.824692094524787 -1.0047274658371856 0.509738171005793
Ni 5.945932778429306 4.8234307941714025 9.877781024237706 0.48099426610388135 0.2835147742640472 0.16801773493529126
Ni 8.079403277853496 9.214570880099524 13.701264987066018 -2.4150701095163054 0.527077433615189 0.32745904105548124
Ni 6.942149464738268 4.211800127563333 4.199795606619538 0.6223136658123799 -0.5052086585665557 -1.683876909691687
Ni 2.3592077875199995 6.503739204612 1.455078303387212 0.6384342255233263 -0.7049972581555407 -0.5395801940678902
Ni 6.349035078600393 9.08700603948414 3.8363619107226765 -0.31780994800149137 -2.3224376334905488 0.7908376509601284
P 0.9968100974006462 5.699008859950726 9.919646176755995 -0.3955698777907897 -0.7060449826937647 0.31779889225789787
P 3.2912062672508147 8.306420108615749 13.091199442212265 0.5417987989857637 -0.049510962245934084 -0.6714705871530048
P 5.107934324440515 1.1107913872454576 9.670204897161913 -0.1808431688347337 -0.5273777384644273 -1.9575631279010868
P 5.30615217315949 8.900674956695452 6.018701667956683 -0.8781320026024232 0.14324001376997914 -2.2008329386021583
P 5.8095687639700495 6.357834252444265 4.44196296431634 1.2136344827876713 0.9556427924953929 -0.16032010918071743
P 7.5244155543563 2.982595411382052 11.746530835661792 -0.17879554227708563 0.9470820474095755 0.13569279755034053
P 8.210185519231603 1.7732236065306368 4.439629189757327 -0.7107133347037116 1.141177453268525 1.0691058321132556
P 8.404462747419867 8.917160658586292 11.3023255453433 0.24620035408430502 -0.940735022145625 0.6864878864974435
