# total energy = -381164.986729014 ev
CRYSTAL
PRIMVEC
9.26959017488826 0.00000000000000 0.00000000000000

0.00000000000000 9.26959017488826 0.00000000000000

0.00000000000000 0.00000000000000 13.56698220548478

PRIMCOORD
 96 1
Ni 8.96451879373911 1.492811896959764 8.673548208786006 -1.5416635374140093 -0.4602084397067816 0.2298561083983267
Ni 0.9419757641951965 8.684567897710188 10.425751050534927 -1.8791992459792022 0.4584145810311524 0.18696033747606508
Ni 5.134982231190425 7.321910317863833 11.569339476348595 0.6423708415735712 0.439756599610333 1.168960279808748
Ni 6.548909914872279 2.7512607428848184 10.549346205566618 -1.095547828354868 -0.8916827447036644 -3.3940348645670904
Ni 5.004800105306177 2.444502191767798 1.7492180336789467 0.3245950892441249 1.020863195056784 1.297846081739584
Ni 4.5283060865825995 5.197403652132075 10.965160559362047 1.9221821772986314 -0.31183213315150166 0.282522585554107
Ni 5.563784207926359 5.7181599644399075 2.4928106615090226 0.03680019954748501 0.01862738529320018 -0.5328423611234243
Ni 7.5346659539572025 8.8711276716739 10.808570297730745 1.4165662559913281 -1.675318992819347 1.1126078691609484
Ni 9.07062779366769 1.6747554149643233 11.164771916439191 -1.0371146239186395 -0.17621981113010943 0.4885769635471457
Ni 5.936607128964844 8.457805910704607 7.063825458345047 -0.7177920959273637 -2.290240994153346 -0.6143375895854387
Ni 3.2887115872858965 4.075838845863293 9.49306156188166 -0.9329008708131868 0.21047461854792138 -0.4193664659897552
Ni 8.942318125019886 8.415925901822163 1.100558060777548 0.32585698667568397 -0.523768166736298 -0.21196405860925432
Ni 1.863159837393642 5.756257980488345 3.240256658018257 0.18485768931076552 -1.454042141449599 -0.7132929225054295
Ni 6.871741935533825 9.320573025962114 -0.014213062775442774 -0.8494549463827048 -0.3490141415184376 2.396700348759866
Ni 6.789900722956779 1.1846072897591529 6.718613865871887 2.8601170109913 -2.4878194734648895 -4.132666008726993
Ni 5.029503563400845 3.7364049890112985 3.8781351704656553 0.7220644980504726 0.7387753830472502 0.4177775242360805
Ni 6.7025626433440335 6.176856369826988 8.23814257593501 1.2056815464891815 0.14184699007719442 0.5529154777242155
Ni 2.12786225741291 0.1709599804824683 0.8634234022492908 0.0010418110009530444 1.431736278863547 1.1930582012982163
Ni 2.5778081695762127 4.564151592193138 12.121122034280692 0.48318176067350327 0.4017160998978437 -0.17583003189085847
Ni 3.8295829105000814 9.244395533045797 7.267249397904118 0.5422482278183565 -0.3723222201167588 0.7527781250842456
Ni 3.651189645572542 8.841696722536724 12.499328733353467 -1.6484993015233413 -0.9951128255655571 -1.034559975817586
Ni 1.2859239115132712 3.0562858806195865 8.270676983897737 0.666828203284987 -0.3457933205882948 -0.29779442411151297
Ni 1.1243086049914917 7.532422713109581 7.093862638686496 0.6756118630148881 0.6481483674872967 -0.2493980350859963
Ni 2.53705905070786 2.668474032099272 6.244393677643853 0.7604235574446453 -0.5524727337598421 -0.473569691505036
P 4.936446146585695 0.7301786037367202 9.934666696711536 0.6184474979887543 0.5978663314032929 -2.7295998441046283
Ni 7.485203420226189 4.545732916307919 11.469174137707181 0.180521780939573 1.3181056033195688 0.8005083412806729
P 0.9766069534791293 3.4899822010230572 10.97661128423422 0.0024764865649505737 0.9201543697807959 -0.01890429310367067
Ni 0.40959723959502053 8.500835348781699 4.88317751908595 0.6333969202097349 -0.02958594118723292 0.28518779109109593
P -0.18288345445889304 0.5723017229746327 6.638704435909072 0.5801100358611364 -0.4058193234329398 1.8704402688396495
P 2.9353084578828077 7.20261069096763 8.098144880903877 -0.3341770765056052 0.2881759271851424 1.0131383156087004
P 2.01850890088653 -0.03620053091823953 3.2299321883650323 0.4888135050379839 0.3152234182212378 0.032855613077440185
Ni 0.06869878747887659 4.504983797439566 2.036865470516876 0.1111027669158022 -1.56545446918602 1.4541943507567472
Ni 6.989929211596497 8.848778689510205 4.392636363252932 1.1773729293524757 -1.5152909609577516 0.8308594427687047
Ni 0.1615226106189854 7.293378518983762 3.054348536251187 0.3802255341242355 0.06195510154655782 0.08576685925417488
Ni 1.6670523854421209 0.544603260260682 7.873937592979306 0.05481103430260883 0.2304592891999644 0.17440769762203515
Ni 2.6025208972611606 9.411507706603276 5.400731187952241 -0.8154456793167957 0.3081888799719596 -0.9778566095882708
Ni 4.469546153801323 1.0910493150689138 0.12149095803825943 0.2019799508133489 1.1896476329547705 0.4506781316188432
Ni 5.317426307070074 5.910948903071394 5.184445691880466 0.8721834983284721 0.053529596487023934 -1.1904068797182983
Ni 8.439303808506875 1.8720493744716107 0.08291370417237526 2.4481643209671127 -0.4366494214399189 2.0390794394090235
Ni 9.111386182126322 7.094907321510988 9.029288201898538 -1.0323894505288285 0.7196270922535735 1.3696994162364604
Ni 1.3509686265039984 7.943473424460416 12.684192172296045 0.01473884887207139 -0.4642995790570197 -0.2186432704016428
Ni 0.1270091451316013 3.1590949064086926 6.105060612235755 0.04121735477857418 0.3210086574444471 0.3796994864174364
Ni 7.573876320839171 7.000941484848454 12.89312410239915 0.9579133336971245 0.9717404693882038 -1.1188859888601763
Ni 0.23329704815257532 5.945904528015107 11.528963921968504 0.351116275463105 -0.2829049085941902 0.09659788843140783
Ni 5.842400282955044 5.654477879220256 13.388956340363666 -0.005083842280810599 -1.3424963734591073 0.34716140458041495
Ni 8.604821612536291 1.1805194004459265 4.75013943243661 -0.9024998899238263 1.7519445518938859 0.4675869915590399
Ni 4.761862683263 4.10363834711129 7.091217097620748 -0.32258474368231543 -1.0113938221137677 -0.3843518975877832
Ni 7.051173394572659 3.3368763783777897 5.964059020577362 -1.0215057137367891 1.8482537054402814 0.05069135570728044
Ni 3.789575358854082 6.896797638059111 3.47229304189283 1.765416875348708 0.4454081414691555 0.005855173229196368
Ni 3.0455238863051743 6.943562721018811 5.6555318316350265 -0.3800872087741583 0.19005337457909205 0.010397284073924028
Ni 7.9807371773837055 6.369061324270871 1.6884651389875933 -1.4493923013824135 -1.2334062660979597 -1.6337195721110056
Ni 8.084547318922988 7.81405140497908 6.623685845738348 -0.08047501472761624 -0.5927963730795534 0.05630304546710304
Ni 7.9873093168918174 3.2056653279725253 3.8526428702382076 0.3403942610599105 -0.37584180323424304 -0.763774219084433
Ni 2.3460591430003017 5.009916919140419 7.047396036533793 -0.39458977326570754 0.3398139630764083 0.33634271669835625
Ni 4.768527518673905 7.62791803216822 9.315171635706292 0.6668330883809934 0.18843023715337226 -0.797373138085801
Ni 3.338860070697587 5.1273348192099 1.4782039496384176 0.462400562262094 -0.29816414874610586 -1.2206615648377817
P 7.213947399879367 1.3617862383600878 2.106884247651543 -1.0833016639976634 0.37623312513539076 -0.2753695194490935
Ni 4.714634120789327 3.6913084323018945 13.026351288690192 -0.2700923302105542 -0.4241980830504437 0.46036784810278136
P 5.650436337858427 4.361258800157077 9.05293492670135 -0.3357066257762541 -0.15570497900620928 0.8927407536545334
Ni 0.7159748105515568 6.109345943821934 5.12039653088575 -1.770957088440647 -0.2593721155795726 1.430006440656634
P 6.834728461548079 6.496963130946381 10.499528646527901 0.9299674992164758 0.6562172605383603 0.01590484415571454
P 8.177956980168757 4.960185567291303 13.598729022305116 -0.30343593866800644 -0.47422352303895104 -0.1742341481586483
P 3.317632708957703 6.832772577999121 13.23491706997726 -0.6196440894000167 -1.3400299141964858 -0.06217158843273808
Ni 1.8818009834455662 1.508486774122272 12.703552638553653 -0.23275322744046367 1.249232691607255 -0.7688796586317983
Ni 7.552815811724317 5.457424929060233 3.747594311437593 0.12292829879582055 0.38832090953786025 -0.2993684534668522
Ni 3.9255324394824127 2.1060323723048637 11.424999905230582 0.3747238875797159 0.6146371231037285 -0.3195809238589851
Ni 1.0239560206264335 6.099520178125743 0.8008193703791363 0.1789552077834015 0.4015440930963536 -1.2407333958869922
Ni 3.7677918216974327 2.0591097063104127 8.59734290709885 -0.6716443937267078 -0.8201487412194197 -0.6005629043988495
Ni 0.7913004281211945 3.846787270058695 13.347930060745957 -0.9890051700059225 -0.546168388808369 -0.5625509439314506
Ni -0.16844421368063225 5.5137654987785805 7.430066043326111 -0.703294673642137 -0.9000450006254305 -1.6396549637588345
Ni 4.656884573348508 6.33327143620201 7.289634531469902 -0.43229011602995876 0.6956512981642664 -0.00010644367087723603
Ni 7.689486650804163 3.7019128435815576 8.268329923638987 1.8709712016424553 1.1431379194290054 0.5832778920661567
Ni 1.258059523133319 2.349989449278778 1.58577661787212 0.13495283406052241 0.5614271147396526 0.07264009206422974
Ni 4.669305824322938 9.317514061169902 2.340155340951336 -0.5729651972862391 0.03518014744555877 0.5140635378540243
Ni 2.0073390445998225 1.653018225759071 10.253355210518176 -1.8214049606785534 1.6714463972378182 -1.142683091279774
Ni 7.059191590164362 3.748251525388404 1.7423668795034233 -0.3894164565948842 0.2719000728432543 -1.0199023738054112
Ni 6.7457867428169935 2.5131713165577807 12.597987763574475 -1.416391935196993 0.7449025789909107 2.1700015550435983
Ni 5.726632369955302 0.5702855870888577 11.756943006177773 -0.12834767003917896 0.14462609548422833 0.28279409404793876
Ni 2.433082056543546 6.7762558860654645 10.703996341952436 0.7636760029436718 -0.42530391452011274 -0.4015847165263019
Ni 1.1241139435956238 2.649489911207009 3.9793312875461413 0.4549975849298035 -0.11965965534687781 -0.4088126017333088
Ni 2.4666843213064626 7.542053817409903 1.8049922314312206 0.519119612220693 -0.5485487161150876 0.20295079936705046
Ni 0.9896029190508836 4.997542016117387 9.326703006013899 0.2992792361871555 0.6553739387014584 1.5065260702809282
Ni 6.05778848268777 1.6075416158482105 4.540855257902886 -0.28019727985504 0.2870960638574024 -2.0297828445984463
Ni 5.074516693797734 7.572337568852786 0.7316608112224001 -0.7896716556764851 0.6687837843494611 -0.11793161691217754
Ni 3.112496676074022 9.056955148005539 10.195126425259911 0.7711828528436783 -1.1551328870073525 -0.4939438842860139
Ni 6.783486166483416 0.2476806713891595 8.818687745545136 0.3826457135299539 -1.0879373629974618 1.0330432820627435
Ni 9.240075903975585 0.8032164864253957 2.5957160910370347 0.23929617076530402 -0.3709837038109933 0.4532996284020902
Ni 6.088016616588977 2.254864913831316 8.210181783816152 -3.2914936140680537 2.341221856076587 2.911996987690043
P 4.671326595003852 2.2451318440379193 5.967763148853019 -0.21866203945472018 -0.447006596304527 0.043127427317093465
Ni 3.677876795987008 1.8046872619110275 3.8075463135288037 -0.9357925905386851 -0.6067998864474968 0.42038308017972764
P 1.9984680467024127 4.3843771583139635 4.880477287437553 0.12856158582219795 -0.42516558917003544 0.809008151221568
Ni 4.814680808675164 8.532565156308172 4.91558864149796 -0.4585706469930425 0.2581942932213876 0.10470663358147128
P 7.534183935262672 5.642844543419577 5.790129990328393 0.07331654930596405 0.030389925145767018 1.8282682634572902
P 2.9982582454703843 2.941945484522876 0.626134868522395 1.0499205174340562 0.22192425514575975 -0.42444028096823677
P 8.81420311776795 9.13453234905405 12.743588925929519 0.5113474244744419 0.8286554931388502 -2.6533658640415525
Ni 6.66133150578115 8.006997926645317 2.3803130599598616 0.22953652027537888 0.7303385651338067 -0.033623344481400155
