# total energy = -340858.23158025026 ev
CRYSTAL
PRIMVEC
9.37709065317412 0.00000000000000 0.00000000000000
0.00000000000000 9.37709065317412 0.00000000000000
0.00000000000000 0.00000000000000 13.72432002176977
PRIMCOORD
 96 1
Ni 2.2915264940150277 2.753742039561785 12.332509388645802 0.0642994334090183 0.15508560025465548 0.41363470571230054
Ni 3.6920043391613744 1.0323895341650027 7.002601147977317 0.3807027308709702 -0.7326600141781319 -1.0711408602654133
Ni 5.902869100587073 7.063677889322043 7.400523610133527 0.06660082784868529 1.408012452884046 -2.5923296747648386
Ni 3.3349622408038657 3.5393546827068647 9.513080830043299 -0.6581962386416019 2.4913724809234705 1.644409190614368
Ni 7.857204796859752 1.5909077992760945 -0.021451032256608805 -0.14728127371888827 0.01478281473612938 0.9344880127946485
Ni 5.680069430007852 2.4110093813264935 11.524846517160357 0.2117509141571837 -0.27390604752968956 -0.26981567951039986
Ni 1.4132869507865489 5.920329243121521 8.50505672786622 0.9555821144607867 -1.2102866493613609 1.5955042373835489
Ni 1.1499407408308744 7.522151975754275 1.566768355169525 0.30353749724287726 -0.23477077209112468 0.5010177604136596
Ni 9.85672869231262 8.095983029672432 9.221027595192371 -0.49804813626237454 0.3053256994915516 -0.3682920159114431
Ni 7.516084998192627 4.557856745822717 13.860601933996135 0.3118663288235468 -0.5828670297809833 -0.4037732395371885
Ni 3.355488691935933 -0.13379607826988857 11.715408688266333 -1.1823536703965185 0.13299776721668063 0.604978516968042
Ni 2.2922485299844975 9.252778423668012 13.75904241749044 -0.005946447391422017 0.0043266523998119035 0.47029564873945456
Ni 2.903634831405591 2.146097197255216 1.270511370641801 0.637517884356644 -0.3758865404292494 1.491328022384251
Ni 6.5665514357969 5.581919423612536 11.728158718236305 0.7715785456202001 0.22452261200055526 0.2685553247407375
Ni 7.043760949073294 3.0898357177141595 2.0079642146232524 -0.4428792043997146 -1.0894928804100399 1.0405365051159952
Ni 8.177648110946608 2.5250254248691175 4.453953894397925 -0.31732503794527284 0.3838201934540293 -0.6721413879677843
Ni 3.8487330299888614 5.38423160142604 7.823164082880936 0.01989365360013348 0.849251572122647 -0.16682422884782236
Ni 9.03890574325678 7.759148561369562 12.196294958732715 -0.08038194079317769 -0.2943499172063382 -1.5606989567789056
Ni 0.37650331200734516 3.343598541165964 13.93581182616144 -0.5436803322791927 -0.15954954956328005 -0.7389491896209532
Ni 1.5477731829181647 5.476474040798422 2.9103385134130444 -0.01054460828506571 1.735546827262153 -1.9535300954822936
Ni 3.0988283475157368 3.2154137138588115 7.371825962328787 -0.3470912134641119 0.4524660767572014 -1.1440781718550876
Ni 6.914910348339748 8.00424695318773 10.28069602336756 1.677828903725394 1.730780259111445 1.4457670459250005
Ni 0.8620865671114851 8.895811342034605 5.917377335028157 -2.0964842025807378 1.1272166202130587 -0.4515767321737126
Ni 0.3533522132408032 6.837840041416742 4.276374305106635 -0.49430461005954224 -0.5359958191507415 0.8062534712945664
P 6.926153479864347 7.707330759196971 13.061682261704634 -0.9703479599160514 1.6500044253139585 -2.6225869309874827
P 6.12077392991872 2.8945859390609385 13.740925878620107 -0.8428161009099486 -0.7833716816003863 -1.2799835996368665
P 0.7288681176171723 5.511516228043984 0.638786159898892 -0.5754218863568477 0.4957071468340237 -0.06574207939281582
P 3.075995132117572 8.793882368162713 2.0315016495189133 -0.30633434326172404 0.6242710466490669 0.6459109935163456
P 5.677453221754838 1.170176502157051 2.988854767693092 0.5764729533291814 -0.6586400110472399 -0.08849428548766694
P 4.486253282668553 8.658148982992923 7.853179211902695 -0.9826851413251655 -0.8682769641852143 0.9908193403965257
P 6.159857643175209 2.0627442396887723 5.8930859820552834 0.41685758352497243 0.15436723403139221 -0.024406196758506353
P 4.115229942356767 5.976844967640922 13.584564769740716 0.7482568401751243 1.1686010966971163 -0.6042259550727336
Ni 4.395867507217664 4.389031608233984 12.107718024041706 -0.4148626645821306 0.22938765340234046 -0.3617110202598158
Ni 6.4916847451443545 0.3439310504028006 7.347849679597137 -1.1711927686836925 -0.6046833543251264 -0.7326857252097445
Ni 8.725401476149244 1.2694048739613149 9.557863001204291 2.4868126294669297 0.8978081408751118 -1.053754803578482
Ni 8.148138407103476 5.450677664798278 7.859931654780814 -0.5431373152915292 -1.2357837651912007 -0.6182374388604772
Ni 5.644783438408963 3.939428249426665 9.54205322660006 0.8289560550984046 1.5853602069710115 0.6306244996709204
Ni 4.086142207586702 1.896497801991003 4.553825534611352 -0.022289407525819677 0.30251239841247257 0.18323378055409734
Ni 7.532344873141463 0.7436726681184549 11.44089530121921 -1.037875156233748 -1.3424156408198429 1.0983063649366118
Ni 4.748427356310153 7.167960512912595 11.525175653037348 -0.2270219813836413 -1.0602758925264513 1.761867467434553
Ni 0.4866981911660873 3.8650397903902616 8.197289364734287 -0.028471110856499355 -2.4986309622580967 -0.06074822572265022
Ni 2.045105932434584 6.671321668094107 12.754724141483937 0.488943602857945 0.3435227793865632 -0.29973149323322573
Ni 1.3816486473970586 2.4767240316387484 10.255003733072103 -1.2806446302596333 0.1620142090536887 -1.0205778026058812
Ni 5.341406429055026 0.004477560719763379 12.87317836196617 2.5248279323684386 -1.9159068858128812 -0.3224754717979607
Ni 5.510447239725549 6.303467784375578 4.2610305719008785 -0.21479355763824942 -1.27921432557101 -0.3944043967277788
Ni 9.840506325725833 6.858760330350338 6.799233622067343 -3.143578820530225 -1.679187731746134 -1.9266281288851275
Ni 1.6456418765981027 3.6933640172857003 4.392083851195833 -0.33396958848048935 0.35641197664440555 0.6750282225972761
Ni 1.7815909348496826 1.961771729049166 5.882422354724363 0.4844331165821012 -0.06979310953373787 3.0577214584447727
Ni 9.117232580308475 8.975347823762423 0.38095555458272456 0.1416677841868528 1.2775238252424643 0.6432416742142987
Ni 5.731484017288403 0.08297506081878578 5.008224337506812 1.0774770868960861 0.9928086029124128 -0.6706689171873159
Ni 2.620015351761689 -0.028181907826548395 9.149757018751405 -0.4247516415610685 2.021031066547745 0.12041761655882487
Ni 0.49148800899992 1.0320613359970616 11.935121420648807 0.10735409850664737 -0.635238344293848 0.9503537761823116
Ni 6.8265500244395785 9.008842791073405 1.4134126037994177 -0.00567982399359667 1.8706120185308237 -0.3698986982769307
Ni 8.240634027919699 2.901796921665123 11.888129069253997 0.2674260962323007 1.8899372012219966 -1.451602678770171
Ni 8.165861108172278 6.718160235204511 0.5924886509110642 3.52491481410982 -0.6185246310835928 1.307439381854974
Ni 2.678462756926684 4.445219134585444 0.375407130126423 -0.5065435753278953 0.29417893884611274 -0.11111048022528607
P 6.802985395981431 0.6367382033309414 9.392498947723757 -1.5372682365597912 0.4641951922686715 1.2411697120934626
P 1.601072565391746 4.552333639510799 6.447479265049886 0.6439050188299105 0.5043864197755765 0.6277075831344415
P 7.930505513396696 7.413471496713317 8.090760927965968 0.8120186559131176 3.236166302250659 0.6864601185833016
P 8.138367478789354 4.146343128677553 9.580068889247164 -0.2898790259191782 -1.3887510335512727 1.8166664175523035
P 3.3843138681716445 1.711140853828568 10.624682398604383 0.5924217633489539 0.09925769465175809 0.4321019112785526
P 4.6083992636855955 4.3785855294029545 3.524720795252912 -0.2558363345121723 -0.19825699343580697 0.2527335272171325
P 6.725155544726906 5.282143217015435 2.3632040361842406 1.4517253203909644 -0.1802556717623799 0.7307394001166512
P 1.4655548533037452 8.56293400592805 11.098679320671163 -0.9206176825704596 -0.7750058261341943 0.4893169270369637
Ni 2.2096644938400867 7.885561118569835 7.335442851139924 3.746257999941129 0.6180667176105678 0.9655399970044468
Ni 8.949720235391505 1.5626077401090874 2.409043943155054 -1.6692339629675315 -0.7175388422659772 -1.9800332839791448
Ni 7.866291197566455 8.29870634946419 5.9141253600383905 -0.05577314110556201 0.45691382811590986 -0.2919526206187552
Ni 7.352717327282224 6.089398185063582 5.450585769311254 1.3635717060721677 -0.6950393756118805 0.3595662060026711
Ni 4.287805916150537 7.855741970739788 5.7462079248112765 -1.059988957413652 0.30177937690118994 0.24253730341042098
Ni 8.51459510433563 1.3364323169453332 6.5103648471544915 -0.14728178793952054 0.4081703401636196 -0.2851908764148895
Ni 0.38864851963925623 4.951600776446516 12.035432846407275 -0.49643862568340963 0.15939039827759646 0.08808265187154507
Ni 6.999435442220265 2.637925594640743 8.165092186750245 0.4448630675989628 -0.6904242454373721 0.8809635585139474
Ni 7.520782920539436 7.483124525040861 2.9739095608341204 0.5207445494186257 -1.1548773193531208 1.054064878619733
Ni 4.8684541148713505 8.993464362632752 10.165932625711083 0.9527194482010107 0.7396379881578616 -2.324034545664023
Ni 6.053136976051383 6.858000786018818 1.11566372417114 -3.9512320003857955 -0.8675711963674414 -0.031325549586158956
Ni 4.861974545327148 4.5812619637421506 5.583382249732501 -0.532136079085019 -1.4553251219270806 1.4743042341327446
Ni 5.932828904774809 6.338735021793442 9.421155336330242 -1.465206899817167 -2.342508950319127 1.2690646387315176
Ni 4.953466817458523 4.346337715130145 1.3926751681308174 -0.24476876384410107 0.04071187589706537 -1.139062463808051
Ni 9.179252656958766 4.194372586283056 2.450298452865209 -1.6441749631163747 -0.673598175018969 0.18032354888583782
Ni 3.1437446110710594 7.081391213300331 9.551934804582231 0.6849187422381107 -0.5174247410167734 1.0076040160540323
Ni 0.94459183569559 1.4292186275674452 4.052462511592621 -0.09046837849490226 -1.991916922790608 -1.3772713150464475
Ni 3.603578375627618 6.815466303453694 1.9142130013873944 0.04565610727621815 -1.8546948330799349 -0.7252768343401832
Ni 2.771033394467007 6.7429345083387835 4.259026687658337 0.9584887465846202 1.313653481085486 0.7783888836738143
Ni 4.876040181096038 1.8644281524379331 9.005445471180693 -0.051031255545202436 -1.548956471530997 -0.2072712811192753
Ni 5.226499561913706 8.027614662745112 3.140742066688927 -1.2388217806865762 3.2650305347805184 -1.4269249735178329
Ni 7.60670520090633 3.7824182458838003 6.350585788783258 -0.3278735028850805 0.5460087233020532 -1.7747998592255045
Ni 8.368068687985845 6.268144284414638 10.141105840869939 1.2259359258628435 -1.014767366571691 0.24124378140997807
Ni 4.202840099015928 1.7576699769520565 13.321827132959307 0.597574511194487 1.393624045372858 -0.8776260095002821
P 9.000281507435409 8.71262050178058 3.933801995119109 -0.3163243645949003 2.6748708279928644 -0.27983321164740194
P 2.65971795299201 3.8389433474937134 2.5022175276153367 1.3296598838160714 -1.1377388599006213 0.11991136634636766
P 1.051546930082231 1.4520237116940728 0.8571823487733988 -2.330479529958419 -1.460436732122033 -0.6174625083676656
P 2.4834192742647403 9.277290138267931 4.7785062495474 3.04108924920473 0.311554968230715 -0.9152908710409077
P 0.8501514063070561 1.1056058568873324 7.718145357685145 1.057645653992456 -0.3617405879461706 1.4711366350380406
P 9.021529994536944 4.737034191337353 4.625013592655809 -0.8165114015771486 -0.6962894459688976 -0.03237687366880875
P 2.0629505356800495 5.240171359881067 10.685563158757397 0.5521379761282427 0.037404151680071065 -0.4808826802266815
P 5.932538214968918 4.9297240242806355 7.430552804791057 0.2013870544243564 -1.4395627168865013 0.5480805182294174
