# total energy = -381172.0932157924 ev
CRYSTAL
PRIMVEC
9.21783217573345 0.00000000000000 0.00000000000000
0.00000000000000 9.21783217573345 0.00000000000000
0.00000000000000 0.00000000000000 13.49122914194071
PRIMCOORD
 96 1
Ni 8.562130725371725 6.391368164031188 1.507752481877257 0.1275089761879675 -0.13949134536082428 0.4709371389781954
Ni 1.3505322177433425 8.52475241666909 10.770344416287585 -2.7434773734176683 -0.8656523820781737 -0.7664563939022864
Ni 4.452056146023444 1.6594494210852482 12.951727763642225 -2.962277738222466 1.8624883609824245 -0.8143807283873911
Ni 3.9012353778767865 2.2997384664865983 1.9027623924006365 -0.08089410454290584 -0.10706253540815755 -0.42213888652856973
Ni 3.7967235988211803 4.819506582475519 5.7427839916257675 -0.31492028515852216 0.4645296927899548 -1.2095970794935038
Ni 4.860572023972495 4.140769959861173 3.7749538450201903 0.41414764079297706 0.8959533470545603 0.0070113983208266355
Ni 0.4377520756585833 6.627897732788186 4.893835492476646 -1.8685245398741754 -0.4243459214822176 0.3560203976329417
Ni 5.609382605343298 4.894438338688521 7.312664661087676 -0.6278459084845187 1.4968360966866736 -0.262547942204393
Ni 7.243492206299435 3.099311648603496 12.519941468844886 0.5391029973211554 -1.8286868390519473 1.2573416938676345
Ni 3.243589154846074 0.15766917255162563 3.640338470265184 0.7692959202336105 0.0705001629030915 1.1078194466333693
Ni 5.4398666751234535 4.002576222729259 1.4756569126857142 -0.7600453481696201 -1.196976562516016 0.12799851422987632
Ni 9.160552377893328 1.125488067640717 11.469325241509264 0.11559936923457512 1.1592435667416165 1.036469534135473
Ni 0.32795663530868596 2.7143104600503563 2.9315498718105597 -0.19043801161202042 0.3542244820747835 1.7235081509300643
Ni 1.7463182697199309 0.7619690365306085 8.10528759788724 -0.6086325687808614 -0.013612448577112041 0.3255433120900071
Ni 1.9572591368842005 1.6067326399581523 -0.0669555661956435 0.7445480238649693 -1.5973762575952812 0.282050788124011
Ni 6.622182676956957 0.45967023655454553 8.828079926694773 0.5648063156245305 -1.366291418996176 0.5845104789216773
Ni 5.051399581743633 7.509260738115561 8.215982698638959 -0.7475467014819771 0.046231263053397795 0.45542155984109955
Ni 3.128578265158581 4.984505775022294 10.521404880328033 0.3787042123837026 -1.2509810417569294 -0.8023104274864182
Ni 8.603693929795938 6.727560932219234 9.33226030855941 -1.3041244585491283 0.2900770008625972 0.16621076363353957
Ni 7.693138050569366 4.845150591060163 11.25654172973102 2.4301246898565827 -0.5749943119011258 0.31299092934629325
Ni 1.5436365800149858 0.8553816240920485 2.1679594186336395 -0.7424965406525793 0.8447143463739258 0.3836913811856488
Ni 1.0283597720057795 3.159494873639133 12.220516788882012 -0.7981341846215416 0.4165135699219924 -0.6600967980984245
Ni 3.4432289599956873 0.24520815757167982 6.221426369973597 1.4302735782750915 -1.2354436082429625 0.28469722460792257
Ni 6.320879402835366 8.518475073086723 1.5761534041282823 -0.579503255515073 -1.4438040086613586 0.7135099236122422
P 2.526091548731215 6.576646586946842 3.9490989704633304 1.0726711808670106 -1.194769270452052 0.3333702643335936
Ni 2.4631890632597515 6.941405416459046 6.161822024786671 0.2955783902968006 0.3815519662451429 -0.09183954781081603
P 5.049159648571071 5.549457479603265 9.453129130473911 -0.39002375116157995 0.22990393091712663 -0.010151229501388968
Ni 2.8235141155867622 2.944682517040805 3.7582916919225617 -1.3674437874330643 0.11669105963685708 0.6320164949224406
P 7.550280090452609 0.398779082022395 12.99829993796755 1.5652696068687237 0.2931031892834307 -0.010199823351137272
P 0.7123835529291072 5.570971899458248 7.5299132906798665 0.860008553528835 -1.061504879837546 0.15985499661884084
P 5.5621412164157995 0.8649202366310097 2.8902797944434964 -0.8139796362942304 0.7869306025962383 -0.8502738427395743
Ni 3.2830506935775126 5.651655582830421 7.903485289353746 0.30025188451307 -0.71718865801541 0.8320262093832962
Ni 5.2188968067585755 3.6251613099004762 11.431333946979567 -0.6346837573419585 1.1737271050697722 0.3516320387572589
Ni 5.446383682337451 1.3518503677173195 10.880635775998323 0.34602343432122984 0.09137957745526198 -1.0703415042925695
Ni 5.126285248796707 8.25105654934513 10.52700379147624 -1.1352335769802642 1.7679355280055036 -0.8743360258951007
Ni 3.591405609168281 9.29148246342039 1.3043416616622308 1.4306335327176716 -1.239352970599698 -0.7103130139414993
Ni 4.880021649462646 1.9135113062793403 4.649846854076695 -0.47430811233295733 -0.5608815266488276 0.5096808354052964
Ni 8.817888691651214 0.7989205596122991 7.164314716673749 -0.8680468504522791 0.29880461054358215 -0.6321697326708532
Ni 4.36798951831246 7.123872400619015 2.8894566420471604 -0.621672175573639 0.25741961983889217 0.6980002580124173
Ni 7.859934720353383 0.5552066126055262 3.4408701167905074 1.9156757436386815 -0.14395349489723597 -1.6811541114438855
Ni 6.452049151994061 3.731525873185239 5.5710143014853815 -1.323060890442315 0.4349846321429863 -0.5153058949015578
Ni 0.7954177834576748 3.9011985065488433 9.457675365209337 1.3445589124150907 1.3134732467538799 -0.20914612954448494
Ni 8.7317572695754 8.652087547721669 1.3243978204970508 0.3071239290425549 1.2321065734499297 -0.7331125283345181
Ni 0.9207443489205366 5.201346054657511 2.959652276185831 -0.3685429555799846 0.26687947970021136 -0.1527602945555885
Ni 4.761646251100316 3.29917268172077 9.063677572638003 0.6798922355577969 1.0823102466186716 1.4865460276145752
Ni 7.9930309963971204 5.103719996095338 6.534922070462875 1.135582732789567 0.48560682517522824 0.8601862167572798
Ni 7.718745187826066 8.614266783083712 10.943329016683707 -0.3148966310094383 -0.4966306870895576 -0.5694404719624322
Ni 1.5594267262067527 6.323635534599137 9.504463236803131 -0.6067644052238711 -0.958736343819052 0.26997508790639957
Ni 6.5279579983975635 5.929877405659436 4.808826802336709 0.8136937296226954 0.3362193037466145 -0.4773003621920618
Ni 2.9882275553419766 7.881117298256874 8.97093880859473 -0.10317245632513199 1.6624475361733173 -0.24259875277597578
Ni 1.2058675625573587 8.947417666716426 5.352780285653904 0.4199969004849025 0.7619865310563909 0.17522145177258208
Ni 6.989743727392862 7.173326069223119 7.34015961033508 1.2508028643078524 -0.2786425337734105 -0.550785061644774
Ni 4.380756215612867 2.8934590246954177 6.81522896688709 -0.5119907144853957 -0.5603418520952738 -0.40469677979272234
Ni 7.13077655677642 4.760641507413859 8.996518292355471 0.4712078761410788 -0.6812636619840268 -0.037704970749941516
Ni 2.783849784551635 2.4023698078170908 10.607033930560618 0.22501832069005118 -0.409020861089373 0.19998760297366847
Ni 1.8813502904806976 6.536650413960222 1.2985805166710727 -0.2727809327863108 1.0307220901287344 -1.3023252005568604
P 1.5810333243815933 8.589443161545809 0.5776916701686183 -0.17151212124179496 -0.05900424644834999 -0.18203230404682844
Ni 8.49462854173932 4.388038302881692 4.312026216759946 -1.8721999318432336 -0.49396136778751054 -0.13324922110585438
P 2.763994574454106 2.8306948067037414 8.419066285818486 -1.8263311943355771 0.5300815105488355 -0.8253056028300109
Ni 6.726639149020648 2.7828542586971623 3.2576325218765216 0.14254324481327063 0.1636121496684279 -1.449167329855801
P 7.651565628313167 7.297296691600861 3.247797095147616 1.2711253779152882 1.2395347475932006 1.158616988901211
P -0.23380016870598763 8.866402141392761 8.984537876123458 -0.16618788081540414 0.41119729991540144 0.7998889625291191
P 0.43219003583831933 1.71379775847384 4.945061750171629 -1.175988647410439 0.3661767693406532 -0.4111919005987628
Ni 0.4268141962241696 3.094721168274541 6.864161827983993 -1.2870834439064414 0.9714712748872172 0.8802899294856903
Ni 1.1799838903410826 7.965386718271546 3.2191821793139312 -0.7226697357346392 0.8047264931270786 -1.7924147440937905
Ni 8.739509466275502 2.1323242019595288 9.180457364283582 -0.530780336388073 -1.6798729307386169 -0.25288470808301605
Ni 6.5079092138283325 2.374347598580096 7.6427137442571516 1.0661364650722864 0.656716825882598 -0.6747335741749927
Ni 1.5162964903449445 3.8694615110215493 1.14905437689575 -0.5795564773505115 -1.0665810088088727 -0.5455718928749507
Ni 6.518353017468304 6.531746527343749 10.76624340283708 -0.2628965837930633 0.6980403672217332 -0.6717780910910947
Ni 8.774657059637562 2.0463771365234313 0.9165188947382213 -0.11981906374287751 -1.4822517711145955 -1.6770020369487249
Ni 1.4106509179550786 4.4937391822634725 5.112419785923585 1.2986711487440408 -0.4141502118961384 1.2554943562462506
Ni 9.076052512079011 5.069180779644344 13.23411328117925 -1.0080529306659929 -1.2187653762563333 0.8461965873464071
Ni 2.2567188446086206 2.139836735027999 5.9704082129012335 0.597410731923113 0.23120979421274374 -0.3131261693725769
Ni 4.388489976648998 6.482191462587801 11.698757079637156 0.8037273624386029 -1.4752953944014204 0.029433217659452535
Ni 4.023860196784594 1.0702732540454551 8.55867403837703 1.1686116382200777 -1.6593529564083938 0.5943074104074411
Ni 2.4877822389980087 5.352702855865224 12.740118603658981 0.34635947750441 0.23272417397474113 1.1071779563946287
Ni 4.994958796494252 7.156033416417658 5.830882499047363 -1.3586159047287891 0.755186477415422 0.6447527115421864
Ni 5.510659624774807 8.968388234484243 12.778703526568563 -0.38225516295975454 -1.7752575155882133 -0.5870723261115824
Ni 0.1424634369077618 7.600010294016288 7.029051328330137 1.4073879319261697 -0.8579277597404064 2.5417378207499
Ni 0.5000904298125128 7.079258093807485 12.431695476111516 0.3394041292324994 1.2124245216399698 0.41327655104193334
Ni 6.349869484430876 5.906565508567213 2.407105008108224 -0.5740278342227985 -0.5522824721259069 -0.8886133617497212
Ni 7.917684437744755 4.06841919660421 1.5394304832798409 -0.2788358807311392 0.2147483062226108 0.2118828117493577
Ni 7.233970185858049 7.363978488186526 13.04381943588009 0.5917108533248584 -0.8559870910742677 0.024037500565177956
Ni 6.0944710135988345 8.491678835503848 4.18032459869567 -1.499202282926005 -0.7021939843787907 0.678462959310438
Ni 7.357074332029121 1.858499284987767 5.208477891264966 1.5839820956765622 -1.842299030518743 2.085685826413653
Ni 4.5868669388165495 6.8413735037485655 0.49082005618434 0.4887458850248421 -0.2104473648544118 1.1606736143199234
Ni 3.18144253159745 4.956981328712536 2.32162436497061 1.6395832299806345 0.02609078354978087 0.372872436193274
Ni 6.146975784590256 1.5162872725129588 0.7401006519273698 1.993766060184205 1.4556861048109253 2.0416631409758
P 3.072211222565087 0.22583043117101875 10.569339450220868 3.213488915257801 0.7561434420120526 -0.09846090978207558
Ni 6.147814607300968 5.1681526416764525 13.32462593879794 1.1757490205958074 1.0089679862810945 -1.5020176408876131
P 5.533068174332418 0.19231808120325003 6.926990570799569 0.22551197249701807 -0.06894953058651995 -0.22545515111715367
Ni 8.036548381202334 8.472791497764835 5.575871177158728 -1.5579609890224524 0.2644032502455769 -1.978570069170057
P 0.8261776887944677 5.06594532061731 11.375844441991127 0.0063899626867438344 1.3793310257889533 -2.353118093293541
P 3.295937222693736 3.4474138557172647 -0.049797493737175944 0.5847665607965413 0.020622047125725775 0.005195685268326536
P 7.05970707216549 2.8413414026474024 10.202808953400982 -0.9228128904495655 0.22692119413971884 0.4617930105850821
Ni 3.166555732940297 8.077613822699313 12.669262050966925 -1.4609218992885677 1.2300720595184043 -0.7924209362868482
