# total energy = -340868.07847189123 ev
CRYSTAL
PRIMVEC
9.31078752142857 0.00000000000000 0.00000000000000
0.00000000000000 9.31078752142857 0.00000000000000
0.00000000000000 0.00000000000000 13.62727868643670
PRIMCOORD
 96 1
Ni 2.422108196326527 4.82827632487374 1.2859491397579088 0.21692320238674254 -0.34075164439932926 3.0663937894077895
Ni 1.2101509517995994 3.8795629683868667 10.729069682196968 -1.0191865786853094 0.4104429382478802 1.165424755851664
Ni 6.859080065264944 1.8254263951364549 7.248076377039933 -0.16304342164915148 -0.29341840653100437 0.42038333729004373
Ni 1.7017139648889321 8.622049699499737 9.568802204190861 1.4435574398681912 -1.10798811100075 -0.5286041546723605
Ni 4.793537777628048 1.1327503773548295 3.0865101464531026 0.3951307333708421 -0.6415046369185339 -1.0281671849173646
Ni 7.349693378054341 4.592480637659281 10.49649273413631 -0.24522642020680996 -0.8656418405552124 1.4490660283912464
Ni 3.408893361896122 3.755412931138393 9.003433511615633 1.1853993992013778 0.3387574967874359 0.13626538222435886
Ni 4.952081862993806 3.5340303425935486 11.284135988675342 0.1551532202677973 -1.7909253040324578 1.1892881927328227
Ni 8.576892381316515 2.9523947736063807 6.048875842130084 0.47229956654336075 -0.7113180581672459 -0.04548152937156683
Ni 8.269571226414731 8.62661198525433 1.1820696174407124 -0.5951905843433426 0.8428595525533742 0.41104817593204696
Ni 8.19482422633743 7.003667280536547 12.866399070643034 -2.5173658196634388 -0.3287584765931951 -0.8553312026578237
Ni 6.895727323897762 3.022663285014378 13.304270497951876 -0.2998050267836385 -2.471034797807383 0.8737469861608501
Ni 8.109583969024563 4.783184182201297 4.4225699432135075 0.6050589924969902 -0.7558292532057435 -0.8469715178392188
Ni 5.0255625960045265 5.683984227477683 7.916004322299702 -0.5944408506615116 -0.5486970687674938 0.42142180585688715
Ni 7.000669207040671 7.108255353763793 4.452168004816116 0.12014430829278018 0.1582835383666629 -1.4250305847085973
Ni 1.995227222292628 2.8208612820652688 2.7682320571104917 -1.289399750744444 0.44301727263947577 1.0415351215838384
Ni 2.745136649326268 0.6023902448556673 12.443081334891344 -1.9990175383911313 2.872036645247021 -0.03973125715135093
Ni 6.444191385214548 5.072284126446467 12.83321635594753 0.30023722922505064 2.944636885212251 -0.7932490886150985
Ni 0.2812453641174661 7.690775447540117 7.394856282709917 0.7906067658962449 -1.6184359064790579 0.19516112811930258
Ni 2.9137829388629113 2.107822572558549 0.7536728472418173 0.9643719448382747 0.4972734628798791 -0.8723719601901944
Ni 5.092330251404916 0.179591119954041 6.274843993397658 0.5148937470648036 0.7886401290881773 1.4547908466901656
Ni 1.5235613615656762 8.115151819802616 4.7008116473627455 0.0019368120113966644 0.13755221935658246 0.3156993294163918
Ni 0.6056574001031917 1.1297429930716993 4.260200986443695 0.03014747011765776 0.13715498391816378 0.42456600791282373
Ni 9.260406584439934 6.5880151159313 5.317200660855212 0.11884641541696306 0.19042824142000753 -0.2060410082566
P 4.143235152640618 5.466474926430615 4.969186710258629 0.053559421283694855 0.8476649443618175 0.24890952548535197
P 5.776319304678306 7.329591388372366 13.271606394106435 0.17713923762058525 -0.5535790794501434 0.29128567645871767
P 8.747652219559876 4.524884322193261 12.377984034724369 0.4490434242288976 0.1713750814432984 -1.5440670046491796
P 8.992060384984537 4.974539481851111 6.733265259255407 -0.20349098814123665 0.2558211650035207 -0.19084707412498103
P 2.5960430130235976 6.710535765410276 0.24908869817738408 -0.5564733702788028 1.4280984250006437 -0.792414508528945
P 7.2026481149476105 2.601368783333042 4.354487604652814 0.7181777614015566 -0.32582304811395496 -0.35890954625527866
P 2.501305752711372 2.620372100119013 5.0670579815606445 -0.35011354523020344 0.39318492249838094 -1.0651594458709979
P 4.822661920159414 2.608975696519783 7.248812860311746 0.12570611865127382 0.923061773235578 0.711602165066568
Ni 7.3326825697407845 0.6080074428061701 3.278682002145117 0.39002477960284443 0.020697894668983707 -0.6702775952861683
Ni 0.6825151556510374 3.0161457339363866 0.17165739813467512 -0.5328487888813275 -0.10608603042750117 0.019907537557204424
Ni 2.287893198056185 4.654658074943315 12.77936183139009 -0.441406219398614 -0.7320612042518683 -1.4703966715482224
Ni 5.324243340334344 7.1213649422178085 6.131103128687469 -1.7426338160159212 0.07197623322798571 -1.2982260907868224
Ni 3.377180820508069 1.0647630088241293 7.787744503557192 0.27062403434430815 -0.5434957270722124 0.5328253918425598
Ni 2.0532334268867474 6.190034825534663 11.102634295176726 -0.48103848907825547 0.8741560486738107 -1.363284256738736
Ni 5.065291725218508 1.0118963587943683 13.11355671154388 0.8418781624767113 0.23726885592263008 0.23627563877142535
Ni 0.36945855580062287 6.906481283176447 0.8368880083268805 2.0630331220111437 -1.774082778553822 1.1558957333153062
Ni 4.312449400199772 5.895730151214354 12.044592675510623 0.22939048161581785 -0.3721720676921397 0.3452341056507151
Ni 1.1522844090142939 4.477995197580743 4.8863328077190324 -0.8056996556736252 -2.586802317188706 1.448552064869305
Ni 1.721508698591516 8.069752421150783 2.3323903814230804 -0.29391951453713894 -0.7829433358137162 0.5089295590615687
Ni 3.7087751977817405 8.15985290941038 11.92411388167651 -0.19242316036284923 -1.0673664808246457 0.8831546526279951
Ni 1.0817738171376858 4.303380693414111 8.477488554432448 -0.3576875009227195 -0.9784932147310051 -1.7068224627442672
Ni 7.742617910971908 0.12179906346676969 5.43968220502772 0.2466888636849493 -0.3727857900167386 1.584293456269394
Ni 2.2521490857870314 1.9620063333693825 10.025997239367221 0.686728798863656 -1.5642622486501316 -1.1211097359843725
Ni 7.249202051218974 6.40621268400437 6.938287863515769 1.6122935410267458 0.1348643881117742 1.1113207749184086
Ni 7.689499869686282 0.5263490453500214 12.35201066259985 0.07611879464144956 -1.9444067930247868 0.8188410781515898
Ni 3.0732487921668414 4.089828476950109 6.6639436549111695 1.1416461653748273 -1.3846524380018668 -0.3924166768737887
Ni 0.025769465883650842 0.5600373357934313 7.799599928968057 0.6059619639272338 2.7571397013961096 0.7166525830062819
Ni 3.5184906386661674 8.958467064571122 1.0263522870853523 1.798454008309335 -2.057220886204741 -2.525206912974412
Ni 3.1968588037545675 0.48639831939938766 4.757828115271735 -0.29252006308645107 0.5267010241123767 0.11301232523368925
Ni 4.518720581030932 6.290935827009217 1.26380157011617 -0.06370885101287092 -0.8805015312758643 -0.456582155808104
Ni 2.6874283899242855 6.265666350401121 6.514425446709704 -1.2348080315414929 0.8843530438114705 -1.2080950410266806
Ni 9.184225723125476 5.9976553392868786 9.795124165374096 0.14909338722696258 0.942526823938725 0.1899191629940729
P 6.338737408772655 1.8378935392699258 11.292066917258532 0.003869510257735271 0.06976919827433792 0.2888896654227153
P 6.476667411157452 0.7976318671054154 1.3032420649252696 -0.07761106291625987 1.0368310312399498 -1.169137943037193
P 8.909203689208764 7.881758315699761 3.4418284096506615 0.003861539837935285 1.2484222798908178 -0.29555833569214257
P 4.018256455326514 9.210938371757983 9.570492112077511 -1.5444490705789466 -0.027169104215624174 1.5579090527385944
P 1.7893098513771306 9.20831272975228 6.542469537919574 0.054063357503306896 -0.031573146820590786 0.9469668619879498
P 7.5540465367111205 8.872742646321033 7.667278744825234 1.0027425741966731 -1.1349962641584777 -1.5970255591240818
P 0.5124638683177243 4.645598678944907 2.4007445949715986 -0.10757495626820184 -0.5095743917344192 0.3527103594231022
P 9.150632402712057 2.4988663264507527 8.917868307827591 -0.27142853252347443 -0.47821670335874417 0.802717947337482
Ni 8.44223977604522 2.593724626997284 11.537644517562331 0.46746692104140786 -0.13164356718163134 -1.2368188913239344
Ni 7.390269788908462 0.8158633196280071 9.584119380302864 1.4445575989979316 -0.021542502057466124 0.6657650521277952
Ni 8.276619492366217 4.839309607770053 0.7289247747199602 -0.16728625608590544 0.7064237061894222 2.5843497418831554
Ni 4.001413241183535 7.010231385550809 9.98587891924601 0.11920534141827857 -0.8207478082559995 -2.0271022124424896
Ni 5.124852831284092 2.337547626483222 5.093031353685163 -0.42764079018340545 0.13745657431898262 0.0022134627115510262
Ni 8.127693450234123 2.7116364367853945 2.062884057875801 -0.09475826411950777 0.15367586439132244 0.5632163454295913
Ni 5.926157803961318 4.460016067392742 3.9708794454618728 -0.12006743230825774 -0.1652316875497219 -0.4100760418267647
Ni 5.824912303358355 8.078523182744307 11.189480663290954 2.046723843328159 0.6676116184182309 0.3311094933238749
Ni 3.8943019446103806 3.9289194516217667 3.448314304051988 -2.1301628257801055 -0.21049775847637295 -0.017333091961808857
Ni 6.736773563892816 6.543146432152959 9.48337293789673 0.2517020006288246 0.7659141482455712 -0.48501392878623567
Ni 3.924422341377953 7.321658597631726 3.4666025523768305 0.6208553360992985 0.692595284946762 0.48582228362014396
Ni 0.7803231135997223 0.9848019678844346 1.7839738392017068 -1.1601323971044728 -0.0060965998160411134 -1.1253386864640555
Ni 6.176189684887559 4.319358004342443 6.183704421280483 -0.17193506771182648 -0.3196678271458366 1.2648652559381892
Ni 5.717344778209742 8.070190028151734 2.0419524770494704 1.5851712308886572 0.7154143397238065 -0.16560912549379866
Ni 5.152598977301825 1.7722431783400485 9.375158313033946 -0.19584709844273368 0.3725441063195778 -0.13918255587115386
Ni 3.6200247736740123 7.939103454398827 7.732935623306189 -1.2440092384247865 0.1509425246205594 0.0935094793140712
Ni 7.614706315672708 4.089940206397161 8.247596837415921 0.5932781978119783 0.0521226888371683 -0.3139810611737044
Ni 4.517398449240826 4.084037167277952 13.556076083850057 -0.7644146808819093 -1.4640018237654724 1.365823735331138
Ni 1.0133115984570178 8.043644973689801 12.312096248719508 0.16982959133304945 -0.3061667073356082 0.006674583806698183
Ni 2.215399408494417 5.912601297719097 3.7836823433998164 0.10437573260461379 0.5138671055725021 -1.4559591559666538
Ni 5.759150212981427 8.612627182798413 8.478592813800804 -0.9426134701152605 -0.8329520636316751 0.5990536668431747
Ni 1.617414097088746 2.202429481849215 7.043040737677416 -1.4110810645070408 0.776940581263062 -0.45111753314910696
Ni 0.5389958876775002 0.7207638696915901 10.92388487039047 -1.5197479682878408 -0.1954940859786891 0.01648334236700387
Ni 5.526222248241283 3.0330634343774 1.9866389521292867 1.0965567292353569 0.2338606015720295 -1.3967487070447686
P 6.7875825299393835 5.592896795769131 2.5052255941454207 0.22962985132013358 1.2560049773340822 -1.4017106790357345
P 8.31920703326726 7.828900976457254 10.888167759404354 0.06492241170499786 0.5859053023866748 -0.7419422108110061
P 5.320137283155209 8.756758169494557 4.3939662736896565 1.133527650032751 -0.7759645905030378 -1.1634385786595707
P 0.604130430993491 0.7419980511036846 13.118040786685537 -0.5960133373549542 0.8846145250029732 0.8425263375836716
P 2.9887720194088243 2.794316227603337 11.847787772080883 -0.270327843260128 -0.008445302553875777 0.9280929079015823
P 1.801581468978262 6.258487733428077 8.574147561233955 0.5861714115638679 1.9965832179180263 0.8232664609127951
P 2.760173570741919 0.6473147933575337 2.5366364660264353 -1.3059566266618605 1.6265086561848634 2.0376897581503486
P 5.150187483402968 5.033811953511812 10.009385863826873 0.26572428304984563 2.0670394149570592 -1.6431701760009443
