# total energy = -340863.547643414 ev
CRYSTAL
PRIMVEC
9.35789121979931 0.00000000000000 0.00000000000000
0.00000000000000 9.35789121979931 0.00000000000000
0.00000000000000 0.00000000000000 13.69621971031988
PRIMCOORD
 96 1
Ni 2.5003911596784714 8.628864902108266 10.933076289968989 -0.43480619758359307 -1.1645264124071106 0.6418283388065398
Ni 4.435397234679576 6.8753925630410935 5.688533064007468 0.20973979726442588 -0.20230802357672903 -0.4990837766157405
Ni 7.631669275086689 9.289915710918454 6.12370308937659 0.555291948376192 -0.5675278283207517 0.01912617930648964
Ni 4.015536719696964 3.555343692632531 1.078424932038707 1.6309795474720234 0.7701672670949704 0.20990589052864492
Ni 3.0734309995490943 1.4974872188819734 6.656116579374355 0.9834477305228029 -0.12694539037501362 -0.5358096712818643
Ni 4.418496882749235 0.5625496435727755 3.7835255815772904 -0.676425617165435 -0.26295931871019873 1.3497525408008881
Ni 7.586517448916205 6.607157962968399 11.998504982383745 -0.2873994540304341 -0.31454259010412927 1.6228183518174697
Ni 3.4592475054937335 3.0615932668847083 4.736564126287849 -0.8350326003097878 -0.9097876818344911 0.7375134856156911
Ni 1.9698267890281238 2.295312968895849 8.652956793605865 -0.8858144588483455 1.518719012802694 0.6718390262360172
Ni 0.8808283754578046 0.7360515012886494 6.915234721611757 -0.6951651025564672 -0.21691086109156835 -0.24441395160784357
Ni 6.967006320182863 3.434308724821331 7.108530391289456 -1.1213136244650623 0.10308915258270633 -0.1276886962989414
Ni 3.2542161041682816 1.0559819010118319 1.303348403186044 -0.20194884046509737 0.6692836068040151 0.6523536638178958
Ni 0.7646800985535948 5.748402981825815 5.516851316175564 -0.15299452205358166 1.0490903082232772 1.1919042901994312
Ni 5.922038657389199 2.448511009566728 4.642319865863898 -0.052217305433503614 0.7686701137241536 0.6938098740801535
Ni 8.19547287611166 0.8742020525331787 0.2591377938094143 2.060703188326386 1.6017425049837768 -1.0410471262038263
Ni 8.983716145296816 1.8928487740895954 4.819548971738053 2.0500953309035532 -1.9638445900344241 1.7716502578529296
Ni 6.3699166993260965 6.722231953935951 7.565312466926088 -0.04318553424853853 0.6043395978324625 0.15885046661372643
Ni 7.846095999412175 7.446485961493383 9.846171236712522 -0.7501484007708823 0.6074102663379861 -0.552394572223739
Ni 1.3277818577209937 3.4811075398842517 6.351677233131508 0.31177608310258564 -0.09734813633387106 0.3546685115907376
Ni 8.421026133352527 9.456523610014681 8.487328665742808 -0.703784211684046 -0.661991444017976 -2.2331884721147284
Ni -0.02879423194333245 8.107630349217914 0.7931346390378623 0.3152465581496893 0.17077858550988007 0.7580285748499074
Ni 5.128405242737888 6.911504666086046 13.215140356172158 1.6471592425556794 0.48206924433561493 2.6427739474583194
Ni 8.46844256925011 5.160315652528842 7.212388013583861 0.1818502699430094 1.2285011154868584 -0.505585068069368
Ni 3.101813484269318 5.1473830465666435 12.47915997485841 -2.6519880098574196 0.5481874761209268 -0.020293203031397308
P 4.034636176114364 8.39751911006957 0.8632888795425014 0.9278926189653182 -0.3634675979396063 0.8131286011478448
P 7.865719497749896 2.915759886772621 3.5363088056660272 -1.1997332993255467 1.0600195535412713 -2.4560660923126925
P 5.770422100370715 5.676375291456028 2.1730558604633297 -0.5962475648529473 0.32336044550607534 0.3225757448212509
P 0.2728948300069746 7.956322602616762 7.493832213205209 0.16969897929245614 -0.54823375597783 -1.4237409193628963
P 2.3384809220822618 0.2519640342358821 8.99188371294067 -0.1720973043213036 -0.6568111853686173 -0.41573221167127755
P 6.125189122536357 8.234598220198457 4.722936228992082 0.09230208926953136 0.5789692373884738 1.4060543007164108
P 2.8568987496508913 4.398910815977251 8.612799274093865 1.9022646124390978 -0.7799307742396374 -0.11368338315878485
P 8.582346823788376 1.7536220653301218 11.64110184220106 1.6388478944765064 0.19153587266188948 -0.03144073500778456
Ni 1.867807056611416 1.33408907654771 3.6887619581787363 -0.15768755665387682 -0.7457713547491092 -0.12162346394146796
Ni 8.593576293509532 2.5310663278000978 9.448967112681485 1.1748033688530863 0.4644949828972774 -0.7615993229203012
Ni 4.205567421053237 4.7927002454239105 3.506957779182354 0.9908208830584228 0.6672395797907928 -1.3318252668985064
Ni 5.18696692733372 7.935810104592782 2.843088373472156 -0.08131627968198898 -1.5734490573557225 -1.583885679308014
Ni 0.4761641403753478 8.519134267149697 4.3752025980284595 0.020317114290797265 0.7421473848432767 0.9546765719273815
Ni 2.712066663922274 6.366781805695607 7.767386774558301 -0.12013582365234794 -1.5599304540439973 -0.026592405776547753
Ni 0.5662759559419127 3.920142374415738 4.094758757001437 -0.2060042414813936 0.16641053834917147 -0.546916065607671
Ni 1.044799220747847 3.48711530618507 11.082269153105988 -0.0644765824168309 0.5024899740838119 -0.38539319436810404
Ni 5.549856599264331 5.007987895761352 9.586039634832785 -0.5222260190601588 0.8377309730775573 0.24968317042658292
Ni 4.949182905988228 3.987341392805426 12.45571190629149 3.556709332912597 0.9161097673977772 -0.135593810078631
Ni 7.278876768013685 0.6926795460689688 3.896314375456587 -0.5108828261331976 -0.9538707881966346 -1.4479406565375514
Ni 0.832863567122171 4.594752767914223 8.775716420808404 -0.6396485575464016 -0.5321255375620577 -0.7746916373278853
Ni 1.4295863586347128 0.41473987678976454 13.073767882906802 0.1080045876064527 0.9832281583128294 0.00130149242024292
Ni 0.8498434611297032 1.7680893654875451 1.1039467093474655 0.012274960712611117 0.664772606307539 1.8618782382022514
Ni 2.2118125036276153 1.5671473627188817 11.245911536406686 1.1371397928640417 0.3668290582126715 -0.7209488963887907
Ni 2.082748464965788 7.657029160873635 13.32201215529755 1.0413916540274388 -1.923000816545185 0.03802738708636677
Ni 7.190884514856989 8.83285757748451 12.16264052656303 0.7178540595135509 -0.47811385923229277 4.635328760943242
Ni 0.47052975394275753 5.743761467674403 13.226754435231266 -0.031152771453720543 0.39512893359862916 -0.09960119403410589
Ni 7.561166921020694 4.349650875467111 11.600000111443341 0.46175264426544993 -0.8183181157685843 -2.110302853631385
Ni 3.862095373848793 2.1469061686393296 12.901715562574099 -0.650980437619453 -1.9210737747258013 -0.06379652563067077
Ni 5.0893828354568695 9.43032151399865 6.566447392072632 -1.546033384346931 -2.5271866624086026 -2.327670085534081
Ni 9.141200100244603 4.539447629537526 1.7771665201788134 0.3967243031102071 -0.5469312351163226 -0.7245263293274039
Ni 3.693550391225666 3.4793014668374322 10.450503865539433 -0.3432566702093701 0.19464999281083895 -0.0042068389924959804
Ni 2.3304799249059376 8.232006084271157 1.995676092537083 -1.502578912707722 0.2773816647831158 1.4261641840924084
P 7.622900930812753 4.5887262858305355 9.167400324682347 0.5851681671103341 0.3945013273169593 0.4744009291570797
P 8.842926668667815 2.436008866610507 6.899046505219566 0.1713552839489565 -0.15914177260190013 1.0283386774982224
P 2.164583225558717 3.151672329831253 13.607591607143714 -1.8869560071064857 0.4602099823686784 0.14379691471471365
P 1.4455041319644524 6.024722800097742 1.6828268092622332 -0.9997369546011298 -0.2055812950113621 -1.6116844466878375
P 1.8858116397310039 6.390054881692704 11.10260759434929 0.3294855845672067 0.26306807637392116 2.114163622138372
P 2.625131852497653 8.492604644933465 4.372449506368489 1.2103077324072835 1.9980885988189587 -0.4039989823947494
P 5.91603089108838 8.729630677072779 8.833473326740888 0.265869036157826 -1.6674221065697736 -0.007417632620309806
P 6.817579509760005 4.73925732744264 -0.20898417466729852 0.42112844298618446 0.01297841453753894 1.3594579410141103
Ni 7.254059639929929 0.5061084571759554 10.392869547984741 -1.2287507696038193 1.6197813647633588 -2.3289960034343564
Ni 2.4741516320967025 8.128872762773767 6.44350996493284 -0.9283510466589753 1.5613039373527562 0.085543173279143
Ni 5.577855410435748 7.927818465307893 10.989134738606147 -0.9749466350303273 -0.21095850016287543 -1.756721918677871
Ni 7.641410840069793 5.030896013992512 3.5160938885896584 -1.900179190664979 0.2312869273075823 0.569436101087058
Ni 4.820652267138157 4.804163662430925 7.192816919438171 -0.8987327095719103 -0.5644903270460085 -0.41874914412073044
Ni 7.410851110911579 2.8434233859855036 1.1905072051147145 -0.2997790586417095 1.2229027954634746 0.8323581388014181
Ni 2.1781708839213167 3.4901191893354797 2.416191659920096 -0.45132784938770015 0.1808431688347337 0.08241491206280645
Ni 4.254892866803417 1.4603644635621165 9.231964160844138 0.07964763373031444 -0.9011166364230545 -0.2013996528298467
Ni 3.9566381510094972 8.955773481474004 12.625380771675879 1.0020715162715776 2.1485881223648287 -1.4931866728595444
Ni 9.325110740602845 5.672332682356412 10.533954733983066 -1.7280124665583205 -1.0494610612991344 1.3962072327190018
Ni 0.245581016488548 8.12826449983054 11.99261606130414 -1.2209996649034907 -0.8896312614912743 -1.2156489421145387
Ni 2.3587126833632124 6.505587409340537 3.669614776515021 1.312651779293849 0.47598884246948997 -1.122318411580493
Ni 0.8839183512094095 7.442059678844959 9.554798314279385 0.7693324298985009 1.2555192959469152 -2.2685372839276674
Ni 6.3362750796197975 1.1947687888738936 7.841811956713554 3.949844376009649 0.6270735490948685 2.592669574602761
Ni 0.13938017817899606 6.429825920288467 3.350629523826702 -0.6656529520299632 0.22574080067837252 -1.9513755110331363
Ni 3.4624291885813943 6.028540819802935 1.015669040502023 0.6987157960222031 0.14365421848926227 1.4797112640809291
Ni 5.590544711220655 1.024679754164108 0.6331502554988306 0.30622404293610483 -0.1507679467159081 0.794226107816387
Ni 7.54079479136823 6.642708592527294 1.2961194320530494 -0.8700713370814758 -0.8924659027265921 -0.2027134865452638
Ni 3.833787752260044 7.9158497221634265 9.164839069796782 0.5743759615908366 0.4235506792744318 -0.8844651439093026
Ni 0.3830138174600668 0.4359242714187265 10.170169511842191 1.0763401450781658 0.3811511312622984 1.4361693749342364
Ni 8.02896791382121 6.9945933841311705 4.939227045291279 -1.2354394944779046 0.5447295994793135 1.4654305857921988
Ni 6.720060923123194 2.270065377806115 12.519152795481165 -0.47955933342956764 -0.32683194899444357 0.09013490641488348
Ni -0.1504430774326222 3.33879272695146 13.085272474636126 0.10338842899068001 -0.516494258782704 1.0212606876055186
Ni 6.373210677110969 2.728059300383488 9.941168807396933 -1.3020151255156092 0.4214349184830096 0.09804181996678599
P 4.936016352740173 2.4612190261345037 7.272870873291153 -2.051460586682196 1.973667232551801 -1.404312892545272
P -0.22371349578488234 0.22119622298905636 2.684582536779743 0.7747893392480141 0.6646700192914038 -1.2165624550677434
P 4.850962477493845 5.983753951398388 11.499524431113294 -0.25660869390182256 -1.4875037635421544 -3.1903178764579767
P 6.608683299272189 5.461443240993091 5.623106430255435 -0.10200311860737916 -0.6014710180354158 1.0984835139444242
P 4.80815948207337 2.3552970529896937 2.782428649616755 -0.8786271970712869 1.0333374162643945 -0.7159383305480767
P 7.038257305563602 8.714508324514954 0.7010230420717882 -1.3021580788513767 -2.8069525111531792 0.4360693805667329
P 5.059344003952774 1.5011180807584807 11.314351411200562 -0.0740246311165822 -0.4111839301789628 -0.5780187005497465
P 2.792291867188504 5.266752309702539 5.190361034556941 1.6462917523490617 -2.4602361645299826 2.5556891407236697
