# total energy = -381167.6403707874 ev
CRYSTAL
PRIMVEC
9.22489844292633 0.00000000000000 0.00000000000000

0.00000000000000 9.22489844292633 0.00000000000000

0.00000000000000 0.00000000000000 13.50157133824059

PRIMCOORD
 96 1
Ni 0.08463383237353624 7.798360295960825 12.252621966091073 -0.6987101395952482 0.4704810252773833 -0.27472648654845594
Ni 4.445303371082023 4.88552475804562 3.1174456342486856 0.006117682861963657 0.12845102838626266 -0.09362980694201939
Ni 4.1191386306350095 2.4898001370774896 12.62203856619982 1.0726619248956302 -0.2092530874359945 -0.7480580939007568
Ni 3.4631191902936664 5.1767086829320625 13.132276933676264 1.3731380096043642 0.24274067767047874 -0.19964358937068843
Ni 3.522398388814822 0.40803018074519926 3.7363569974080804 1.6620814110831503 -1.195889500099424 1.927747587201551
Ni 1.7402309998480292 3.9425187216891566 3.1790937867350193 -0.40956053564292694 -0.5594332242380752 -1.2134853588043166
Ni 6.290661315584128 3.4208507048246437 7.900268673486979 -1.1669532766810482 0.7317130768838301 1.2576108883686212
Ni 4.839750811101646 0.07976124092335347 12.256456756446697 -0.22902075698122493 -0.4668861088372734 -0.05434772151294511
Ni 5.237629913407275 4.254015873333083 0.8731218943837165 -0.39963864854352465 -0.22683917594887384 0.31440246498183916
Ni 6.71798629427935 1.5929462685083506 11.494319617339674 -2.340517630920711 -1.5223139292428038 0.3515279090792269
Ni 8.294383094666482 1.5539064975557315 13.477026154879693 0.6789077601573404 0.327202702070301 -0.5398987537495734
Ni 3.8402330458095153 7.942019642143514 10.061262981643038 -0.5878485421559747 1.899923365900431 -2.56673948500056
Ni 6.909799611249532 8.986453438808118 -0.0004492525627109068 0.4631577521430927 -1.028077710527352 0.6804761330857249
Ni 8.666497055131217 4.823016845008061 3.145879539259852 1.9781599782158317 0.09501820264911379 -0.8331101864760942
Ni 7.355343764715886 5.636219332906513 7.432521111536255 0.3359025438371441 0.6215611039170715 1.8424455833989366
Ni 5.414803316270225 7.4068740483976745 8.249622041590797 -0.4722412025015996 -0.22777017240357547 0.4019883797226238
Ni 6.619713449298667 6.236806357450528 10.126125088807987 -0.98884396183771 0.10117419494818058 -0.8033766639674035
Ni 8.268691752014533 2.433980275538194 4.561951291620486 1.7417318730269424 0.8936031016548288 -1.8864366442679061
Ni 6.6333109498620315 6.151918840364989 2.3380265700701495 -0.43385257542107214 -0.05453206960960931 0.7776432637570414
Ni 2.4328271632109075 5.747259437574915 1.739366626847495 0.8716186269639375 -0.5119392924221698 1.3751177590385544
Ni 0.34514312437442873 1.2833309961825567 6.218324273068776 -1.7945981248983547 -0.6656326403149891 -0.07994433903512682
Ni 0.5780782719153794 0.9062900173657917 11.869231489555336 -0.6279718925394218 1.1418703655704914 0.43552662068938536
Ni 8.458401792099744 6.179418263146123 0.6634048941751495 -0.2584344342566517 -0.3958051337300474 -0.6216989150465163
Ni 5.129495651803635 0.5097282305828553 6.001664614160082 -0.5702753091589017 -0.12694950414007167 1.0304935190576963
P 5.799315540477946 6.102104387826203 4.508268839091048 0.6069973471702836 -0.6779885907771808 -0.10593279267908852
Ni 7.859447574611167 3.5002678570295354 1.1793922184705172 1.3977578650355733 1.206716158401283 1.213302296259233
P 4.92234132843123 2.5560810336499307 2.2134747563955326 -0.6175877210916203 1.441948957730491 0.0169188872425257
Ni 5.0242026589744295 5.399849755609971 6.610423053900183 -0.5477742998429083 0.5501787955193428 -0.23448897918464778
P 1.2251311107997414 6.589861677369868 10.515347546250208 -0.5039192503311709 0.08062953802760951 -0.7798834659414697
P 0.3607368929987926 4.482765684370913 7.469528637323264 -1.0078806667541866 0.6665780349473939 -0.4615577546458245
P 9.047420793776421 8.718931378877597 0.8419915515064224 -0.5704267471351014 1.704287612137555 -0.7641251746659485
Ni 2.4906672775476095 8.08163848273139 12.028698622010333 0.8512727163177339 -0.8863250799361767 0.5760034698919306
Ni 7.123079267304485 7.180375112622707 12.135941758407446 -1.6218721858541165 0.30719412015885805 -0.028062048343538766
Ni 1.210924766927569 1.5546352645465769 4.141040384934563 0.16174398611143756 0.2878239431623623 -0.6554785826001227
Ni 3.010785511444249 4.659929862335246 5.00601853881805 0.9574078548156155 3.0407053835027504 1.162059696034173
Ni 6.764793429868573 3.8025401100551672 3.3836014866938355 -1.5369903003080563 -0.48421894368876606 -1.2660831875056906
Ni 2.5299376709656864 3.2374228206984905 0.4788626422959062 -0.21695559828657474 0.9270513540109454 0.8304051288401053
Ni 2.519910206167601 0.4258674447135321 5.978266581304641 0.040909336619852125 0.09420933359457324 0.15041879090660545
Ni 0.4590171178983708 1.7622139332554232 1.836605360693068 0.45848040127208134 1.0084334539338633 0.010507070178910937
Ni 5.438815727373644 0.9383290127569879 8.653940123131996 -0.5931450146682236 0.9392386401057566 0.8480308123416687
Ni 5.194475837670896 8.90458246357076 1.9494111109570114 1.187413087197297 1.328891638191479 -1.114228692593823
Ni 1.5449952454904596 6.116541354163833 6.13873277028 -0.8623873381736566 0.5693216869963809 -0.223566418734873
Ni 0.35131458155006734 7.30466217170698 2.443135987416851 0.8857820629485131 -2.4882743016141213 1.892193087135709
Ni 8.56980166781426 7.0907367727487465 8.974035802778031 0.6203197753108027 0.16709573734165414 0.981120367941207
Ni 0.801530223676724 8.367019946386927 4.667196314976875 -0.7142629997281827 1.2113402874368557 0.8058683200410057
Ni 6.456128322100463 7.3663767434633645 6.272668150829145 0.38986948497190277 0.4470163664965398 -1.6277944648758222
Ni 3.96071944666305 7.2973376022040535 5.073107536509452 -1.0074065553312457 -0.1606993468970071 0.21302206756012343
Ni 8.173785995029528 4.599211579629635 9.343641513308452 0.5079322281453059 -0.5555513726851657 -0.21265054315331763
Ni 8.28633898307133 6.68224903703208 4.358064427338681 -1.2779094907166573 0.6458310322080297 0.971456876709514
Ni 1.616562008971183 7.605892011188744 0.6163846634278444 0.6320861718181114 0.9668456031897479 0.31248673601636506
Ni 1.3693162762036732 3.676832416583678 10.160324555455585 0.058840981397608336 1.1906547340630462 -0.6755221315145592
Ni 8.347767582970548 2.2944998084295922 8.224225895694634 0.13622270191188154 -0.007842893083186494 0.3351420115220357
Ni 6.755098061420746 3.564565400399043 12.810628703592768 0.2547292174909226 -0.18501992592024266 -1.8416151170778414
Ni 7.689395793481539 4.557053792944034 5.592162139595403 0.31346889742397627 -0.6311238079048421 -1.3358320740650542
Ni 7.684442022923515 8.351522116708194 2.4561790715732563 -1.9791871339287659 0.7572287046564314 0.42114515515673273
Ni 1.7540314481809967 9.190960216277071 2.558210140251033 -1.4742561545036288 -1.2504879041705945 -1.6123611610398878
P 3.897159895183006 3.0997873333135475 6.918178586664529 0.0342334672615733 0.6410966028468378 -0.397410016323322
Ni 4.580042240300822 6.820613291407868 11.633304707392474 1.957993787680602 -1.023061231149367 2.8921771247506385
P 3.58998922099106 8.370525407861878 0.4378266032822882 1.0384192016626763 1.067571140636284 -0.4404600534352608
Ni 1.206690538461772 8.73578526865322 10.2602763319848 0.23147256095582716 -1.5029712630501342 -1.108621887930007
P 5.8498126355144855 3.08160505813689 10.122722023707697 0.6624979513407493 -1.0466675577143973 -1.5097682313673093
P 7.666213623253767 0.42419589308389727 4.785159706058307 -0.23143656551156913 -1.1330303986813584 0.21588833336432497
P 6.1277034814919675 6.113515587417032 0.256322110518049 0.41239440554729623 0.11302363808759891 -1.0434050849130416
Ni 3.1877190669431235 2.6099083170876747 4.614877302463222 1.0070144620991497 -2.12167767112723 0.6697489764762079
Ni 0.8474019545460517 3.6493698933970173 12.436270325294204 -0.867258807333345 -1.4084775654459227 0.4493527279392003
Ni 8.474139469142553 2.732848540973676 10.920814127669383 0.4445203395475635 0.744717459563298 -0.5211692956608701
Ni 2.9312299857600834 0.7244930953153527 8.636523514540656 -0.3948345422866619 -0.6738280316415879 -0.6209538093503758
Ni 5.870790054972486 8.429251112465936 4.193804037561618 0.9066478506539289 -0.11837153266307357 -0.7959626308915195
Ni 5.062919558475409 4.466557537498571 11.386820028760972 -0.2815234548656313 0.7319308493215911 0.26662648314914084
Ni 8.1206229042923 0.17817799432248244 10.045425675695153 -1.218103060081986 0.1659708797085916 0.660147963051334
Ni 1.4917952551587594 2.6536066618425322 7.717093551582966 1.3738941710440984 -0.12538910163148728 0.1880916228670309
Ni 2.911553277007263 5.2920199156607355 10.789510610696036 0.07654431221464236 0.24670351897296863 -0.7437160148819771
Ni 1.3961053817911981 5.876334219042081 12.681189538630179 -0.7318537162267525 0.08700330276443727 -1.7826514940594396
Ni 8.871787948982725 7.717983754299632 6.695995980953061 0.03344285303947789 -0.2780851186080437 -0.4071228727357118
Ni 2.305791084338384 5.107771015557554 8.270212015306829 -0.06919070006304859 -0.19316363807329956 0.0321452172739769
Ni 5.499294162715178 1.6938389846966297 3.9388001650561226 1.185159258166114 -0.9186039945745406 0.9220950384469345
Ni 2.9124388672746195 1.8529684858621973 2.150166122157906 0.43876801044481856 1.0258855879720397 0.9055823855038919
Ni 7.188843569554301 9.355246435770265 7.446737602796907 1.1606638441279107 -0.35374728532804883 -0.3519593401896906
Ni 3.528782018658681 7.555053594903327 2.4667508053898213 -0.019060101955244595 -0.7790673977980777 1.3180678081030976
Ni 6.044624044535615 1.6980824380610449 0.7288380225645691 -0.9427854769167505 0.6312384791058355 -1.4597042248313827
Ni 6.838574169017686 2.1851570851069564 6.149250077194717 -0.21633133443901453 -1.566372095904283 0.8378474440507635
Ni 4.646516859744246 4.998474416728009 8.822574959833853 1.1638527833788537 1.654472231277325 1.3211541603379053
Ni 2.8356969356690334 0.902947836596384 11.085559747113766 0.9627575491633031 2.154992740339592 -0.2788551640048488
Ni 0.3224092842195056 0.11515625443188485 8.283888849998311 0.5151020064208678 0.9366613662968836 -1.5313801532101305
Ni 7.530054119647751 1.5000884390166056 2.5166252197696264 -0.6368699663599999 -0.31864067143290287 0.5235879324046918
Ni 8.117781635517867 5.146690862828135 11.760989296637863 0.9368937940226639 -0.43770100263288486 -0.2940925497798935
Ni 2.0646153348617116 0.9832265943322237 0.14485120308417251 0.6403003321977876 -1.2943936044146094 -0.41628011375494756
Ni 0.9137797125539845 3.7011215746456454 5.378040250296601 -0.7768529066452621 0.15922404790306127 0.9367151023529545
P 0.9116773581588753 1.7451386459129616 9.775556801556137 0.1184934029529185 -1.5006521279986544 -0.4704959376757188
Ni 3.681546339777626 3.0273257546668497 9.153525577684036 -0.048869729117509385 -1.1347890332436779 0.25917953995279236
P 6.137933894059656 8.549460766360923 9.980685337191964 -0.38582102593414197 -0.579723341945679 1.179433154315614
Ni 1.8434852900825913 7.505469764829999 8.31027113755677 0.828191151907922 -0.3524745892632123 -0.7136302512401903
P 1.944304207081924 6.816665034799239 3.912566398365419 1.2993769165618139 -1.5959025012632322 0.0928978138720013
P 0.9702563868749026 4.683398004420185 0.874265781812385 -2.972948587672751 -1.6491485050715662 0.8128072132526841
P 3.800621331142562 8.375442278825428 7.106417255420123 -0.4068822174798154 -0.50140625410133 1.1537393490939356
Ni 5.389194997705841 3.6556704991533118 5.16537681746935 -1.3622956675732216 0.5727479390691104 0.9695707154303947
