# total energy = -340853.5036155011 ev
CRYSTAL
PRIMVEC
9.38408752042159 0.00000000000000 0.00000000000000

0.00000000000000 9.38408752042159 0.00000000000000

0.00000000000000 0.00000000000000 13.73456064424220

PRIMCOORD
 96 1
Ni 6.315134153304118 8.857086335318655 12.604191804836663 2.397921622761477 2.318790523656265 -2.0743233502129828
Ni 7.75009247772414 6.288464577215588 6.469142978741187 -0.0025376788201891777 -0.46361746538833054 -0.6696466465703886
Ni 2.4071497680413647 2.6080536929109526 3.254816250093533 0.3574658718302166 -3.0187229656943884 1.2422881419686218
Ni 1.0400759311035521 6.162295523552566 10.544145349656189 0.7300338894091943 2.712159537140994 -1.1534056199036007
Ni 6.193234859359705 4.477138663709454 7.748682049403905 0.600301937427979 -0.5980067136358992 -0.6089719543981512
Ni 8.78588926502179 8.394948188368652 12.556560992960323 1.1555612327940228 1.601826322946835 -3.0528762145373296
Ni 3.75934044253146 1.3493848323892965 5.7904078977404385 -2.3694728805024807 2.142948664690864 -0.972388387384848
Ni 8.20323128495954 3.3417391738770834 0.9615855481620691 -1.0467439194782877 -0.6398367622978077 0.06439302156408909
Ni 1.9666231741286195 0.2110621993649561 1.383812233443482 -3.0602010303335168 0.48771770087064387 1.8906722796158084
Ni 6.566927983567129 4.6867510215875425 4.7585308437053415 0.15499612586464273 -0.10795676508765277 -0.448830279776827
Ni 3.40804713469396 7.773036571157094 9.640645425024305 -3.488866662237011 0.47499253999449165 -1.3366841376527043
Ni 8.949913726827365 1.9392028710565967 8.09942169609108 -2.28249837409345 1.3671499103417293 -0.7973230015741558
Ni 2.6606421181045237 4.622760930332196 3.126960875943845 0.19058250760968468 4.700601099788491 -0.5052819350066524
Ni 5.4799410000826585 7.576524399140931 9.660765846590603 2.613728452155589 -0.025755511697549187 0.22598916924375273
Ni 4.930249318682972 0.7858666367711581 11.171759676716091 0.6985450747722938 -0.09307470576949778 -1.1982297181968267
Ni 0.07274169106539775 6.031837941996351 1.889504744749467 1.236682108635754 -0.6638212981378632 -0.12976511921199588
Ni 2.5855318834062113 0.638887431125756 10.960755658692356 -0.3261472642225931 -0.6505446356336151 0.7753971480353421
Ni 5.393288338013166 2.7607515613531004 0.8391720062339639 2.5992114894863367 1.4874315155433222 -1.1856385117953774
Ni 8.761096506391988 9.013096786575458 8.655904641465174 -3.149533495451763 -1.5156645422470865 0.04413349998410464
Ni 5.026661431537854 6.294470393083518 2.529425363886253 -0.5253064577576952 -1.211660389780436 -0.9672153278243408
Ni 5.347869355511937 7.275351501538775 13.561628648006213 -1.7344361106964774 -1.5005937639568931 2.093586826428285
Ni 8.124555097089642 7.14018310816115 0.3056669370070817 -1.8923198425215602 -1.8653852229142454 0.4452998980260654
Ni 2.7235718074956896 7.6961245916984025 3.619839416050361 -0.14705784485417253 -2.895255506565646 -0.8978251101559763
Ni 3.490655255139893 7.093375280740462 11.822036574590141 -0.1364409885702747 -0.555713866404959 0.9839544949558924
P 1.1548151664429167 8.321836764263884 10.748447252534804 -0.4175618086808486 0.13282910284930027 0.06153626884158434
P 3.8230302429934104 0.3997611803004332 8.575090758509786 -0.8650533150415941 -1.2726572411787824 -0.024591316186118938
P 9.221348451795969 0.8740798725575839 2.0405022165740068 0.2784245042253334 -0.1679046063961947 0.18655436028689804
P 4.8462148169684065 0.7156896167631127 3.114174118597528 -0.15755643039265124 0.28329391650249275 0.4864673734033106
P 6.641963145567093 4.490285770007847 2.50761486819837 -0.170692453553977 -0.7746083335854594 1.530701639085867
P 0.9331151657218877 1.8240788881381929 5.195757054116912 1.8249266006785667 -0.5888260755778956 -0.1594528760844157
P 4.7388420901545505 5.7436995416450625 8.55262056148516 -2.5448439704790498 -0.13174615419776667 2.6344921670655017
P 2.9765386486704055 6.005731411145438 5.32082347752293 0.5085210107692403 0.4439305284823645 -1.2409365130367338
Ni 0.8900834950281615 7.24880391858506 5.725814409672111 0.41884016117263995 -0.9696797302044331 0.678287095854206
Ni 0.29570948197979785 1.1446615839911958 13.006807624491824 -2.4382339492272784 0.048200470964626665 1.2610368833310346
Ni 2.4304973772279466 1.728633336274557 13.146198857151585 1.6139591016546269 0.4831359950372324 1.0613035624600173
Ni 7.648622341817984 6.7790365086653255 3.958904319735516 -0.15111941651805585 0.22086367509172933 -0.2111194512207719
Ni 4.624994343108082 4.558254714275698 10.308913495057727 -1.5597425064029073 1.3956521315464803 0.39765170002048283
Ni 6.901161020704787 9.205733330539347 3.564338170160843 -0.14298753143954085 -0.7329775454185505 -0.5861760395495582
Ni 5.26573982351798 6.745826223733126 6.957955393823369 -0.5074815137611325 0.8836197651898718 -3.3494156831958186
Ni 7.767040139376458 7.405977996666275 10.133207721389027 -0.18837958642109492 0.41624051876626383 2.3436677465139186
Ni 3.0000927077774473 3.611728749402466 7.607916047955624 0.34646540695465494 0.8275676593913103 -0.3685380704839782
Ni 0.5120033100109596 4.030737631150889 8.56233121501662 -2.5305270396357447 0.3708849734495999 -1.3085534408547594
Ni 5.310849131138517 7.382611619305106 4.466506492805757 0.15780659873024436 0.5778382091078242 0.8065645747770819
Ni 4.834250105669012 3.5667789712659195 3.0302700556963424 -0.9591487487661223 -0.2319189044646264 -0.14964797417885195
Ni 9.126212574813023 4.959978107229232 4.3916120921151975 0.09055193934764405 2.9866278849320564 2.8440620144109663
Ni 3.9645422793815364 1.1614872525086963 1.1175547094347806 -0.6811394777013366 1.886432787613164 -0.05923204618843993
Ni 4.157957702590798 2.8049130761569807 12.000764024367394 0.051120215714582924 0.5511619853682185 -0.3005043668435083
Ni 7.942832246648258 1.9355149247501953 11.530589345059115 -0.4848087547539651 -0.22452646865529718 -1.256776565392784
Ni 6.570034116461325 2.051014271160345 3.7394396086078325 -1.1651213656786321 0.7574387637847084 -0.08258203376829003
Ni 9.327970451626332 4.330005559032436 10.934811472551623 -2.0549336328324608 -1.9804426036024219 0.8875954620081681
Ni 3.0465251717063895 5.54515102268618 0.5607254912395504 -0.4180042955349059 0.7289203446300414 0.3486140778665415
Ni 1.1595259782643252 2.5151606127911874 1.3535973491754125 -0.7675948783821038 -0.23942472592336828 0.9787744934168499
Ni 3.2820188423403436 2.250585655634236 9.462411578238699 0.5068526219278819 0.6951841287198608 0.6721555290351714
Ni 5.632310425469529 0.5024831534515594 5.687261763843639 0.3612713616192359 -0.7531527348148448 -0.3578777625566546
Ni 6.104442625387262 0.2021529468883721 1.1005657577983705 0.5674247270839842 -0.28321138409101543 1.0286592940624348
Ni 6.348860563037469 3.763131613798091 12.309380380010866 2.416728985275967 -1.8268639269105957 -0.5246186876620513
P 6.39021623574055 6.40995097131908 11.901751580923444 0.07512120661487062 -0.03597076166765418 -1.2271080917940738
P 6.724430504703622 8.002871637152982 7.685970070837952 1.7935889669075495 0.1543158119681665 1.759552446148131
P 9.278431854803195 4.068827641475783 2.6892269864096883 1.4688812633449606 -2.5079172726560293 -1.9701414787867297
P 7.586668597505358 3.604127638694616 9.210574581174138 1.9541893263328476 -0.4536582972930897 -0.05395794227369417
P 5.148419964172864 2.5703015097286293 7.211015137462292 -2.027663741372914 1.1330185716068164 -0.7402974761187315
P 6.5899659178730206 7.633298127267467 2.021576389320189 0.09690179282507183 -0.5162937127361237 -0.483057062170181
P 3.9251197286609445 9.060401970622708 12.652483256458478 0.18635175735778875 0.06939176033026113 1.2834103659302283
P 7.565704546491362 1.2327781636784971 5.998184728143891 0.10210030630687578 3.2911424013762223 -0.49631109896660974
Ni 8.461772273986679 2.822902371498893 4.652390247553142 0.7244417400333976 -1.4207334999951402 -1.1374632376417313
Ni 1.7117232109714136 8.424142083939172 7.847336959121966 0.3271919034370236 -0.19172793406803754 -0.19610909385486872
Ni 8.713537951987808 8.131940373789739 2.2654331585502367 0.9319657605934273 1.824762821407193 -0.1760164368700517
Ni 1.0028398727223795 0.8195226658498062 9.218004901493243 2.7880641588891075 0.545090582363158 2.3986644144647724
Ni 7.391883097551224 8.553980315734009 5.742955383522678 0.6851853656359361 -3.1866085459271893 -0.5698112250382895
Ni 8.952466198571235 6.669542978123108 8.426056437747075 1.4582109281153082 -0.6101788302220588 -0.539802080270709
Ni 2.4237689866384047 4.857410033109722 11.851964305787025 1.6137063622138723 -0.7637881030415039 -0.5723707582353497
Ni 6.562911594205451 5.351313315548704 0.6247465499829663 -0.2904413261805514 -0.36948757888144107 -0.14305540856299878
Ni 9.298973621888978 0.24908933630498284 6.458443242408977 2.396302084880183 -0.39727683317956736 0.998449603248274
Ni 0.9884916032504003 6.521208710272504 13.154467176466014 0.00743331634959365 -0.42879033040681636 0.2792716827169771
Ni 3.463713540519846 8.252657272735153 5.701641939212417 -0.1675618783447953 0.15967604783881534 1.603442261283703
Ni 2.339021294289521 0.424883320394243 3.970194315158497 0.2508738483005744 1.0244699385714355 0.4540395918919084
Ni 0.11041786314064227 8.893825037073265 4.3629202452148865 -0.07895523564898015 0.7993456884311394 -1.8085522730856016
Ni 4.281489827724306 3.8222232114861567 5.265967856839215 -0.2865057385715711 0.13530353253172184 1.1104885088251004
Ni 3.8607355057392647 8.432981894169783 1.4899387534647415 1.1879715308039283 -3.1070236471140102 0.619140924511353
Ni 1.8039406368060362 8.730053945624618 13.093170318263942 0.20358560473757195 -1.08542642365015 -1.527230906928447
Ni 5.76639026472109 2.7280104807855823 9.987703694266184 1.1743428842769001 -1.3595013926575361 -0.6054647125758411
Ni 1.0053266558551948 4.030803319761945 13.415753949435272 -1.1930288907221778 0.7488361097173619 0.20511618244948546
Ni 8.258484790944504 3.7985565433315913 6.5686499635855125 0.24674697061639442 1.2454135749714808 1.8355051475253612
Ni 1.9945689860890863 1.3959205212784687 7.185125379027863 -0.4968170920687508 0.27798124604032776 0.035436486430738975
Ni 4.762912274062743 5.078161302605364 12.719988626814022 -2.201569559657867 1.4482982969872864 0.13544134366116675
Ni 6.47969350808543 1.136910327886647 8.022631709767206 0.4311506031088768 -0.9336140948301276 0.4792145484956391
Ni 1.7959172421699723 4.094849715541053 5.338500282757964 -0.22063741801353612 -0.5884067286522898 1.0253855084071695
Ni 2.7131367024251594 6.234552995713612 7.4770812260902035 0.20751347903706843 -0.23312912272264366 0.08410309839850677
P 8.182295386207423 4.736402227458204 13.058888370562807 1.787041138486703 0.9809293349763236 -1.2446170472121145
P 6.8517725692783475 0.2702354386124764 10.13701203037787 0.6440346024292392 -0.25874759462169633 0.42344474982418684
P 2.0302191337176336 4.123377340913726 9.77807256821351 2.888642629234819 0.22693816342058332 1.9888465113954008
P 0.6476643679714996 5.399369226579446 6.955318465293856 -0.7615160191778757 0.1150057015146342 -1.489538534583996
P 3.394111765062901 3.4759128540015807 1.097426780598647 -1.2081750023349969 -0.12609049857388607 0.5338803154696354
P 1.8343450796374376 7.381006940377894 1.5719613068635516 -0.2760989414159503 -0.5281781228785356 -0.557065238226531
P 6.934934350874605 1.6119234426035276 13.402129193093634 0.4294845282603636 0.30831434980623035 -0.43130384085728946
P 1.175300629004938 2.632339710826899 11.723024131146191 -0.3634837958895224 -0.3855749713616069 -1.278970842101636
