# total energy = -340859.3582761708 ev
CRYSTAL
PRIMVEC
9.41564731740573 0.00000000000000 0.00000000000000

0.00000000000000 9.41564731740573 0.00000000000000

0.00000000000000 0.00000000000000 13.78075159723945

PRIMCOORD
 96 1
Ni 0.4209575896525843 7.074813901031031 3.4192801210842156 0.04021976675199525 2.723171314870465 -0.1377882466267885
Ni 0.3560781295241496 2.0773931220875985 11.232966239159717 -0.146446950743051 0.6608388184707715 -1.2346262545479896
Ni 2.298321873205584 6.8998335093341066 1.010647347372623 -1.5361888874526834 1.9325933453296267 1.623578884132578
Ni 5.68562928033773 0.4800436019220479 11.799134768053987 -0.7488145124508072 -1.3267375679629538 0.4634948237675373
Ni 2.9766345291589937 7.320976587240911 12.030968722016537 0.4779480230783898 -1.9185173268525346 -0.6893484958746903
Ni 2.6287169412557936 0.8690454257879237 7.264371598067236 0.25124794381054144 1.6867030662865725 -0.07385982340394376
Ni 8.183958336088843 3.0823628340645453 5.299099063920222 -0.3646348787748301 -0.7014411653731661 0.8424854570434072
Ni 3.986208492725469 1.6018464333744642 13.040532328370848 -0.6909122408173843 -0.7655907034678815 0.4558517053999826
Ni 8.153395144555898 7.945026867099326 11.29610945390347 -2.0347787551511405 0.6178672000052521 1.5556814489596562
Ni 4.699020080834363 5.420550558456353 7.911722780601737 -1.3262030356157226 1.3072208380862649 0.6216343803571681
Ni 1.2066717110584968 3.1616614166555643 8.869167953779122 -0.4759613316656642 -1.5706807505819658 0.6757882406917523
Ni 1.3485561020658665 2.8897940129826734 5.292828242736937 0.6387833813326289 0.2736142273208836 2.9194580719537786
Ni 6.729711591707113 4.494323905872506 4.173610948066698 -1.228642011940097 0.4177795811186095 1.5116687908241322
Ni 1.7703017814077013 8.061460763124087 6.845367755254789 0.16515429734456719 0.10709904507304781 0.4772188582218491
Ni 8.694992599936807 4.465182477100337 9.015547374865921 0.9404437161574514 1.2475586463389416 -0.8074058397314546
Ni 1.9377873177564369 5.2714349502286195 10.169229705360923 -0.2865849285489387 -0.5153377765807576 -0.6919748777539437
Ni 8.910846317094148 2.566102885897176 1.3078061215866843 0.06700603370690396 0.2736733626935932 -0.6954942037611118
Ni 1.4388144982564994 4.741663548010179 7.183244496746797 0.3141247858404203 0.031665963644713205 -0.3902335531795409
Ni 2.6786481195365077 3.230292070717063 11.197563404851687 -0.2775431300616446 -0.3231491008262176 1.070934400681562
Ni 5.9721191844575285 8.362752064991817 3.892414520927744 -0.0814494628257436 0.7063110918709578 -1.3548368973023313
Ni 4.255185292639699 4.95900493746025 11.611620266508433 -1.0003218805703225 2.302948928638318 -1.4949594484892512
Ni 5.898648887620943 7.534250417004527 9.885029686694242 0.3015482347269903 -0.7903409138293678 0.42286625161289754
Ni 7.838582972989675 9.265646743263083 9.44580950730127 0.29991404155767704 -0.07770542240227908 -0.873004965788503
Ni 7.778285166896956 0.4775446890961566 1.8900716413142014 -1.251769856206812 0.4174741340630488 -0.7409687911541433
P 3.4328697250088913 8.928039289287355 5.606754401880717 -0.022614137855090085 1.119039226608589 -0.28306997341714474
P 2.833187140679514 1.8454857260751545 9.612432570346119 0.19075785684528437 -2.8901199851112938 -0.4271075433877547
P 7.142907863189455 2.875218590772878 9.405804304533195 -1.3247699027136215 1.22604108398214 -3.3492943271266062
P 9.34433330877165 2.654421658718805 7.1462701908839765 -0.23413442405870646 -0.24239023630959547 -0.10905411191688962
P 4.114411948028166 8.396874371250409 2.2470621470735765 -0.3577612915834484 0.7453165265998777 0.36531262156814504
P 0.38033095415463486 9.19322158329038 11.064648359578847 -0.29269001300541203 1.9053121410161704 -0.12849936512569482
P 1.5365300872056324 5.701485230596965 12.95066844780721 -0.42962773870644716 1.0894525140904077 -0.7692738087464236
P 8.157942902260892 3.6154485441756514 3.096535266564664 1.8660393115584764 -0.7857898041235758 -1.4197773067294581
Ni 5.989425144419805 7.844552493455445 1.1471535205723473 0.18888377975102308 0.5634505729275844 0.49490007755169607
Ni 0.9336772543891505 8.017790990379236 12.822754994445122 -0.589264962887527 0.7150728972239878 1.2093571955685558
Ni 5.991223533077474 4.898292842880948 9.777209224931445 -0.07621469678936552 -0.3451016938379089 -0.2418101954364094
Ni 9.251108983642979 1.6907207293940119 3.89168386668777 0.33051171183887595 -1.1226958495245696 -1.9419593599255587
Ni 5.599579678544887 7.304828751911583 12.500795404920595 1.2067390412194186 -0.6655367381670731 -0.7821141550442013
Ni 1.8436214278855294 9.465644510161189 3.9294848663942723 -0.22865951698706427 -0.9903200321626041 1.1859532148223189
Ni 5.395410779838683 1.196276836304224 2.073438550170212 -0.9864404946025398 -0.9933660180777797 1.183220389272188
Ni 7.327200330187083 8.596316614950595 5.883264661297568 0.13534646995451527 -0.11690677519208899 0.2177888928211475
Ni 2.6655886165617106 1.2002125769267658 2.1144634675541267 0.6015890316705188 -0.14288777263688296 -0.37660542087314497
Ni 4.157855745234882 8.64532505978392 10.514975103403788 -1.7920002822641914 0.9428952630217373 -0.11440380626457716
Ni 3.8065767712019034 5.593205285239958 0.18183686614987907 1.904064127541682 -0.18121469324153952 -0.02673638755357976
Ni 0.19194644678725464 6.4835206585549665 5.7799919572397656 -0.3245547229244926 -0.438376945653987 0.5602495494917835
Ni 0.6232979696293695 5.03228692134839 3.3425764909227955 0.35334207946983015 -3.877219453454071 0.07176488854812801
Ni 5.8065544401829525 3.867062890243071 12.593636513199177 3.80445723398968 0.02951369318840079 0.7840085438534369
Ni 4.423904278800762 2.4137482949561546 4.2187843997049 0.09523186132181663 0.07185179183497947 -0.09569131745673842
Ni 1.4523541992498366 4.493081040412757 0.8433614227492413 -0.07875237560955468 -0.14214446671295522 1.402031809820579
Ni 6.527915436151339 5.585926989782482 0.8282973284382259 -2.2504323467968406 0.6111036560291734 -0.5692203855318261
Ni 1.4541525879075052 7.669073072445135 9.9910724742237 1.5916786929898719 0.30877226327925533 -0.13967800745033362
Ni 0.9328402033333038 0.3651990671821786 9.014954189078313 0.22860860914447081 1.0224678205397424 -0.3068153966632006
Ni 2.8676484102453097 6.899117920130007 3.811356153833488 -0.06570325573508039 2.2288839312021036 -0.9560266581973728
Ni 5.330226252733763 0.9219670136899756 6.133743480285853 -0.9762596974147961 -0.9266011538474043 -0.929657938395857
Ni 8.351509781969535 7.409587245132633 1.585199568731752 -0.45601111379598236 -0.042666685630591034 -0.1849898440132556
Ni 8.807490755339028 0.8618885921821965 12.981839890163638 -0.4874425928323863 -0.4146032402731569 0.757619769447263
Ni 3.5044003984764727 3.337395060146277 1.6085720303282476 0.7777769611214281 0.7623344013141129 0.7118446200946772
P 0.8289922032179953 6.486194702422913 8.392642979298806 -1.4459783906048582 -0.7675755951083941 -0.5223923694346938
P 2.380765282035668 6.234947566604965 5.824407449260468 -0.6941670003092562 -0.7424569456638955 0.05035274142093908
P 3.8984264118069136 3.639778577115 13.263891258088542 -1.9527906462131077 -1.1273125223609746 0.3060918882336148
P 3.462660833453202 3.415441361630124 6.651886557937692 -0.9487311529772241 -0.6125038788108097 -0.577221915680064
P 1.8394879586671185 3.0250403725572874 3.3581490301946175 1.1225809212132603 -0.33917761504399 -2.999983994523988
P 7.811315258054554 6.589041819217226 4.584470255858814 -0.47686430309590777 0.4868388978101164 -0.44228322268692866
P 6.875616464163826 9.275947461543133 13.54364050021868 -0.06410814333381863 -0.4945072129886515 0.1389267311066059
P 7.2125930697622564 6.016645781117815 11.056503824558515 0.5162852280956914 0.8507937197987863 1.0585239428323514
Ni 3.525208979279863 3.664183935233727 8.891961353059143 0.5754887350390411 1.2074013573937656 -0.5509334142971802
Ni 1.471006596793509 2.6353173100988596 13.260941335751118 0.5215361920819855 -1.2254785266104506 0.5350612231516141
Ni 7.953999979092823 3.9564738781656925 11.056090477636674 0.32836869735394414 0.473039787143495 2.2005706860797067
Ni 8.519644997990412 6.094861564255265 13.349165952098526 -0.684311447671415 2.3624221443032862 -3.9866903411934045
Ni 4.02373926335095 8.480457073418597 -0.07989835933182284 -0.6126422041608868 1.268371469319235 1.0519619733441172
Ni 7.081442516816365 1.7327239325451085 7.497693224322517 2.1246408675206117 0.11346021140438525 0.2008970021618153
Ni 7.337265657281574 1.5539207879947101 10.81664962212161 1.5417077603883835 -0.9116095655345784 2.614386911675194
Ni 5.209781290907081 2.7231276379596823 10.50272440454257 -0.39670167740238776 -0.3857603478995356 0.6333766084947607
Ni 4.424732855773929 6.930537935578385 5.847062438523381 -1.8416521409633637 2.2537657820454475 1.5434957055267418
Ni 5.41480701352872 6.236840111736857 4.084050251350061 -0.564519380511731 -1.2896537757367788 -2.439279616882973
Ni 0.18748719616803042 6.176598799528672 11.317635507040444 -0.4294498183676862 -1.3336147546987613 -0.5043720215978733
Ni 8.903690425053163 8.133499881552476 7.6039572795664 0.9609683184733644 0.3961779436884338 0.0767541142326033
Ni 6.24506938758399 3.5075263934206924 1.8830296786070269 -0.02638620330301262 -0.13775173696189824 0.2092605436351622
Ni 4.143722858453938 8.528316809266395 7.874652435135209 -0.26351724809619775 -0.623119706653443 0.07794453499627867
Ni 2.358177143869453 0.6839601612773343 11.533938350579831 -0.18531765966631955 -0.7349662937138052 -0.22105470805661284
Ni 3.0897164547013998 4.66849455189111 4.398361510473415 0.2025815889530898 -1.438656403022148 0.08764247901033292
Ni 0.34758898180816017 0.6215824386690176 6.104459875237606 -0.44169855382805223 0.3207191512284864 0.5782341589946622
Ni 6.177559195565752 1.915283920417024 0.03231638508298459 1.6473613312641564 -0.0576292204776943 0.14087716996475735
Ni 0.6121423105633709 9.164984056670756 1.6532219719697665 1.314247148805427 0.14575480977203284 -1.1266679467984402
Ni 7.745509298219761 4.690847298871765 6.9460360912355705 0.7465861373409206 0.5063363444130956 -0.4012399315923735
Ni 7.3739301883441986 6.655346808365405 8.424132670538109 0.34774838743213665 -0.7231741861748835 -0.8710948932499836
Ni 4.995518818164118 1.5161922887733597 8.461037300610002 -1.26372291480363 -0.33301005278069745 0.6536898661308161
Ni 8.58346425621909 5.057511440792862 1.248733291223612 1.5963107924452444 -3.4018772434296447 4.526151236074611
Ni 5.567933687558375 3.6550695885288937 6.543073686936578 -0.0017596630035840663 -2.4748027494902476 -0.4973076585519241
P 8.837940959102903 8.939959498924049 3.4522989134649076 0.32080631162565393 0.45149934196855795 1.3136550237473827
P 5.984208875747825 5.649840404485384 6.312851691812735 1.7944155765739034 0.7649970357479405 -0.6607202906150363
P 6.399194120240413 0.9954693237277972 4.16797474151968 -0.22495712843481258 1.4536747308078513 0.014667372204187642
P 6.162842538644621 8.972208091345593 8.189101162710928 0.8028886685873915 0.5120727326762408 -1.2483027235938178
P 3.876450290723152 5.606933299181741 2.4262663982041666 0.5654627182616068 -0.9293347507284835 -0.5360143310935027
P 2.1443477909079185 0.3942011443724965 0.05510319340981024 -0.5041321376729253 0.03995057225100861 0.010743868780065368
P 8.078766723086364 3.2376739382961843 13.07615548882856 0.2523933702688944 -0.8657873649941412 1.0709665394710781
P 3.7942046104889378 6.155799634372705 9.88786850439208 1.3931985277996652 1.6019001136075637 -0.7570983497261542
