# total energy = -340885.8383916467 ev
CRYSTAL
PRIMVEC
9.09981999878286 0.00000000000000 0.00000000000000
0.00000000000000 9.09981999878286 0.00000000000000
0.00000000000000 0.00000000000000 13.31850639212309
PRIMCOORD
 96 1
Ni 6.416255907073174 2.5712724885658536 11.53345424508493 -0.19896276125357992 -0.2775780970646381 1.505902577764316
Ni 4.841477426588283 0.4181076176910549 6.090952805453364 -0.4085850591035351 -0.630508028697714 0.9222613888214698
Ni 3.369044623629821 2.0959706811007157 5.0470478242702015 -0.9167563998428404 -1.0017696687604425 -0.4117336320348457
Ni 3.429603926905217 4.646076987935754 4.978377851271385 0.5004096945160156 -0.9967876421648186 0.4000387121954207
Ni 3.9988795773342938 3.152004812597293 2.9735700786820516 -1.0279512122518168 -0.12658595015306587 -1.1061392307174691
Ni 5.56511332667334 4.877603712689459 2.974541939476914 -1.067266979132304 1.3922901570527828 0.24755892499472848
Ni 5.471194082630461 3.3100686890651563 0.6949432570861607 -1.4621724838662173 -0.41029869936053204 -1.1349960070481613
Ni 5.569417541616881 8.348602721578114 12.516865441697966 0.3967543850171941 -0.10362317070930539 0.8857761494112424
Ni 2.718935270571842 5.318389902224683 11.877230891645292 -0.6804355096557765 0.47503470608633674 -0.12124396911486215
Ni 0.6124242677605488 7.585328004803707 11.411856078010828 0.6903113740085918 -0.5586315542723863 -0.25859769930739335
Ni 0.8535995318475218 0.6719807708524814 4.495395795577181 2.710426870720603 -1.5698240590086254 1.6994328551484152
Ni 9.11983978100706 2.546666574808277 1.4891291530185227 -0.5599063072197518 -0.06901432238618437 0.8062637557072114
Ni 2.299679255574498 1.2833658391488603 2.6325224681926547 -1.0974489020323228 1.0917767913482102 -0.270437886475431
Ni 1.7921003859428943 6.489618657337073 0.5591839498532069 0.4653660726483211 0.7066378790827572 -0.7021168512839521
Ni 7.572724753859091 4.205409096062827 4.042593293498733 1.35202308200262 0.7667803529006085 -0.1496106931830133
Ni 7.458876903629416 4.328311267368236 12.768505498988052 2.0690219926047275 -0.3043684777846048 0.4319581866118367
Ni 8.547561189919701 0.34910004136368616 7.027710134002896 -1.2125769880574342 -0.2071872060459012 -1.1128845198611028
Ni 6.9918013336039415 1.3192919292061502 0.6418549061757682 -0.7471744057442229 -1.2817247506976894 -0.08297824076544419
Ni 2.261769404718705 6.5633454004080365 9.167434570476829 -2.2526856616073916 0.9640531280462751 0.9417513792252814
Ni 0.15622116288209809 5.3061415442669535 1.9700464595146512 -1.1601478237234406 -1.6951419410825452 -1.5773766745449027
Ni 6.632267438425745 2.305266545162941 7.090000223075885 0.1225295206955051 -0.8994377060587349 0.9745031197350056
Ni 3.7387521177654772 5.066434081174469 1.0152014184000544 0.06483396575624963 -1.3447237201277293 0.05825939786252548
Ni 6.23257603680813 6.2873114551704905 5.189835832607575 0.0028850348572789022 -0.45739462440707035 -0.6884676359316336
Ni 5.1519359915539775 3.227205726536868 9.132500360818792 0.8895276460338746 0.04792844825016262 0.9225886902539013
P 0.07895913967251873 5.887829349416939 12.64709387822757 1.028675749122667 -1.2732239123155298 -0.62505317623073
P 4.096484248548704 6.718142441432494 13.010582555254528 -0.23536803935549142 0.043391993832389786 -0.7310903556981667
P 2.263698566596148 8.744281102497839 1.2060210075756737 -0.5610440203686209 0.0436097662701507 0.13848630113507765
P 6.746133488295772 8.208283494454657 6.13876599060737 -0.055374877225878825 -0.5656342108424646 -0.5652650004285039
P 4.8899248692086 1.3792870436305962 12.788709829726196 -0.004451350903134269 0.6946138580386876 1.4933872189061248
P 4.308409960641972 6.243486721199896 8.355245590307046 -0.021309045890421367 0.339685407918344 0.2943802562236414
P 4.866147039087096 1.1867621481538784 3.6915440706532157 0.02399122070827481 0.04669251896053249 1.0336811727570583
P 0.1526740529772522 5.621450313386785 4.04172699061792 -0.23856083526117625 1.7045287816140837 0.29267458638644434
Ni 1.038953769025064 7.482345339864915 2.584309800932895 0.9628822476666257 0.09027991663318 1.2776482666354705
Ni 1.6723558522387714 6.777609766286695 5.007491815944459 1.0380577045581991 0.17057186881571268 -0.7157753226076512
Ni 6.315284302393416 6.491875412740875 9.293427950696236 -1.0108713739513946 -2.7147404104942923 1.95001976833619
Ni 8.726227059267428 2.5790892340975686 10.590077707338924 0.6620706339953436 1.216091686078912 -1.2191908938295262
Ni 2.536092583763046 5.191984300151275 7.175532162861975 0.31136882036183794 -0.07216006710401765 0.8383958603550656
Ni 0.6183209512349975 0.4645894991532222 9.0541609189003 -0.06032193681850901 -0.4305960161569874 1.061312818431398
Ni 1.5278234083735396 1.472523801160229 11.885754693204731 0.0894597347247298 0.6505412931995054 -1.1208539112198246
Ni 3.844473828577431 7.282049197957365 2.0687103497976196 -0.32231812028449003 -1.1072496901728284 -0.11090376353111867
Ni 6.352265971591194 8.429618420610549 8.184955195449877 -0.9219690543920315 1.7509626475965911 -0.33455400022904963
Ni 6.8636576658768 0.9370266832267602 4.9285936450671235 -0.4709713346502405 0.0882240625454158 -0.06411431398140571
Ni 0.9288186454274503 7.532248753713492 7.0863912343938384 -1.2560389158958112 -0.22569066416672742 1.8700373769742762
Ni 5.23578173466134 4.793876267244392 6.907643466664521 -0.16070500332396195 0.4264274866015946 1.0500706698586755
Ni 8.406614075204057 7.572560957095911 9.290564237286654 1.186985255631259 0.18829731111993378 0.08538427910377554
Ni 4.597747842977733 0.8161137326119596 10.765082719029598 0.19714756242171205 -1.5328677934992505 -1.3172550823938154
Ni 8.44688987930577 7.852471425728696 4.8783025788790235 0.10006450682376959 -0.4370266022736796 -0.3110363767230837
Ni 7.490262183418573 6.273379630480088 7.345076372464661 -0.48402662517230194 1.1294370249031451 -1.8866017090908604
Ni 2.3663081389076983 5.455970083474978 3.0086507954449333 0.7854295925706796 0.7643277775950579 -0.48205690304044074
Ni 3.3177034381933392 4.636695073333661 9.72476033704997 1.1633280212236354 -0.5102199957382181 -0.7972399549420462
Ni 1.1019700237481471 3.6554523638687115 3.7439654047446616 -0.08950267214752328 -1.6878173823966738 0.825519775723346
Ni 0.4025378253688607 -0.005718326998987066 -0.012152809845874009 0.9336488047228049 0.27861296608705566 1.6580710043721767
Ni 1.18019207798636 3.618889286399058 8.615528656800882 -0.3648770766926232 0.5274916383344721 0.1296460771356283
Ni 5.574213146849958 3.2395723821568927 5.060979648960604 -0.7072204910591046 -0.23121390797780184 -0.45495619016890676
Ni 3.8976895769702957 6.890438436656589 6.196541658890738 -0.04775412745582743 1.515230025812829 0.49389554754658166
Ni 8.318728011938274 7.206056599662424 0.6934918357679899 0.002644122491066414 0.5511159626216315 0.6014260237300932
P 0.27557986421073233 5.832202148677269 8.293607048358702 0.890498494587576 -0.5252511790397276 2.1941701818700015
P 8.592614399614138 2.1748843216723515 8.228706220877042 -0.6133672552523695 -0.24752704331552858 0.5323278833808509
P 1.8603854365482395 3.4557295106322883 10.778880776363405 -0.41375349067835193 -0.3279832889900674 0.23851686939711822
P 4.168154432259751 6.419404444854285 4.139511838271827 0.4202648094343085 0.7150245604845556 -1.4699559844663779
P 6.820542717879982 4.485747256243913 10.708971407856533 -0.08998346843868374 0.757114033455438 -2.433145736071093
P 6.770703002772643 8.341486662199998 10.523405144868876 -2.080111160539353 -0.5636040677863131 -0.35064936312901546
P 2.1965236940523503 8.747675335423718 6.104417809368706 1.8231430264155826 1.446547889955083 -0.35344595203754614
P 7.115922880813018 4.251435986516164 1.5808671701650665 1.1525648691698602 0.5054135754885102 1.5117240695420997
Ni 3.005479508113382 2.302163506482714 0.485601893923052 1.0629428978356532 -0.9533935914499001 -0.46782918947683294
Ni 1.5219995234605037 1.6375945391640887 7.218630731182476 0.6479231388503679 -0.940188919834168 -0.7452188246797489
Ni 6.666919553658309 1.3588306478735577 9.705435958922903 1.0466693574866104 -1.22168974899198 -2.283658455839822
Ni 2.7375990017540865 1.7478388606038218 9.58905835868413 0.123892976701935 0.26345322762748175 -1.0023800486509318
Ni 6.40504492861558 2.5564306818577887 2.830169652446791 1.0006898054327025 -1.6345950327374235 0.0021638404205382086
Ni 4.271919681733732 7.264186250950663 10.442734329021135 -0.20325367531944996 0.116934800216547 0.888837047724753
Ni 7.1672640662494995 6.5846480794415 11.937324284127646 0.40577664312046247 0.2643196893928351 -1.75775473081776
Ni 7.696373110418982 4.269280733882512 8.517530873354842 -0.15511696771322317 -1.1870693307046332 0.6190895024481273
Ni 3.116633811570777 8.87772996538795 12.40866584985192 -0.18302654963929768 -0.9278129147673183 0.80936399189909
Ni -0.05283355594544702 5.137276181249445 10.478241827350299 0.26402889762529363 0.16720732321885398 0.4374716602308982
Ni 8.795585888653614 2.6178089689490807 5.52799243022686 0.12040347549143779 0.43069988872470333 1.7122166371766447
Ni 3.936727805527989 2.9214881678831928 11.53976679034145 -1.0416086551342512 0.9833921946945194 0.03013667148438036
Ni 1.2103943811525566 3.711634653639154 12.941007150148137 -1.416224556381193 1.0009114345252053 -0.2562294561855329
Ni 3.384141225302831 8.471204598817694 8.361877539251765 0.4063343153961454 1.1267723335867885 -0.8393317419057739
Ni 5.687487708408505 8.063969446273664 3.577337687508583 -1.231165549692899 1.5110980059223265 0.46309476011564116
Ni 3.1204739356853097 8.792764944398863 4.128071544345782 0.9005515079482039 -1.2694389913518007 0.28459232359894215
Ni 3.848532348376203 2.8713026596091415 7.256215718457963 -0.09606001365006683 -0.4924009652789262 0.38317664633275944
Ni 5.098956838485703 5.00962390381184 11.890948870561544 0.2416345890904935 0.23251668594962535 -0.0025610758589568795
Ni 8.673357104041274 9.075268861781984 2.344443090987319 -1.553997890609646 1.0607196649320894 -0.46864937138528323
Ni 4.350915220686957 0.39565563136928406 1.735228329803064 1.4317910433608825 1.1659831994582952 -1.3168038537890097
Ni 6.131067542737951 6.015690922718606 0.7000619059355084 -0.8183304570637584 1.1500603575804516 0.48366589939877347
Ni 8.270189571116193 0.3380719692916422 11.418208662476125 -0.05082428174071892 0.5665533802226242 -0.5464653512234976
Ni 9.44069944043463 5.232342002634578 6.298575212585109 -0.8358625524102508 -2.154741029340102 -1.612645525049526
Ni 7.346102832180583 6.792315075692111 2.8536362687182546 1.5204455085754975 -1.5152950747228096 0.025748826829329847
P 8.425978492539901 1.5819855380647732 3.7093906379835997 -1.718086208583544 2.5011059061611505 -3.0467644452126366
P 1.9972103327238753 3.6800673774464645 1.7125470280128423 0.27181162689450605 0.08620626078443863 0.7485072656230335
P 4.868849685679552 1.1070841226874069 8.290917141514493 -0.23715624160416574 0.8993119791141481 0.3311909972940877
P 8.510652319283336 2.1276562549557014 12.67502304631365 0.654549385917634 -0.16229163108479147 0.6141956646909357
P 6.4965436204914795 8.270644562125023 1.4057948198050858 -0.15031980343489595 0.08889743446335659 0.32435340554696396
P 2.0163017554544207 3.3661053817127726 6.1530035692557075 -1.4072308375230151 1.1488653088310858 -0.8390687180523744
P 7.199450130214199 4.171739761409339 6.201362743620311 0.425406501536248 1.5177157683491602 0.11551015195487849
P 2.1380573494175765 8.801528071228946 10.340874581892137 1.5390680087726911 -0.5251367649490505 0.5047016370231501
