# total energy = -381168.74539773876 ev
CRYSTAL
PRIMVEC
9.25767985533261 0.00000000000000 0.00000000000000
0.00000000000000 9.25767985533261 0.00000000000000
0.00000000000000 0.00000000000000 13.54955024889728
PRIMCOORD
 96 1
Ni 4.890943203079128 5.318138826320861 8.605563056088661 0.31645343397359693 -0.5022410912977996 -0.5600585165269
Ni 5.048434847733768 5.847418882057697 12.607598680217219 1.1812866625845848 0.11427756509935803 -0.9253623963442967
Ni 5.726374721826131 3.4019102497998985 4.412735913932387 0.24693131871305862 -0.12225646953977656 -0.7476606013520221
Ni 5.197788992056205 6.518646938469916 6.483879722886769 -1.4568842388840844 -2.2457678514416353 0.20575844401917467
Ni 3.4573822657163458 7.053444571223809 3.860008933176927 -0.8945060730850724 1.3650434055216876 -2.072434617830702
Ni 1.688258217385028 7.693187259456484 9.146921606345888 -0.0333340953757555 -1.5318375524625232 -0.8100057392481469
Ni 8.97212643282786 8.749220024410599 1.0224181304760422 1.4079353197892073 -0.6079476268986949 1.983450794301126
Ni 5.12975430497844 8.687758289819596 3.486502296768613 -0.2220504963109789 1.3329856057551945 0.22039984808143334
Ni 2.6457429834355093 3.0846866020373844 0.8202952126683329 0.12646536541480152 0.30709256158398723 -0.32640488875935403
Ni 2.1797854558809986 1.9698305411665278 2.855595137906877 1.4046227104762068 0.3247979492835503 -0.18091490261293358
Ni 4.218345010092204 8.26428425376051 5.754155166646236 -1.3418736522734438 1.9412649049616955 0.24161324893425482
Ni 1.2153296571227263 1.6073183250022678 11.45167277551957 -0.5667937783682045 0.9378934389317717 0.8979315538268535
Ni 7.215398417425801 3.41742612074048 11.045457831461992 0.06720375154000684 1.8043140666345374 0.1162280039575095
Ni 8.540996295773628 1.461482098912182 -0.3268840363821425 2.031939485930133 0.5853504583244693 1.1314126605722774
Ni 0.9132330577593233 5.228959599130751 13.454458804379584 0.3871615991224365 0.5743420230291076 0.4625383733915389
Ni 5.490794550092848 6.14300733269125 3.8740056189019065 2.1148123114659647 0.5384131703429824 2.1837867817531484
Ni 7.280748377431509 3.9858013572542124 8.600550022607559 -1.4080422776807169 0.5131320271786904 -0.6556490467397159
Ni 4.426244719944616 4.246988270647192 6.404411801553861 -0.8168266188247223 1.1480029608307907 -0.3725870437423712
Ni 7.6335863184568025 1.2854380644216674 10.952073766216266 0.09688945152989765 -1.2955097202969235 0.8520209073376681
Ni 2.91029043450834 2.6010191334868513 10.362058703733792 0.5339196533480031 0.8677874261433054 -1.0551617112283376
Ni 9.032736460899452 3.8485284847560353 6.414451755035402 1.3430766714426094 0.49968464342453295 1.7486735944520981
Ni 1.0032547337892856 1.7520343718657367 5.135794015122614 0.07483375728143886 -0.6236017884961841 0.3064119905771949
Ni 9.1159722578128 8.978088378463738 11.966352544824192 -1.071376116204671 -0.8644218521051822 -1.4637547407516727
Ni 8.497022317869234 8.666854449375782 5.026530252129644 0.47241423774435415 -0.702346707906571 0.8470651059942894
P 7.77359946410439 1.0383876277150061 6.3340626945863905 -0.4414951795679945 0.41475364980809215 0.7790316594641358
Ni 5.226950682666486 7.764119600236159 1.3474922905044355 0.5454376812899316 -0.8784477340706289 -0.3318689971977188
P 4.3775956138630185 3.153017534861032 8.561689986891459 -0.6576411374690803 -0.03316517389805901 0.23375852877652648
Ni 7.111814240842167 6.219836815349895 7.731725127923938 0.3573853963012684 0.17050064925814507 1.7041099489091103
P 4.67797954250804 1.752126948661325 3.1217210233444863 -0.4673815604164531 0.09925795176207422 -0.06044072178456041
P 3.7618025426490123 7.266732250579456 8.095734310872858 0.41651588391483757 -0.12668185230098183 0.2578767619809688
P 5.43649825948037 9.53707632790483 11.706581130635758 -0.24965026030611842 0.22196513568602416 0.6200510950304483
Ni 2.0979197955423565 6.474348941780964 11.566098620634536 0.5965992917654113 -1.5489572428619454 -0.9896469173549794
Ni 6.8853158527560865 5.8887266482491505 10.160834706611244 -1.4632001537997832 -1.6362683066747885 -0.18061691175654054
Ni 0.7616292973040927 4.291693605236731 11.050009832501063 -1.0334996528738716 -0.7653083963407723 -0.2050501050982404
Ni 0.26819405105104943 3.469500568258841 1.976432192459922 -0.405847605567714 -0.9051666381227121 -1.2433677481860457
Ni 1.6725942235715052 4.826815256775184 2.8400801927342516 1.6433228995287246 0.589820578280681 0.48209855491165365
Ni 8.029231769762077 4.176648421359279 0.029835649682163973 -0.5434540752009995 -0.9397050382192138 -0.49320880589220223
Ni 2.1409494901317503 8.660318527607254 11.119437800352431 -0.4456104872879487 1.9879916195942733 0.6009349430262876
Ni 8.508612932676877 3.3865147286935815 4.350259537661737 -0.03844904800481765 -1.780080905118786 -1.0465793688759653
Ni 7.026717650337497 6.277345520769282 0.4762242941852417 -0.028700710368802188 0.8253354276266818 0.09295849190660765
Ni 4.543678385148244 0.8648070617550936 7.87568945120723 -0.011843015381515087 0.47177351883656166 -0.4227510661912719
Ni 1.737796060704272 0.7487518650377747 0.3106488437398404 -0.4143291606761638 0.8148931492474354 0.1549310769546622
Ni 5.9545394922328 8.079667607998527 9.24111849585688 0.9031622060981735 -0.9153844591959783 0.9169330346300207
Ni 3.5822868783239405 6.010687318757041 0.666239092897971 -0.7221110350176919 -0.5980393666460475 0.26090192196053774
Ni 8.717281029932671 7.20034543046316 10.11068770797703 1.141001846922609 0.13143402227398657 0.8797739090812203
Ni 2.8831006296440864 8.721419212695464 1.9619337405028547 -0.0935642438114066 -0.6631623243976256 -0.27236415696386646
Ni 1.1030617771129203 8.742924802310602 7.091644534387368 -0.10142924838178015 0.7759280808381475 -0.12270795525489835
Ni 2.4437404154620648 5.178708914485478 9.580994759731869 0.9313314694435381 -0.7471360963071196 0.8571206904580788
Ni 7.529604061652139 2.4157174194375175 1.9187920279907993 -1.4620411004946756 -1.2685689300420218 -0.10585643091519834
Ni 2.1878581524562897 0.7982332365117099 8.690518929864036 1.782610613519175 1.3455883821208698 -0.6577612079867123
Ni 7.371353287273677 4.625210769022768 3.0044364067817564 -1.6895891295851162 1.3567523691574892 -1.6354018449094352
Ni 4.758447293233301 0.8153895682701143 1.0292077126644807 -0.009239259210080862 0.8346392215261109 0.5900164963415709
Ni 5.233616211948838 1.933781136964484 10.26875703183614 0.12901924218490682 -0.34889021434606365 0.2174165970833933
Ni 2.4177170782222226 -0.07068238343158804 4.319081524443544 0.08349503250086265 0.21646760290656267 0.08507986048947927
Ni 6.9888074525441315 0.9639003379847433 8.875050404974075 0.49694436167523454 0.4560712776099565 -2.3976951085729676
Ni 0.345209613068826 5.025031433809071 8.556567712791562 -0.7603227702007228 -1.0206132838295068 1.4785144155593504
P 5.4674189092068275 4.901608049930888 1.2037964399283485 0.9783605458078828 0.2806397667090973 -0.16355250007508607
Ni -0.06839666234851546 6.299869455135891 6.759464179529624 0.33641393625592386 1.2332496859154372 -1.415756101385207
P 7.9901551043443 6.157486343521244 12.005876356164661 1.1165431996596125 -1.4863668217242336 0.5332030868969527
Ni 6.326392707071908 8.516574537097462 7.106549398477068 0.03520534425653937 1.5202971559230913 -2.4858950027486673
P 8.82120774065998 2.8664645794768875 9.311684232526027 1.257962615281085 -0.8171554629190507 1.300718775301689
P 1.3799126843194218 3.823125412046634 4.8427171729533685 -0.07867652806629676 0.3755553823420758 -0.032009463027061
P 0.7201086044827867 2.9355916727425937 13.306958973272778 1.349383587497244 1.3798588732679655 -0.22294678287300315
Ni 7.078403275314388 1.1188276054015902 4.164860617977035 0.2985675548321116 0.9597496155749149 -0.32541707092478794
Ni 8.837908594584091 6.157958485178744 1.9551321233309897 1.1952251270425478 -0.40811480433533587 -1.2622674133040261
Ni 4.965560100323214 1.3191730487340063 5.286248897544595 1.0400711354438024 -2.4035777926059896 1.0309486043172438
Ni 0.16767786947320917 1.0430349828535337 2.853792667696775 -1.0221883416261106 -0.6154501059233272 0.07300416027186782
Ni 8.347862584817532 8.22491134259685 8.078987168550954 0.3572630117907912 0.4184935764664986 0.5370394299239074
Ni 7.260011175219753 7.476085416122604 3.2335732335421015 1.1152933864129115 -0.8239246633220842 0.4184053876280665
Ni 3.525555817987494 1.1509332381115767 12.419124359383076 0.4632765371091441 2.079350114003612 -1.0186980690846648
Ni 1.2609052135907952 7.808325020129524 13.037755835149817 0.8913505581752262 -1.4116320519145042 3.462851983340804
Ni 2.2366183506925927 5.83187523807844 7.406360276757398 0.46861440438228974 1.2660626186804003 -0.828865038046495
Ni 2.8340164126232246 4.332131149549656 12.231233272361141 0.8951087396660778 -0.6437309551458914 -0.18745270373145137
Ni 7.200919406595807 8.737888624630605 13.40227974508221 -2.5963040860315543 0.7350765940394244 1.1130182172254897
Ni 2.358180940979453 3.4867013368791278 7.454054916076481 -0.10702268330915762 -1.0250204117582669 0.3130582922491189
Ni 0.3634463160317448 1.824697898722912 7.418825742283348 -0.9745460571577991 -0.3956866058743121 1.3058303854966415
Ni 5.000294914027906 3.4341825207419436 13.287528955414727 -0.9497274554522226 0.5445357383009526 -0.27372118521239314
Ni 6.986048664035603 4.718389313782288 5.936437025623484 -0.49043072892643286 0.5141704957455339 -0.9190495667523915
Ni 4.866252971695756 4.296840875071435 10.801850325783255 -0.08206781313603285 -0.8718081172669243 -0.3063906504209562
Ni 9.538002095860712 0.3758664189278572 9.636670444598609 -1.936239683832962 0.17278995951295403 0.146161044071516
Ni 3.8616836474091176 8.734722498221489 9.706368736693097 0.2750419609063457 0.9274251924105964 0.31142769862423136
Ni 5.898465727145029 2.7874039960445676 6.998112346268701 1.7823874417647756 -1.7389913341673278 0.3229508687724825
Ni 6.497854190180807 1.8276510985021757 13.124134614273386 -2.1326079448864887 -0.2413463684261134 -0.82638752304028
Ni 3.7248829165684394 8.238242401161548 12.960984675872394 0.6336851408741151 -1.2374408411786495 0.13314097766276425
Ni 4.220076196169702 4.803208173900194 2.8976250031039186 -1.940622129171374 -2.002627367229577 -0.8065311504359851
Ni 6.583200738033566 7.734133976145142 11.578673326779283 -1.0448348753810328 -0.20938344236627165 -1.212306508004867
Ni -0.07087124009458795 5.8962994301282645 4.267850451532992 -0.48472673656312 -0.63960947677835 1.5419576716156607
Ni 3.4363025293609137 2.7596031843294324 4.824736907714229 -2.602313782560744 1.366281391693847 -0.2909565752540731
P 7.013405107131915 6.963441410552965 5.5828344002666315 1.4989104627171992 -0.03787466355858639 -1.2222790458365467
Ni 4.325382301151277 6.534533116592851 10.431582025684616 -0.19160272134408293 1.0178439486144857 0.9108850286637281
P 2.8301744756063147 0.7636215499451506 6.314117023976914 0.5311253784323176 1.0157886087473538 0.624819205843053
Ni 0.7458866132143199 7.793086879575706 3.2010269352851153 0.6294723883443482 0.6768303088030214 -0.469212957198237
P 1.895537662707 6.5913197230066505 1.631677131457434 -1.9443520285274511 1.742369249500625 0.4137591471053068
P 7.0489731119969 -0.003795648619116057 2.2165439983372477 -0.15795418005170217 1.3903122073908054 -1.4258073149736217
P 1.2650063656353523 7.583159737899911 5.438897850022015 0.41127057635549813 -2.2779539492558767 -2.2659769793996585
Ni 2.725479377475623 5.484323432081233 5.068317566122245 -0.8060017602950763 -1.2250326973222838 1.3948108665921075
