# total energy = -340876.5430966618 ev
CRYSTAL
PRIMVEC
9.19948862684530 0.00000000000000 0.00000000000000
0.00000000000000 9.19948862684530 0.00000000000000
0.00000000000000 0.00000000000000 13.46438150394804
PRIMCOORD
 96 1
Ni 1.095649891235387 8.588440156170497 4.321231616474701 -0.30305618673108453 -0.28603574091368805 0.05128193810342781
Ni 5.101374007229084 1.3594360269819799 4.663442472477488 -0.34070305054958094 0.06627275508530522 -1.793561456103724
Ni 2.4363097620110894 2.006767240902074 10.94464353141167 1.6691131211189512 0.8677995103281636 0.7457075913907093
Ni 3.242065368889685 8.459233338964635 9.369607369953485 0.5423806396311627 0.4830465206472197 0.6719737520416685
Ni 1.9465013911679616 4.322462508047655 12.492724271360784 1.295440300511569 -0.071942808886889 -0.4889639145729192
Ni 4.485974218194825 1.1939096288342348 6.826481426008682 0.22881301184579303 1.5136709088558253 2.3896169595505232
Ni 6.55939175391046 2.9272772684161925 5.589078455032341 -0.4154609602877619 -0.12999471872429869 0.6895899224615349
Ni 2.4579193607021943 7.00616491714312 5.778050669793178 -0.5786805025034615 -1.013623225664919 -0.8798780387592524
Ni 5.504900374613772 8.732467349490182 1.7126697102098347 0.2130608912178589 0.39118074758415855 0.8716157987504601
Ni 7.069779380722937 4.720717568471933 0.7056430922783051 0.5829259080433769 1.364781667219869 1.2340109895614941
Ni 2.7303254172549036 8.739569354679427 12.946352893488553 0.029476669302878265 -0.137967195406814 -0.5478210939204435
Ni 1.6538656592122132 5.445729264021526 1.9568995731179641 0.061316696631610525 1.2357115171923685 0.04803334925914308
Ni 2.409778436925884 1.4138510019746944 5.4908012384051785 1.2961275563865806 -0.5576362802386525 -1.3547345673965119
Ni 5.61357393329322 6.625388885034337 0.2034319709220447 -2.152306194646364 -0.06111049415807541 0.20036246981458397
Ni 8.57141190279577 8.679193111082268 8.05238687614886 -0.40834748917143227 -0.14481455734595058 0.19185031857851478
Ni 3.30464029025916 2.6261872064488965 8.845169364221924 0.7961081553304483 -0.13758255837388564 -0.3090430004421387
Ni -0.08197848269739275 0.7703679341305861 6.12198459000833 2.537013418691037 0.5346413620053759 0.87566631467075
Ni 7.424585256550329 6.772037932601347 12.406054049483968 1.3865897642338958 -0.2792326019489256 -1.9688978361876155
Ni 7.168333501956572 4.156476135470554 12.07652652839622 -0.1140641635369713 0.019531385164708297 -2.6751035128289606
Ni 1.428974961211892 0.7097258253132614 8.880378566891343 -0.2383949991072733 0.8471095860789798 0.08714651321052087
Ni 6.541452751165609 7.426158369098722 6.714659802334727 1.0140757398213052 -0.9498871209585382 0.9105476999289673
Ni 3.244733220579945 6.1301252174590575 9.749397216885729 -0.8722971410882009 -1.4104652852999127 -3.0288351144277255
Ni 3.8722763345491797 6.751661065380914 11.674372724708729 0.9545367039154077 0.2762920312633629 2.9156106731832305
Ni 7.338781626498418 4.643993833655494 7.100508432450438 -0.13470317994356157 0.7290820670188863 0.10969868747942398
P 7.175426307657229 8.436887781186561 0.4744581041866879 -0.7230939677562515 0.0742819985430269 -1.1802818754691544
P 3.1814959360321984 5.41081720483347 7.316800368468393 -0.1606674652178072 0.900717601212423 0.462798569031461
P 8.1752911237237 8.307625767049176 5.203619883232723 0.6947948637012422 -1.3764238794444874 0.38416215017448035
P 1.716146196946901 7.54633128851205 10.931771606980595 2.2577504777248083 1.4657504310254628 -0.1454035970802012
P 8.755668459706857 0.9248613856158187 9.896886177760742 -1.5019721323616584 0.3593713163830456 -0.4340839747055879
P 3.4504797828305045 0.23371576740192926 1.3607773124179794 -0.1759788987638969 -0.5901815611645256 -0.40146181779519247
P 8.22949451047891 6.545316536372193 8.493156453129577 0.1432513266238888 -0.5820800151033136 -0.23387268575688755
P 6.633134854424679 0.8580041023090472 3.115375531761254 0.2519958777201596 1.2166061638214853 0.07794504921691092
Ni 3.4818684378897005 5.10614854180579 3.6936701035282913 -1.1381294104708206 0.41068205084187975 0.6137716897796397
Ni 1.6510598151931468 2.6768211916323117 7.150569289494877 -1.1030222823550422 -0.3813830447674464 0.32454906649753784
Ni 5.246164758101498 5.860488206971066 8.251174945232137 -0.32422150795479004 0.2063845076389478 -0.4857549207173183
Ni 8.615689041365497 6.982273845282413 1.0101424847159814 0.15747749752559975 -1.6991104388119898 1.0904501021169866
Ni 0.5820728017297607 4.9168782636147315 7.811468829132089 -0.2265833511843259 0.31303926608572535 -0.3662500457807499
Ni 4.9022878747155865 4.470049903450549 1.8182568404683102 -0.33760795656402504 0.04009892490341481 -0.46369254160064005
Ni 6.904142588712148 0.48011670961661496 6.264505827046306 -1.8838781395121103 1.457309242236645 0.44511554992940117
Ni 8.606075575791973 6.821613976597245 3.4992444319330205 0.7183019456842469 0.9906445053815583 0.9396189062633108
Ni 5.58086975136607 2.227389376197979 11.79909295133066 0.37720165969624714 -1.0660238507538222 -1.2025666550092837
Ni 2.327939786455016 3.3221469170404174 1.317438521684137 1.806486391695508 -0.9615869258939698 0.6305566225474625
Ni 1.1784084905649659 6.987591149685759 12.938664880876312 0.1901654746769241 -1.5118112299392674 -0.19267127181791333
Ni 4.298267853063574 8.344092539808452 5.92961960385657 0.5297670646322102 0.0564151455649351 -0.6327261193949555
Ni 8.67779478881703 7.845563053784751 10.472246112668493 0.36676529485427156 1.422410630587247 -0.47285698170872764
Ni 6.917601440515079 2.8939935187080534 2.1554990526852036 1.551349654353522 -0.31217049032752686 1.9536234265270482
Ni 6.548122380391258 7.405054742279909 9.91184454620337 -1.2985600770874732 -0.5487711165385388 -0.6620258968003373
Ni 5.358646905056007 3.822645093621759 9.626412933760184 -0.3643140051003016 0.7308687266056639 0.34882696520829604
Ni 0.5853928971608462 5.917856217800241 10.477039046222373 0.5177888092244115 -3.5192280481376876 -0.7175640390769578
Ni 5.555000789459135 5.5500330656221 5.411712315072995 -0.534889216350124 0.032251660944854134 -0.2850733770004187
Ni 4.385874582878556 4.108960776918168 12.076150269313008 -0.5590020502379276 1.641680221718979 0.10601403953898517
Ni 0.2384755827968964 3.799701569085524 0.7434723092973317 -1.7251150904058676 0.29571877252940687 -0.5642352736124089
Ni 0.12102479205649297 2.8761189123833124 11.431273478947952 -0.15481666286398496 -0.02532433769740155 0.6428932897359445
Ni 0.8140526256353036 3.2013392329145796 9.233401581830554 0.929309811027819 -0.6513694455277556 1.6228864860512437
Ni 9.095681557886186 9.056924112468721 13.316421640830807 0.578407451347733 0.4748835252204531 1.1667995247120033
Ni 3.9327813709865564 3.566310543630719 6.419076554235671 1.131762073491896 -0.3763367405927906 -0.058656890411260265
P 9.162157062416592 5.090895789728373 12.478963676332198 -1.5067703250812503 0.9797826229663901 -0.3253257967625623
P 8.52657359542223 5.028201275007266 2.3628242471773104 -0.6349077004273065 -0.9697884878681556 -0.2642736666462481
P 5.820921206557936 2.8776460274887716 0.34241232480284545 -0.800066625757564 0.40404834757544605 -0.7448616984506463
P 9.098487401905253 3.488924445636008 5.901384533485033 -0.44537883089311686 -0.27647046582275614 0.8579547563235997
P 4.213982138628536 7.08114074912801 4.208117464654258 0.7276502196683663 -0.3950723693290809 0.6992966082263377
P 3.5131374995972635 5.501689753096874 0.37334468522812075 -0.6301133643624567 0.25368689226933727 -0.1825149001102018
P 1.032283813847421 1.7637811488509207 13.267896178431556 0.5063844240422118 0.5553315433648759 -0.2750399040238166
P 4.922416355744168 8.497337620692416 7.969392769911452 1.2227567568039135 -1.3479872213703494 -0.11464086197604771
Ni 0.9317426030789717 3.655177603382135 3.6227530859080317 -0.2994085626761682 0.7932375186508726 -1.0426792624906107
Ni 8.587336217540045 2.0371715506824493 4.27871158022511 -1.2213097399447417 -0.5545116185667418 -0.5282074334545741
Ni 3.489605207791454 9.042241728683704 3.4498569774531576 -0.4501968211070505 0.6491153593862563 0.4871641423600191
Ni 7.958449978237093 4.453665614276919 9.468974725978217 -0.43626555573793896 1.4047738913420902 0.2638558623825391
Ni 6.293756520957859 8.20142687079966 4.199514102927599 -0.6825049905902956 -0.2624006179932513 -0.10278833351283588
Ni 7.170955356203898 2.4005697488501943 10.025820690104425 0.6779299696251034 -0.7176054338378544 0.8375111437572673
Ni 4.7233026247649095 1.9584883247969567 2.016089082687385 -0.1507635758405339 -0.7561799516769429 0.24371204044481254
Ni 3.5026132846536178 1.802658187620018 13.286813086813217 -0.3464211839802808 0.8374766909749061 -0.5891814020347853
Ni 8.223349252102725 2.3534959657499877 7.885051858544891 0.06513427060548782 -0.30367530837232215 -1.1580996829451602
Ni 7.808461516312965 4.543397425955522 4.445979441562394 -0.2513744420860768 0.6293530891576645 -0.7701050463984673
Ni 8.541117986878438 8.996069495465033 2.4543545588746922 -1.4889790625361004 -0.7967830699102858 0.5675427407190872
Ni 5.276293083224261 0.08821389606173122 12.681508816554445 -0.4509226435294815 -1.8498339054432078 2.081514725755099
Ni 5.7998267792277085 0.6407131018305318 9.409556149142979 -0.8012943275170782 -0.07339188262858974 -0.23509524531007903
Ni 1.5525148934480988 7.88719993912998 1.8368784452663243 0.5487230369094226 0.9382662488901582 -0.04862496009655497
Ni 7.809878237555378 2.132285063184508 13.13846305380645 0.013415244964641412 -0.6084693037301198 0.9703844695809417
Ni 1.8799706897060322 4.456508256250334 5.676193012207913 0.025214294482098512 1.0985966424835207 -0.10425720474887851
Ni 7.280686856070862 0.2817085794119872 11.624029443364666 0.7217773058273569 -0.29595968489561936 -0.9008687820783067
Ni 1.5571146377416505 7.064130894730456 7.902380015247559 -0.14173566131031076 0.9754292310937006 0.9922041365591945
Ni 0.994694703480518 0.35458692799901764 11.343095460891712 -0.13320499813148026 -0.13134969009029637 0.22925858402364385
Ni 0.10950151265228769 1.7776631771288591 1.96200252943723 0.8344628438492468 0.9497480242775127 -1.2135136409390908
Ni 8.99617988932808 6.268457927343326 5.925970166734067 0.1666823039533194 0.9565380506161526 0.11253564270758684
Ni 6.573393375540031 6.54646647244558 2.4037288532310055 -0.7249976125368676 -0.5330362223017853 0.1265558682460788
Ni 3.9976009675712847 6.97412309839424 2.1345757358426964 -0.6736130874173044 -0.5258947261609975 -1.5465221510578913
Ni 3.1566573168470202 2.7875278372895096 3.665583144923007 0.6961248953665754 -0.3272592663398493 0.36102813526017824
P 1.5137942459849822 1.3798496921567616 3.538547407023701 -0.46165468523500497 -0.2073764392385719 -0.6278448800432542
P 5.983568164777918 2.71788770868514 7.791635651687153 -0.3276554733370034 0.04588622100915324 0.06480336962863033
P 1.2633933661326242 5.95723922844163 4.145292317195214 0.9428952630217373 0.20274151156972184 0.16306759001886756
P 5.2532023668706325 3.8387901960921247 3.9393010485482365 0.6643344903288559 -1.053850962836714 0.553180558460144
P 4.233301064661452 0.5436925353443668 10.966617429850825 -1.133047625072539 0.807218920531629 -0.2478402036805732
P 5.870626043394054 5.6342359846598535 11.087837251065363 -0.5304633193682864 0.5530684583623119 -0.3062710941239564
P 2.116149160202729 9.271152603196589 7.018685421110168 0.10937807091521164 -1.9239300132276733 -0.15620403012981485
P 2.578561454033464 4.168849447620208 10.24223405937173 -0.23950083057694238 -0.7596146883901047 0.616481632511635
