# total energy = -340869.3817042497 ev
CRYSTAL
PRIMVEC
9.23433735923836 0.00000000000000 0.00000000000000

0.00000000000000 9.23433735923836 0.00000000000000

0.00000000000000 0.00000000000000 13.51538614636866

PRIMCOORD
 96 1
Ni 5.537102717363237 7.312884297318552 8.262158499306677 0.588740972063257 0.3878506547696611 2.0838629142723013
Ni 1.6440999264615244 5.958447071193157 7.157668011139329 -1.6816693605174071 -0.9297335288287988 -0.15177427649323538
Ni 2.054446184266822 1.325293656810781 4.287877839572124 -0.272603269557866 1.0773621585847768 -1.1159968402378393
Ni 1.9363944130000186 0.8974852666943504 9.95875840505349 0.23380429441279735 0.11202579295070383 -0.5777510487106565
Ni 2.063458897717729 5.354179724792517 1.0441376282277006 0.6065088375696394 1.111440845436041 0.4118045944820972
Ni 0.8366854648171792 6.288740856758786 2.877493455953217 -0.48322238410345164 -1.606637371182233 0.14595818403209054
Ni 4.246059218533415 6.152054192311726 10.071612167712185 0.3461399052944361 0.8144594041441263 -1.5370386370474884
Ni 9.175099276762076 1.058670628667289 8.270321653702785 -0.40641376248382916 2.590866717066067 -1.4183593433360089
Ni 1.4519702993513002 8.666499667401805 7.660128632894925 0.9212239486958909 -1.7656562450530235 1.3983011391335531
Ni 7.976131357664833 5.919792134199819 4.275362541887682 -0.6121431530372812 0.34888892879448297 0.44743802741499067
Ni 2.2260663476737 7.965862774306832 3.401106251305788 1.257246563050667 0.9110539501414245 0.33475377494468156
Ni 3.7182614214022056 4.039367041103437 9.416764660803347 0.3119162082248757 -1.5633415366080754 -0.4575324355365153
Ni 3.504172539592947 7.281450612291001 7.39717348362715 -0.5030522743451852 0.2129544475469816 0.20888413413234994
Ni 3.760647030766616 6.2445914889219125 12.203502123860188 -1.8938776739269834 2.2477673983701676 1.186899380785672
Ni 7.362509627323855 2.320579792520049 9.207951356037638 -0.11977072700344535 1.0096567848180031 -0.7481614522478406
Ni 2.1439269151472438 4.087163972273413 3.8772674797128346 2.0915852226172236 -0.14245659863673532 -0.9016817648979052
Ni 6.68482929738355 0.02738627487843847 13.239726848239444 0.8830145275057051 1.642971172616261 3.256629969421649
Ni 5.260645119726697 4.706640272622458 11.69264748926968 1.0685021370909855 -1.391510341463965 -0.34201225627930776
Ni 6.689344888446556 6.71044534975324 12.21678756529648 0.2584274922781162 -1.5367853833861018 0.44467486284755675
Ni 1.1123683015330945 5.324879171739516 12.156238937400726 -0.42172236781644146 1.5573158992392857 -0.7198332947271087
Ni 5.931898350730699 0.24339589889854596 9.238955644369012 0.3829791856099727 0.20391367750095205 -0.10228079774879804
Ni 0.1953117798306979 6.872129365953994 0.3804066885936868 -0.9547444490508394 0.6456893644238428 -0.5588097317214634
Ni 8.374066665800028 6.191604860047624 10.19076374858145 0.4280004875156693 0.27977767581911817 1.1788325446171377
Ni 8.61374389696632 1.9156817938705255 2.4850064069737954 -0.05650461995494785 -1.0347615503054308 -1.1803934613463543
P 6.623624108087839 7.629104952454691 10.141865160941501 0.7591071526260668 -1.0196007834045926 -0.13131626574919966
P 1.1706923775125317 3.0901879527920992 9.02818373660849 0.18551023529309985 -0.08129313975353741 -0.391953364084125
P 7.044118902862959 1.1019150314240502 7.340814474678813 -0.44429511091063484 1.5615541056903492 -0.012266476072178874
P 4.573591937170949 4.285776104345252 2.4248086839050247 0.582818435931235 -0.8390532914334066 0.8672917174538096
P 7.032779136348908 2.3710269785674947 0.4166865539686098 0.769092803083869 -1.3499826545338234 -1.1452390249324083
P 6.74992214278872 4.432020308158797 5.611061450252236 0.25620194538170715 0.8936331835618158 -1.6055708775909316
P 5.482601657130394 3.0209673585011143 10.230958049644732 0.058970822107253275 -0.08664591942501852 -0.029267638615865718
P 3.5664396777071565 9.061461518845205 8.741251629886532 0.1754428237547688 0.5710181008621973 -0.4194531121662905
Ni 1.658468555692684 8.875288039456125 12.23232987883052 -0.6193247583873849 0.6827705855468564 0.6649597826176806
Ni 5.234622756504711 0.0907781553065008 6.407509212619637 -0.4360961200396103 -0.2968163764689598 1.331450657167907
Ni 8.675743239291517 1.5676765488798547 4.993637943141035 -0.162734632159481 -1.4539380117715668 -0.5975739969738547
Ni 7.1537489582821925 8.83618061992273 2.1228347647443573 1.5979701824255383 -0.1691672751587022 -0.874618590132526
Ni 3.6934672250746585 2.1911328487138815 2.8122814875936237 -0.6163582195598933 1.7676555348712395 -0.9885490563051104
Ni 6.142099576430498 3.764303828437271 7.617055988816634 -2.376950419826448 -0.193884318289408 -0.3368245414307812
Ni 9.151911855168605 8.373170935057468 3.6273539853699743 -1.712955058004566 0.5402887900991405 -0.4841191848861082
Ni 3.1787544842548576 6.050679634664123 5.357648141977108 -1.317832295053524 0.37161773785056645 0.4099135481069715
Ni 5.972215468483426 7.032058858019839 3.0905093077389147 -1.1434078852609406 -1.5085721541766794 0.4847233941290103
Ni 4.183801314756758 1.2447425303432962 10.701767056006547 0.5555035501663659 1.6874733687936938 0.31849746098681925
Ni 4.544023588328936 0.6225310192113005 4.26814590709067 0.6228104029431403 -0.14337808200974014 -0.9368457143935477
Ni 1.0321865485676964 3.2455649164447293 5.865934707294361 0.5060944036056187 0.06680574477063977 0.8681851758023565
Ni 1.5443229092104442 5.675488499919895 9.618049210162782 0.37390267723000126 -0.12376673553671588 0.3976262460991862
Ni 4.454071906233353 1.8396739614787034 8.17314594934015 0.5896627125465781 0.29278977180807 -0.06344042784283267
Ni 8.717879521542018 8.369911213901556 9.181502366420743 0.1368384811190095 -1.4351751293417672 1.0123872963752885
Ni 6.717010963752824 3.345794416235865 3.5175955726587658 -0.028892514664634113 1.2041584249764359 -1.8667512500238366
Ni 2.228818180264243 3.4178591864929153 10.93282587993541 -0.7328453907160605 -0.9442260660180191 1.593093313949211
Ni 0.3205007705915647 7.616287691932294 5.736767563916024 -0.24621140982789855 -0.7185950514446333 0.7179378774766088
Ni 2.2067481135145828 1.803558467312209 7.530691846860065 -0.03382363341766433 0.14299138809428275 0.5116819249957252
Ni 6.418132394539641 4.301539118546788 0.9279013277236523 -0.5647345818463306 0.7166160733413917 0.266046956496587
Ni 7.03886456479578 8.317866487457588 4.75724074867327 -0.2502727243814657 0.6185680827270185 0.39046340980215977
Ni 8.626727375564656 4.5933626538701215 8.321828941701218 0.799584543914823 -1.5858536016676623 0.2205569424845879
Ni 7.977544211310313 3.0156760830837266 6.690427152807669 2.103428495109055 -0.5834051616726403 0.17460335857260897
Ni 4.6383708150993455 4.503263222373705 4.747239037670527 1.0048714476142175 -1.7000285797508852 -0.7198744323776892
P 4.208373886983054 7.7220577942547255 4.492838578711073 3.0245280024119396 -1.463829559853666 -1.627117750523772
P 4.612754762729657 5.358178192952602 8.000189577289472 -0.25784693718429785 0.7394906639467199 -1.3059160032319121
P 0.9801787594739358 7.48612970413461 10.76216701106771 -0.16032859382114967 -0.4045625682077032 -0.33034304747149557
P 8.798190555233147 6.545252285282664 7.8179212992512 0.36998380179156926 2.3600790979924064 -0.5996437350186898
P 3.819783728450644 2.18813168900943 5.714292109747824 0.2663961123058896 0.19888048595241878 0.25474772943368384
P 6.265377982751823 7.363109859264746 0.789965257405785 -0.41679587704910154 0.03329475749738782 -0.6026956344711363
P 6.778216153048535 0.9972715182829824 3.56153439759945 -0.4205687138279725 1.4891772945898352 1.8565534835552284
P 8.055380442537462 6.705541916513043 2.1215234888119507 0.41355602995556523 -0.47566359791958723 0.5661785133817088
Ni 3.073944753037851 0.9427519893750347 0.6301170275103992 -0.7497012859311347 1.1334307194435707 0.22221196158950762
Ni 5.872604669308285 6.394344741005279 6.222281329395896 -0.12217136602513798 -0.4657226846567915 -1.6700759992528529
Ni 6.47757382536289 5.171736917774508 9.273609342900999 -0.4590043920963514 0.48111022285645527 1.7083936638861286
Ni 1.5613417933190736 3.5014576443526124 13.48347642226624 1.073303929355003 -0.35398922613552586 -0.0146858841469489
Ni 3.3793981705881726 6.057448404089856 2.946475804335356 1.0657459145020873 -0.18955149524200907 0.30138059880087453
Ni 4.582826274723109 6.033780796943671 0.9008585702021541 -0.08366523953013978 -0.5449111193625004 0.06987924148964093
Ni 4.923111613520175 2.678613528092365 13.007721504711487 -0.17120461730370515 -0.5076632907546353 0.1050771295470126
Ni 9.135733295777221 3.7420121375863586 3.8666304462865027 -1.3845974163942154 -0.027190958592495103 -0.8529063952664149
Ni 6.794754851604452 1.660038393076551 11.320838892370809 -1.043883567211357 -0.3485634271342642 1.5720400928233378
Ni 3.2203828779399912 3.909209053305753 7.034812537477893 0.4063222312112873 0.5460308347892403 -0.7011503736056246
Ni 5.632918203804442 1.5353101957595368 1.6709210598817705 -0.6583998700119758 -0.5891387217223079 0.7465465423522368
Ni 6.147501663898512 2.2894970123194813 5.361567194834245 -1.4499060077940384 -1.5272571321806923 1.6723449977926876
Ni 8.994577211954915 3.775440439525175 10.5644099786532 -0.490245095278188 0.37082480963562586 -0.604548628519475
Ni 4.460905316021951 8.448947909010487 1.8191709618116445 0.27045331309439874 0.15903687159291965 -0.10120247708295474
Ni 2.261673953274826 7.786199502892023 1.0277272869637588 -0.030491226610321682 0.22309102176035128 -0.2345766538024476
Ni 8.669399249393184 2.807663395383789 12.620451856449034 -1.1151026105583441 -0.32620511404372204 0.672114648494907
Ni 3.5172668302419092 8.234129514534608 10.807065283680062 -2.635266069117048 -0.8517172600543204 -1.2179917313151023
Ni 2.71729616809836 8.559399820471864 5.547728669584508 -0.8475572151393596 0.6315146155853575 1.9270274212060747
Ni 5.482592422792842 8.695135348151052 11.667265065640061 -0.5847917576075219 -0.10710830104442844 -1.919812134404558
Ni 8.923648265216782 0.5477864441966137 0.15309238854222612 0.8979294969443246 0.015394994398831552 0.4712209887672013
Ni 8.871797459861408 4.561744282091529 0.9345943755814573 -0.6571508280962232 0.4756453430871422 0.6031718027766063
Ni 7.263517528764709 8.310552892116277 7.194389277849245 2.1588648217004884 -1.704529295834716 -0.7088055761580373
Ni 9.006794240536422 1.2470141773811274 10.741948428997256 0.4769584054716109 0.425392360468861 0.35156441874411715
Ni 8.182998987508302 8.514502471293264 11.586159878919446 0.9006790346650037 -0.4190450780945944 -0.12927018185344832
P 1.1620305688886066 3.296002868154623 1.982166253944806 0.12301134542793009 -0.06663245241756911 2.417150903304734
P 1.3313236792323406 1.8436724296387883 12.491001218907847 0.4328483025262739 -4.2922312420195565 -2.317636869667796
P 1.138741569582061 0.6890514932020344 6.04341867504686 -2.5492009618961644 0.28485431901107716 0.2518909767111791
P 3.4645295284815276 4.382949038406623 13.150781708937046 1.168582070533723 -0.36568157487178954 -0.5754188010330542
P 0.779041959515336 5.376037401778477 5.0072752128380635 0.6343939940156816 0.8752935047123634 0.8899601055856029
P 8.011785134953719 4.846365034124179 12.323478331072861 0.0038180881945095537 1.4342158507522913 -0.10841647833289071
P 3.757673574074821 8.518851844280332 13.019263503217932 0.12312010309165246 -0.7045514288673738 0.27884179426841005
P 1.2114896808179711 0.24692341584347077 2.4260119180880713 0.11394280746775862 1.791315597492341 -2.228251696934743
