# total energy = -340859.34003025765 ev
CRYSTAL
PRIMVEC
9.40533773279359 0.00000000000000 0.00000000000000

0.00000000000000 9.40533773279359 0.00000000000000

0.00000000000000 0.00000000000000 13.76566247805019

PRIMCOORD
 96 1
Ni 1.1667038962477243 7.368677472591464 13.42023995169639 -0.18313762129586522 0.5984391731876274 0.8250947723707854
Ni 6.420431349592153 4.423574747528011 9.51240312180593 -2.0813764004050217 -0.5386777368582788 -0.4164521205564376
Ni 4.2418260063968996 4.023123694374453 1.7109757266799137 -0.7893579810908082 1.0296507114414266 0.2997752019869676
Ni 3.665175361215281 5.528419739282912 3.7451132053790945 -0.3604280397823341 -0.13140985390427046 1.2978633081307647
Ni -0.04895101935887934 2.351870469934921 0.8914811492763391 4.620795600324074 3.1583055852174384 4.564472757362629
Ni 5.731057734918898 9.159378482808531 0.7229563126179215 0.877037998207296 0.6531319367448172 0.19725272054100865
Ni 4.922273955817958 5.9226632697110215 10.753005695032606 -1.3225507835751158 -0.1209683468559723 -1.6102811385824072
Ni 1.7402413747291565 7.884832987212364 2.367982753542441 -0.6047021233782037 0.44101875415220815 1.3986160992708108
Ni 7.195675695300754 4.351576889250291 0.21023374617094231 -1.7336246705387754 -0.38584725118638713 -0.55366829672984
Ni 6.395601258690365 6.754819312407015 0.03503111991393805 1.0470084859935838 -0.09591448921113803 0.849295280876389
Ni 9.194554444919397 6.827456733632206 11.339904395913688 -1.185421767798881 -1.1748612186742153 0.17036000991522274
Ni 7.2634129357078265 3.7608464538868636 5.36622657580445 -0.4765704260045728 0.25754740366600803 0.441912212500755
Ni 0.33106881922424175 2.18622366654012 5.170176078527407 -0.39354693382349 -0.5072215752315264 0.2405791512427857
Ni 8.05281231429794 3.81357277570331 7.60015975715836 0.6696096226848662 2.272591142282067 0.9988959467570733
Ni 4.81344479603592 2.359385334567697 10.500749841611627 -0.4718987315605163 1.9509476794670981 -0.20332463776670145
Ni 8.100375105847311 8.27536140934267 12.877446640313352 0.2976969793017002 0.877501825217592 0.6397375177157821
Ni 5.522437944656572 2.5924590022332987 8.01679081234917 0.03385114422149009 0.8427603079713486 1.7276602254252247
Ni 2.589609184982071 5.025789099933514 0.18838702831235474 -1.0318070956627972 -0.17779666869892605 0.16523400154256707
Ni 0.8710894371232465 7.832134881408305 9.566777258745859 -0.40203234558668177 1.3657342609411254 -1.107384930199112
Ni 3.1800762708965395 4.24216459854556 11.160868154106847 0.5403422690448952 -1.6534201358637268 0.6363004670097752
Ni 3.276330494490816 6.4852717460606835 12.223646833525638 -1.7534535323392446 1.624154297020074 -1.1757150820340785
Ni 7.631321521240103 6.343674390558256 8.811221105948132 -0.34688655365247356 1.0641096644502446 0.18406861775056685
Ni 5.6057974505893515 5.998141102849978 2.471019165981141 0.12030860178478636 -1.8848952679227151 -0.23880997515750482
Ni 1.7997301341813547 4.487596879637278 7.05883838108825 -0.561068188738337 1.1594911639760483 -0.7837799727823985
P 3.1696363463128336 6.496398260279173 1.7333858242525229 -0.17297276494772149 -2.7047377907556256 -0.5590840684287726
P 0.3230479474359675 9.058271105083453 11.393259934806396 -0.22710708489827985 -1.2413075232229072 0.3260163950716837
P 0.05271973808022257 4.356467664730946 5.718077428686491 -0.5012486454775432 0.5210116870370834 0.5499445680213496
P 3.102124834004868 0.5999147473958496 3.1483031598797147 -2.219812050807822 -3.5610429272909445 0.18063079571361149
P 2.919473180477328 1.876007421004648 11.737993768830338 -0.0924689538646988 -0.09406715158975414 -0.5450576722426935
P 7.174739414108565 2.3229678679117427 9.45522055109961 1.307259661744 0.45303403344552945 1.1316008653236833
P 5.984117744692946 5.560755289480012 4.853883044457221 -0.538302355796731 -0.12866365861770102 0.03642430426530501
P 2.6861831900500825 7.182056766654623 5.615812253919739 -1.3277081594063391 -0.2612497922182597 -0.0032964113630846456
Ni 5.631878451373692 0.8735978406245747 6.19928364982938 0.027747859537229635 -0.7544732533984813 -0.6248361751239174
Ni 8.481526406527205 4.525133581451305 10.04172046567227 0.7077809915482649 1.2832180474137642 0.6359263714998081
Ni 4.357116633015879 8.061502846113566 2.3714928254835574 0.668591722943313 1.4832277618746197 0.5683053299167244
Ni 3.6395834379790064 2.4424344643642044 3.632290539310353 1.2117776320845906 2.6670184218279807 0.14160813459351096
Ni 5.489114834025878 8.264488839235675 12.422312014617338 -0.5173504361354122 -0.08523618356168547 -2.2911442226939056
Ni 3.6171799241426212 8.095888759877555 0.14626334341772057 0.8658223319971347 -0.8361098925343665 0.5317249596895294
Ni 6.134537306735477 2.840816343275947 2.0902327923948016 0.19586483905454657 -0.5517834210023014 -0.34159239513306977
Ni 4.199191611678035 8.80452450567462 4.575004442814047 -4.123976708483111 1.7847106905813133 0.4709235121314406
Ni 5.843357464224708 5.2603111895683865 7.132430444065914 -0.20922789062501385 -1.0568306142903283 0.6731135220730666
Ni 4.666853206340749 0.20075316600844173 10.334171909808008 -0.819767189510285 -2.866119508431638 0.32129096457155637
Ni 8.402963622700453 2.490439306774327 12.85690820489584 -3.5249484955612322 2.109446933388993 -3.9876881863303004
Ni 4.8758492101015865 3.085486792033178 6.022187729141113 -0.854034081112955 1.0021566197862162 -2.7996765463170554
Ni 6.1797017372318335 0.48586280372072027 3.0582348267347204 -0.8467213495016256 -0.8148406987429451 -1.041172338927781
Ni 3.9167681383451316 1.3882184041715468 1.3737398276813153 1.604212049570192 -0.001036411684314344 0.4746834933945051
Ni 6.589003212937883 0.9937115242944775 11.541584928195963 0.9331505249301477 0.17090585511636372 -0.35036011402337075
Ni 2.0169464028846784 0.2149138420924307 0.854470205826482 -0.8141413586830754 0.7012077092061214 -0.6257404321057417
Ni 7.942356031134838 0.8759764504689164 0.696064571744289 -3.187091141990563 -1.810296766580534 0.30532184283680963
Ni 6.128348594684955 8.135645121332802 4.662622685549982 4.243759262561098 -1.419686803898181 0.38360910588448777
Ni 7.99728320191758 6.194298820974097 6.451263926862697 -0.8596131178626292 -0.4708949728863503 -1.449207181954801
Ni 7.705049961610977 1.6950393228829483 7.269825494789963 1.459122384185984 -1.0918302702939648 -1.5721254534482925
Ni 4.0911430949054095 2.802781158576391 13.381311259937867 -0.2491625220364225 1.0761401132522175 -1.544634190006559
Ni 0.6159724800460851 0.6748865733793065 2.869438666242734 1.2854610778116702 0.69733794183807 0.6252647780209039
Ni 2.4779208026113424 3.0266658115408385 8.669586129095855 1.8435688983701024 0.09176010072313229 1.0006504675543348
Ni 0.9875040015690308 5.663386331874065 2.383772434074986 1.1818430493086873 -1.2523491257490496 -0.6908983568603133
P 2.345484245797681 2.9594740807066087 1.1846370531880415 -0.31643337936893895 -0.04914483715576697 -0.5405939800443852
P 1.2118777320815437 5.298684966416603 11.794419209870904 1.5902707568987515 -0.8746579280108936 -0.3460074934816299
P 6.7687862385392705 6.228609492038384 11.429532559265423 2.577838423127199 -0.32097137644860846 1.4052053224525543
P 3.904936223816932 1.249245137821241 7.547203004574075 -1.0516007333499569 -0.4181500770841508 0.7741869297773247
P 4.329314455475847 4.284836614614275 9.006445814595942 -0.5700367107855344 0.45549020829550585 0.26798556828019654
P 0.30015629658526305 5.876022201233006 8.391823000475767 0.025182669913214693 -0.971272785723166 0.9731496910309047
P 6.3743075746745905 2.05066453768881 4.423981058106404 -0.5008838059389568 0.9328558765078644 0.3324678071239823
P 9.398970049335853 8.854965330487607 1.2536157981402034 0.11498796090282133 -0.8439910950546561 -0.938459595847887
Ni 7.269018516835654 8.130556833765429 10.564746579309745 -0.2170694981566197 0.8576074002865102 -0.8429333432141031
Ni 2.717549990488514 1.392629507441599 5.72045886013207 0.44810625712660884 0.34143607206086357 0.059874307758129144
Ni 1.2558194687077369 9.25409023105891 7.308630036093975 1.6569967974713917 2.7143107791560412 0.1761683890668837
Ni 4.831296126540312 5.229019631829657 13.244893423776203 0.5858988746287715 -1.1639677116901632 0.48082303063333964
Ni 0.5490215258509025 7.326842531556937 6.8769946460487645 1.0032827629708592 -3.0539961870743855 -1.450728503695334
Ni 6.212121935466098 3.7548552539230613 11.919356891125474 0.11752101173732017 -0.08207012712887801 -0.1586424643679784
Ni 0.8092230083604526 1.3263312836663348 12.814221140287183 1.7476142999496482 -1.014892836405962 -1.3908341413325465
Ni 5.09985613245305 7.58912917738199 8.32311889137752 -0.0209658036183897 -0.613356456619092 2.027352637890399
Ni 6.424814236849817 0.4734675094784985 8.74169120822065 -1.3355564518061644 -1.3974824998869997 0.9850623833080905
Ni 2.74761885435708 7.159719090180477 7.924519749170387 0.06808255460053436 0.015432532504986324 -0.966160404197265
Ni 2.4727290563318776 0.3205263764621913 9.298237004041791 1.6134801051356793 -0.2810064060198967 0.653081800233172
Ni 2.3745561438951905 9.010915230958263 12.26495695672974 0.8736140601274115 1.0201471428263658 -2.09605302858059
Ni 4.706731837183012 7.048858377506475 6.0082988673098 -0.2577883160322206 -1.7865004354918845 1.0120952190561665
Ni 0.2728356723233269 6.638023831793988 4.324840336444795 0.5540799303459619 -0.4534050436317031 1.1233926184812781
Ni 8.536763953446219 6.814317477196678 1.4585684473257843 -0.9288652672912325 1.8661586107451602 -0.01760845711038258
Ni 8.087141796037153 1.862915191256433 3.058716380012816 0.5314606502845491 0.527071520077918 0.6429385411515831
Ni 8.843265090683886 4.100115786844919 3.6849989909856204 0.6553507987730067 -0.04390055803769213 -0.9353467612505181
Ni 9.101366361337993 1.5015245045858763 10.519195589443667 -1.2879388499282012 -0.023096991028779577 -0.9743506533175412
Ni 8.2068905526135 8.701244494995635 7.895212717636308 0.26850493111877627 -0.6781315441129482 -0.1988861423793736
Ni 8.42920451422166 8.607981168714527 4.046003118286456 -0.7843844391356167 -0.06382506487576105 -3.043092138567372
Ni 0.8631381648321969 3.5121223046831664 10.456534409665267 2.605033752595068 -1.154052252348664 1.025290891810834
Ni 1.5687162354201063 8.839766305147725 4.844370486147347 0.15462177324435952 0.16086672571280683 -1.0560451422745554
Ni 0.05910220008247741 5.3445830132350585 13.505862381822718 -0.9380248223033135 -1.1604087906943112 0.5832393255187375
Ni 2.1056199244839395 5.863644777131964 9.83994305841413 -0.49382767042312364 -1.383272784045521 -0.3182339229127874
P 6.70589274692554 7.715264158095576 2.610505963756916 1.0324511570046992 1.4639285473253756 -1.2137753792409096
P 9.076432811724116 9.030863951716858 5.852759980086268 -0.6971265971582123 1.6350205503106163 1.9093189481827182
P 1.0101520541794486 1.5813193876202558 8.472159630948005 -2.431745770399773 0.7941394616398516 0.5731333474329872
P 2.874374587343211 3.57226943775776 5.294631265970137 -0.49038239218700064 0.9660423905621621 0.3792765399474049
P 8.518113169257491 4.705095308464485 1.6587206122703533 0.9884446695167621 -1.2439385330878512 1.578501017957333
P 6.326236894902229 8.346503381911276 6.86639483072819 1.0274022817268822 0.19268027067897783 -0.043342628651693096
P 6.086109224139529 1.9252913893097103 13.421658276585777 0.5928385391713983 0.05071269586351911 0.7702408006453833
P 3.449257029081823 7.546250243889093 10.01344519965786 0.530470518457138 1.4186020554744343 0.32008126053417135
