# total energy = -340856.11973794637 ev
CRYSTAL
PRIMVEC
9.40196663873907 0.00000000000000 0.00000000000000

0.00000000000000 9.40196663873907 0.00000000000000

0.00000000000000 0.00000000000000 13.76072854114861

PRIMCOORD
 96 1
Ni 4.255894202958019 9.37229399737879 8.909493473657752 -1.9681951536936362 -0.7140889360441637 -0.9579644986500341
Ni 9.3654681696243 7.488074076174779 7.548929245215706 -1.9763329523094222 -3.522874386641023 2.9319405206915055
Ni 2.8012219299900853 7.898582742037796 9.729358124278136 -0.16394202220402088 -2.488081983097657 0.1472535058047464
Ni 3.6608719424918763 2.5583033188430293 2.3931699980006895 -1.5366331740789536 3.489515351564603 1.0874871628339204
Ni 7.201586751784876 4.102943010244457 5.04575623794844 1.7777185755341964 -0.6908793306969199 0.5346326202546277
Ni 6.159284734067547 5.288418175407207 10.04439640065435 0.6712047350861279 0.8062550139564629 1.3436106895692086
Ni 5.045471358360339 4.267712474979223 8.391195961663396 -1.0859853814774136 -0.2920513509801486 -2.270026981099316
Ni 1.0039419939730863 3.5129225960116317 7.419234757093752 -1.749809250718438 5.908092445792902 -0.6534288991599457
Ni 5.099241205368506 2.937193171016858 5.609148402365469 -0.5845328475191804 -0.12154401685378424 -0.022248012764922973
Ni 6.189549664565762 9.27772901727595 0.38579559664445245 -0.014355240280407534 -1.414772397315699 -1.1426200992523226
Ni 5.945314778094149 6.6068653542500595 1.1481493577449462 -1.2108348085553469 -0.02366906148216569 -1.9188425714024373
Ni 0.9264133773566593 4.793084966843074 4.826575712083115 -0.8600959710363187 0.4091746130584179 -0.1562945329610921
Ni -0.037491282030034455 0.06124253006501114 9.49380219317866 0.3463052272277068 -0.19200767009198547 -0.3819139775702519
Ni 1.3751974492644823 0.9231894430081543 3.4623503578454784 -1.835922180458122 0.5663795736489213 0.2103391214113216
Ni 6.338956315869623 0.2126057306191609 9.857607530133059 -0.09480222998356576 -0.1266790240875044 1.4825150520783112
Ni 1.7323875625163228 3.202422648915161 12.066424707159552 0.35537376518787833 -0.4864218648773558 1.144370506284526
Ni 0.30437362565731696 7.512773042443437 2.44512996643759 -0.13972865818261096 0.5027802516307212 0.16162083027001198
Ni 5.6355763902926 7.74644952041878 3.6102921827524397 0.7848084140469128 0.4868656372829938 -1.043235649214713
Ni 7.937638511310733 1.7721860871509738 10.702901679827233 0.44746425266723583 -0.8816770396412041 0.2942056783189901
Ni 8.42310905690729 6.324928581696483 0.7833944221635427 -0.050779801656028675 0.05173496648044639 4.00954256320123
Ni 4.1390465620037435 7.842058118814662 -0.13332646782107271 -1.2802489374831112 0.9702800827925935 0.37383300033433037
Ni 6.24976926066426 0.8459522873564508 2.405044681821517 -0.7452368224018778 0.21196200172672527 2.6218798776181296
Ni 9.381949817081079 2.304892112965931 5.616111498832377 1.2501222933010598 0.1287068531508106 1.1898777466877055
Ni 3.253588151174025 4.172959455544302 4.318804641898576 0.5589598841460824 -0.5733902006387995 0.8192881929913375
P 2.9523867490488915 2.4195302917682704 0.31880846498440896 -0.16527179675903794 1.4807425335589208 -2.248206028569483
P 4.577902157177762 1.5167064486209993 3.905941723597923 2.1580307558349676 -0.12243798942296333 0.41711058007604296
P 9.042096930246979 1.8584867386089152 8.084813135742808 -1.1744709252143324 0.02494638553269252 0.12633963847021468
P 5.529879481730646 1.187769245014122 12.330603045191529 -0.3386492533443458 -0.6351766378179772 0.6658627540479242
P 6.212471659146267 5.4709855629233095 12.262763155160505 0.010067925758963306 -0.1759192491705551 0.6896613991294187
P 3.5529561698113823 4.075376444161584 11.454100007552103 0.6646795323731004 0.49901949903670834 -0.3263593802333992
P 8.644929654995012 2.991903214685423 1.6005240406988293 0.35078460315529914 -0.6800935529353256 -1.3996041742156928
P 1.1809340152930277 3.1154544578283367 3.6058478731387376 0.32253897804604453 -0.6492146039682819 0.10215301392168213
Ni 7.954975737728473 6.536736085350966 3.9114729005510447 -0.3630713909424521 0.7589451731269058 0.092921210910769
Ni 4.612933884744195 6.615505761559119 7.738717343083666 0.6749654876801409 0.47719057608707505 -0.11991085212573543
Ni 0.7303175000940889 1.0359368863264335 11.915607760865093 -0.49716444810584054 -0.8439810677523272 0.5642962087573313
Ni 3.3249866855646566 9.234799637762173 3.5633265389755735 1.2705535645722184 -0.6746075901200898 0.3882969982784603
Ni 7.944266897766539 8.728024235840996 11.631806578333945 0.7479737617170666 -0.041687095326141115 -1.0512070974559637
Ni 7.794211510767003 4.501106893956446 7.8309826021551725 0.8019975242316898 2.2763423817943833 0.9037057373064694
Ni 0.8794721786929636 5.41175317331823 9.38278001073221 0.8122544260730077 -0.5558879300889782 -2.5820930846384953
Ni 4.387625157046396 2.0306367471278066 10.70126479744148 -0.6844289470858858 -0.31521287669827647 -0.43636634298186133
Ni 8.22666436668371 4.435434157227639 3.070528100607874 1.1841387873213993 0.20018712057898427 -0.7886478423976611
Ni 1.0186654736749203 4.426163818156114 0.2346730864353646 -1.6285200301879372 -0.40939109994459816 0.6060766351282272
Ni 7.384078923568145 7.654131610334291 6.040891409803577 -0.39507699731477114 -0.3874138243425586 -0.6095687074418856
Ni 0.0207830471780999 8.195393425758871 13.421733236269972 0.994512730087713 0.31716922909369893 0.19461759691100677
Ni 3.22162146472049 5.079412457800711 0.2903693964006874 0.7421412141956897 0.41905459117629124 -0.02578456516327172
Ni 3.6803246113955126 7.556529795018365 2.076122521361206 0.7955921349259782 -2.3140028724596338 1.162488041820843
Ni 0.9842260700045382 7.534830056096376 10.844747269588172 -2.2394673631449042 0.04762737206997604 1.6917038619352736
Ni 5.802451895546657 3.5983958744084226 3.220285445266064 -0.3255404838765297 -2.6918848460523574 -1.900566913021701
Ni 0.737896425373558 2.437252998816775 10.044932312750777 0.0752505331038833 0.4404649385312673 -1.2131560004893558
Ni 8.571725943016416 0.4689202637835689 1.6619931581589964 -0.3531006528829854 -0.5103076703560179 -0.06445627070185674
Ni 6.310487160992769 3.21949662026799 11.441330256510575 0.15142794889741018 0.6679440620569852 0.8678267640216731
Ni 1.204006441339197 1.5350496854653664 1.0572144769479026 -0.4652935675391728 0.71266197378965 -0.2743547050313339
Ni 0.5917945653309961 5.189377859200872 11.497033147852521 2.7184641392027826 -0.9602679499722301 1.6159401366403974
Ni 4.369169096602781 7.70977244869665 5.483829589501007 -0.9502213643695056 -1.043245933627358 0.3710803772898577
Ni 2.0004000225294036 8.676322821485703 1.198792110660629 -0.7947382715661152 0.4930478548343057 -0.8134456181676313
Ni 3.029840149932486 0.4967980349610328 12.300509230485506 0.6371666716648123 -0.10264255196359096 0.8347942590467364
P 6.273753677471015 5.33466644913219 6.379225879031134 -1.1660832153712692 1.446316233560251 1.7159694193508577
P 2.077862825379603 9.353048171740442 5.4565281588763686 -2.683713365985159 -0.8983197904042077 0.011238291917980644
P 4.8711212896561165 7.79004643956144 10.083916627077523 2.734934368943664 -1.3704049269439171 0.943494330058317
P 3.204622709100492 2.7857556949265367 6.766012442955645 1.5776980624400634 0.866600862034372 -0.04076946860787817
P 8.586054540120882 6.67675017201745 9.634794084371958 0.3441357303802138 0.5489192120806288 0.819221344309144
P 2.784241978303296 6.4583612917401805 4.349697623765937 0.36330099045475495 0.3205299180358157 0.42185992183557025
P 2.9932006860767726 5.697441330546794 8.697881530908631 -0.3331578912124714 -0.945048047698682 0.9336097239547534
P 5.647404064280408 8.5830271068744 7.114654288171147 -2.1625738951209597 0.1523167792602667 -0.26405409443627426
Ni 5.486630435352334 5.409571917066106 4.283136401193054 -1.19824077394042 2.7564593874996333 1.088577824794938
Ni 1.9860996313247485 5.320131008762435 2.7456234004774442 -0.3843670670964348 0.0828003204266832 -1.9948006720963063
Ni 8.372432456911831 4.097226614549236 10.335986172320233 -0.664770806535326 0.7331631790667954 -0.8639695950591121
Ni 6.7743613892999806 7.096444559252556 8.615083112010675 -0.3042216677940954 -0.17585574292247133 0.20294951381546983
Ni 8.532585556044044 9.06689931814828 4.122356190888357 -0.47939786815103885 0.04875557213714829 0.168848972587335
Ni 5.023959658770432 1.7090894892716577 8.130470965965062 1.1991056930438768 3.1043504711572214 -1.6366226046904135
Ni 7.4601784412607675 9.235768040322382 7.894680925897143 0.9154947595215975 1.682999135072424 -0.13486978742841288
Ni 6.859834667696771 4.328928679537743 0.9786695077415855 0.13849067201045182 1.058707005377435 0.25317395718866076
Ni 2.8426657987804336 3.1497246260998475 9.22596272935109 0.9452303389128173 1.9861648507981793 0.4148665212368726
Ni 0.5751596658185725 7.256785697716848 5.35743707205037 1.0804680512036102 0.3637205944906768 -1.7783667506411567
Ni 1.7694595168358196 1.71991115283284 7.819203818393705 2.1101159344315596 -7.532342130740259 0.6468846702835246
Ni 6.030449585693195 7.729441362832178 12.369271453440382 -0.0447842461942261 -1.3202779283805393 -1.2655090601697754
Ni 3.8965416373872626 6.587581920745294 11.670941324126357 0.08986416925200008 -1.2178765458934766 -0.38284317425274067
Ni 8.386403779285347 5.966732458018017 12.565113477604644 -2.5180047387990183 0.6294317649143998 -2.4409500626068605
Ni 7.159324911899981 2.655294006329697 6.908477622315788 0.027967431747203442 -1.9883469460511627 0.45598591698500174
Ni 8.124549607397874 2.157751335613629 3.92454633511388 -1.4059622552232367 -0.7251989299143963 -2.7861641136529176
Ni 3.950114043096746 0.6075720054891364 5.941249367734587 1.1384299724303748 1.366013482744441 1.133679088008951
Ni 8.367910110975316 3.3934612083414497 12.785093170631308 0.9453038724632302 -0.028534874214899246 0.14166495597337536
Ni 5.15465639653237 3.5894263982682246 13.307229505590069 -2.0627503006634025 0.12102825355963026 0.6181433364847742
Ni 6.880518994225531 2.09016059769761 0.5154092278536131 0.22649310546336476 -0.2785355758819009 -0.5927660340622501
Ni 2.568307011309665 5.770240757961419 6.5717659325240785 -0.22789332824500108 -0.06238781820860223 -0.6431650553400924
Ni 0.08907705219609675 0.01712004098918892 6.697442960316152 0.022542404076890208 2.758305696679753 -2.3560550644346776
Ni 4.047330377781909 0.8416085787854115 1.1866870786580035 0.764179939163284 -3.156873737866918 -1.5113641150995196
Ni 1.8641091146380957 8.565633468657037 7.795383936002519 2.4152305463535693 0.6075010262795796 -0.7301858416060264
P 8.291331092985892 0.9704427869631022 12.93646107216876 -0.24521999244890674 -0.09842799966161113 1.2178984002703477
P 6.3889653762361975 2.939581270534269 9.405691663149451 0.6426487778253062 -0.5413380572992612 -1.2051123042492728
P 2.1295078279352704 0.4974524118366699 10.26566886408906 0.3366612763800395 0.7207640340714943 -0.42067721438137873
P 2.0711122133579445 7.259982366362201 12.902059276364792 -0.11984631743638716 0.16692810141553832 0.38333811161128817
P 9.777105071479795 5.494490479433261 6.709855436626729 -1.192022046724218 0.2957293140523681 1.4631309911247445
P 7.465772611390136 0.8152247801013202 5.830214022534893 1.1158834545884266 -0.4991475399741404 -1.525990863873759
P 4.697796035311728 5.114303155868084 1.9492213575172936 -0.49883772204320537 -1.0292372780530918 0.8180823456086943
P 7.220381283026233 7.782590680044482 2.1161109657212576 2.9256207491210646 2.3450718259502965 1.474648761956357
