# total energy = -381173.12528915965 ev
CRYSTAL
PRIMVEC
9.19214595132475 0.00000000000000 0.00000000000000

0.00000000000000 9.19214595132475 0.00000000000000

0.00000000000000 0.00000000000000 13.45363475611034

PRIMCOORD
 96 1
Ni 0.5440757516964476 5.679826842958429 9.94662141855126 -1.3515623403161177 -1.8452547707129576 -0.04929421824943769
Ni 7.0904443336422895 6.281939964328077 10.027276062778757 0.5512933687397602 -0.65793270056757 0.3068251668552135
Ni 6.299221198289498 3.8579619447213767 7.622156649339742 -1.2984783160069444 2.3216771011754402 -0.5209530658850061
Ni 3.1290064045040444 2.5701423287665683 2.3526773028681096 -0.0975967620095674 -0.03992588966066027 -0.28234620787724274
Ni 0.12658320033826173 7.952207995282284 6.043157433280719 -0.4252167541229451 -0.8908535639341496 0.2572643252079505
Ni 5.375925313171977 1.7424447591803105 6.515057375965635 0.8687137946123167 0.6990446401165316 -0.7725434806366308
Ni 2.9976322578143506 6.011975836555224 8.452017130814895 0.14718228624717877 0.04921991336807652 -0.1059325355687724
Ni 8.208429865197518 1.1366088187923769 10.376761443211317 1.2275174114173504 0.3124414846007264 0.5104233699982758
Ni 4.833129108160332 3.0776315020517147 0.47244227928264165 0.03712955786244573 -0.04202828071564375 -0.9609750033415838
Ni 7.129152459286726 6.296546283883768 2.4980979674388926 -0.4183277403125957 -0.9719664693560808 0.08593475229060685
Ni 0.017328113904613907 8.063984487288069 2.1965211313060804 -1.2401998919810253 -2.876570271451317 -1.8417536995382346
Ni 9.021208582273465 6.508498779991447 13.060276939695957 -1.1787147880923505 0.7123830090966505 -0.6839067560338287
Ni 0.10157321025196737 6.302576331478817 3.858475785667357 -0.5549916435269537 -0.6739049076261104 0.2624132163987416
Ni 8.965798327848228 3.694038410022432 0.4880551387951273 -0.3982731356545657 0.5397488584352704 2.291336284100054
Ni 2.9053523068895086 1.0924129821506159 13.107324179941353 -0.028781443008066565 -0.10531341392753475 1.3850830977813824
Ni 6.842072556175487 8.412109430153453 11.444374935412723 -0.6993675706735891 -1.2186077676325464 0.6923787980605817
Ni 1.3218673237170964 8.478541067301958 0.2524374635205976 0.5157733214562794 -1.0603406843261158 -0.6329986563300518
Ni 2.195746233421534 6.425925734951319 5.085070195811825 -0.85347255218253 -1.901850664830131 -2.0891161922514407
Ni 2.970506235782355 8.438040473241308 9.30768180376691 1.4507035639946693 0.2630048272361535 -0.37251556707448746
Ni 4.841172235668973 8.797407410327343 4.921312119735916 -0.07781392295568534 0.14644103720578006 -0.7911721514814116
Ni 5.226258796491204 4.009099204718014 2.614390560638957 1.376388912441494 0.37084949222597424 -1.8577937837202327
Ni 3.9871851293116167 3.8770999921190774 4.393648025015383 -2.166159041369056 1.7635078312514534 2.255242366590974
Ni 1.275989324407814 8.584829848310418 4.140194829392266 0.5562540551791453 0.18481372344670752 0.6520502736448641
Ni 2.1280460801630956 3.893884850211393 9.139013283445154 -1.0878682003224234 -0.8545205338310702 -0.5422813950491371
P 1.5193605746006726 4.601413498745709 11.767598355511357 -0.13270414723566176 -0.1942432442907235 -0.22885080706226393
Ni 2.072718555049377 6.9433975784929025 2.531059163576585 0.5089159322148139 -0.82565964373532 -0.21141641363590044
P 5.1948400424060255 8.429353895531978 13.150443616318814 1.7025811709694096 -0.7800696138103468 0.07292779850797762
Ni 7.17556360304801 7.731771148671204 0.5773954415173826 0.30000711549211556 -0.37850186656490936 -2.0700211232932024
P 8.756548322583452 0.5921773310564042 2.9609969610307108 -1.9739436261416392 2.2299653371917403 1.281070662053458
P 6.514409329692082 6.928395996671074 6.432478815638072 0.7759381081404766 -1.2058435259883427 -0.12001909556882555
P 8.952478908693921 5.515030054415688 1.734994525070879 0.5561072451886357 0.017337977057815302 0.14908747368969164
Ni 4.123633340441047 9.056524806145687 11.46035731918332 0.34540431267999216 1.0971388269910718 -2.1903083849217504
Ni 6.921364005192091 3.554961245215892 9.961945644688006 -0.13836854461029072 1.3672152163620261 1.3990817260533195
Ni 5.708846447009601 5.898599911193435 12.05040666850458 1.2446689834959728 -0.20097619213918289 -0.014795413141619682
Ni 8.509610519849618 4.330447427088921 8.388677731487999 0.25778214538463345 -0.856793389025647 -0.3927401216514784
Ni 3.8194376619914223 8.268325886736145 1.3771001697298562 -0.4083014664248452 -1.172899209851838 1.1968698617348226
Ni 6.725938987096451 8.610301284112067 9.210035478168303 -0.08035031622429388 -0.05398853840131348 -0.14574169714591031
Ni 5.304566685915323 6.189623244820338 0.937808444786825 -2.3026337113907442 1.3705717915390847 0.183047118464588
Ni 0.4798750483151974 2.564847652829452 12.228748083771869 0.9616411761706728 -1.0000179761766586 -1.9260578582039536
Ni 9.152022008073985 7.875067508365134 10.72371714514059 -1.7733793247288943 -0.6043431973768882 -1.0621669389015773
Ni 7.015133083724247 2.810526131599075 12.365518020001646 0.06809309612349564 2.0810359863464676 -0.23592082653516785
Ni 4.777755622317993 6.94922539888202 10.24402777816902 -0.08205984271623287 1.8551563460973857 0.18022096186970255
Ni 0.13049078148560211 3.4539671401445466 4.948462041346795 -0.5248732268750186 -1.0257796585217944 -1.6204598788876223
Ni 6.85993289531753 0.8785724193111935 13.082166196308899 -0.10980435981935281 -2.011691020093742 0.8637777907632801
Ni 2.203679055181484 2.01195847181268 4.7918481009277025 0.6703097340756843 0.24173357656220304 -1.7684955142740317
Ni 7.384951490498649 0.02061154835728384 6.718852761957696 -0.28626739730851986 0.015981720140236993 0.2860843347634363
Ni 6.927292939184174 7.601711478820065 4.378741122294513 0.9392584376000986 0.5425840138912205 1.2205456080852075
Ni 7.658702782309857 2.6514284734053146 6.393960967410125 0.7050617928448889 -0.28618049402166845 -1.3284141843344284
Ni 1.6135800682733121 0.18403043425597174 11.26670546599787 0.42732557293583184 1.0408758907332847 0.1418531607247815
Ni 4.6190532263903705 1.834596020065014 3.7897139395777786 -1.2628533677144833 -2.243689371646052 -0.06571971079531262
Ni 2.680245850250556 1.5151046111303867 9.108594634814763 -0.08910132294404655 0.788021521667572 0.9482554988923863
Ni 2.014385198283858 0.4245245428371683 2.179098338300508 0.1587594495618169 1.05222345453562 -0.7151083784476135
Ni 3.1145195828427688 2.559883894138406 11.287706761333856 -0.7025248853556482 0.28626919708073273 0.014514648676407262
Ni 6.794852503590478 2.013052337153855 1.8682797188566256 0.17773290534052616 -0.9692238736139372 -1.5440775461721408
Ni 6.065281089609628 5.365087773363192 4.69416132988791 0.05363244061347537 -0.859984385159119 -0.1356956257638179
Ni 6.936953884340267 1.8572914278579649 8.464260149704904 0.27648409266951096 -1.6397351821774664 0.06644064812173718
P 6.149664987357416 3.12084377910099 4.615645697970425 0.0866142948561347 1.9652658958619835 1.2340973786277134
Ni 1.541954868790658 2.467953244751082 7.01438851992059 -0.31433407363774896 0.3799977343841456 -0.07012529606217599
P 1.236895128642962 7.3751067024280745 8.882816232323375 -0.043053893766680694 -1.0472758807223577 -0.5628389074855146
Ni 3.2450848207087364 7.523826428099258 12.813375905545021 0.26311204223797907 -1.8086242639741177 0.2597955762702364
P 0.4200038455700264 2.3642658409825583 8.75932526980672 -1.1468081691917413 0.9256814702466122 1.9976869925051661
P 3.407776607880643 8.597974616695968 3.4279726712511946 0.16434542829002663 -0.535651034216813 0.6872926417869261
P 3.3784996237491933 4.960238099234016 1.5789054561726361 0.939545372712898 -0.00432176730380546 0.695384417656125
Ni 4.4308716191253685 6.235188711175 3.238545528240569 -0.7935789611506914 1.200303827117036 -0.056180146735993565
Ni 0.6572163581276979 2.311852226063398 2.5193272279888395 -0.13516546429196077 0.8272958937871623 0.24793482027690847
Ni 3.7467094050218686 4.999130067792937 10.392367868221797 0.20968760387025176 -0.8108819712055131 0.3488331358558831
Ni 2.439439208714738 7.658325904335166 6.817642590484388 0.7980495953275353 2.0832638472357217 1.4510617186650365
Ni 6.36474281301131 8.691017515715915 2.347766858622263 -0.16360160814546665 0.5579054747396391 1.2817697450030119
Ni 5.366282752307333 6.067707816080806 8.263020180224158 0.9082504192543583 -0.3296136255046388 -1.2011384072031894
Ni 8.220379654638926 4.623061001926105 11.87474292528674 0.7166698093974625 1.2474899978845353 -1.316522317992849
Ni 3.7158237953886912 3.76900955054868 6.834755608179056 -0.3221736242868258 0.23289772343812792 0.3133652819665764
Ni 6.664756065156443 1.204483622819574 4.129969486488711 2.5022456761925485 -2.1949571965476715 0.3984744530320944
Ni 6.719044877803331 4.633797428131924 0.49707447217967304 1.7662779377974225 -0.9939247187947271 0.2784268182181785
Ni 4.563900352045412 3.177623663239127 9.001530955921755 0.15424999172723758 -0.8530658036624146 0.7978943006965935
Ni 0.8065133505503588 5.897129167877569 7.267760824661335 0.32584310271861305 -0.9914402618099765 -0.7465426856974949
Ni 2.260008524179136 3.342659447570694 0.4187702596138442 -0.9425581913972928 -0.9028798989710644 -0.9380698166086361
Ni 1.6194998101196711 4.343610579765919 2.9606072140520068 0.2127662427955755 1.4351077664389413 0.3391701588448223
Ni 8.743541436383765 0.951607693947934 5.124745335186444 1.9569812872556878 0.4399054664833714 -0.35454381308741517
Ni 8.098409073025048 5.119933246899846 5.736360377591157 -0.3237985614847585 1.3179405384966143 1.652741107518831
Ni 3.7529141033856765 4.824755063405622 12.71245993371233 -0.6259332648428382 0.7077717355768842 0.4730228178626305
Ni 8.313257095035839 7.426242609091576 8.219699435855338 0.19975003304156563 -1.0835659734026437 -0.7000576547620783
Ni 7.6347940112813175 3.5965924732006127 2.974800806264682 1.4293402678275449 2.5529473163124745 1.3935847074944903
Ni 0.6853167476064549 0.2129259443398685 8.61152383949338 -0.5646217104175502 0.40799833336212954 -0.6960932707976915
Ni 5.228676330816659 8.444153250147876 7.067167063024999 -1.395737492171435 -0.3498710902020942 2.3074293330071747
Ni 1.7157323837059018 5.644538195523379 0.36933306148016715 0.2802602718824915 0.46975340308273933 0.24924531155821592
Ni 3.4219417044415734 0.8257322888304325 7.030384691909773 -0.004329480613289318 -0.2989619620570529 0.19503205874060606
Ni 4.2248204805726 6.043955311529577 6.01650572596809 0.849789446903988 0.2439046160715929 0.7173830334144032
Ni 5.832269387647898 1.533332636101396 10.769634670676487 -0.7513267373496997 -0.5557845717418944 -0.14667577892440545
P 1.597999381270861 0.4333526795906515 6.0914024101139725 -1.2135750903046454 -0.9409918753514376 0.1331726022316481
Ni 5.022487310078027 0.8906150494244154 1.0686558815265246 -1.1758942879244199 1.167258209515977 0.2769931710954455
P 5.0325619017917065 3.4417691627685865 11.49065463149015 1.0160668021094048 0.9568298708249585 0.11464291885857676
Ni 2.1217218839048737 6.870200522091418 11.04739833409629 0.7420494258128317 -0.34082414950847756 -0.04156702480850906
P 1.896220164999782 4.196012295873082 5.538645595995629 2.1767674130125223 1.3649387616230235 0.19958188289481757
P 8.757587035050282 8.901085621950141 12.510090249522088 -0.22683120552907385 0.006644501899711137 -0.015137626972386834
P 5.117653594760254 0.6782443106862862 8.913167778289978 -2.5620356517669878 0.7193355291550837 -1.1285080853309726
Ni 9.002199224915902 1.054311538123973 0.6812262427592036 -0.10997508106926221 0.9316464295807956 0.506846708390611
