# total energy = -340856.84343259153 ev
CRYSTAL
PRIMVEC
9.33309202340884 0.00000000000000 0.00000000000000
0.00000000000000 9.33309202340884 0.00000000000000
0.00000000000000 0.00000000000000 13.65992357966178
PRIMCOORD
 96 1
Ni 0.7397343445894735 8.900344593428068 11.605211872812253 -0.3308312999618238 1.0296147159971687 0.3890292484587945
Ni 8.906859091695445 6.999632393362209 12.439614570231925 0.7401169846768093 -0.8276378505076134 0.45110390630235214
Ni 4.190110352629071 6.035915972025913 3.0460123274770057 0.5957829665117029 -2.67698967410808 0.3696428735123828
Ni 1.8576306470541 5.452261726110956 6.224130840019059 1.5700953103921411 0.9524993617704047 0.883990518265729
Ni 2.974036454714572 1.1539995025329524 2.93962907747602 -0.4448155021904791 -1.5756710047077056 0.9789143614288238
Ni 7.818181900585653 4.404818135782351 2.319768967479928 0.04268288358050714 -0.9518542719872379 0.7351827805999854
Ni 1.7441215812549173 7.863624725892036 6.9220435990267095 -0.2863460730652553 0.41694140148803027 -0.7561966638474912
Ni 2.9625194190957433 3.5164197674800475 3.1267977058477148 0.9061068905487943 1.2779058911722312 0.3481893316242971
Ni 6.07865220063095 1.1266535427572901 6.720791334715944 0.2469207771900973 0.7851290306111253 -0.7022718888045776
Ni 2.532198542858042 5.367563915542992 1.2237867652041257 1.4895416199077893 -1.1623242625494692 -0.924281504575292
Ni 1.1269802009798662 4.352244828131735 4.4170724856749946 -1.7930503207952604 -2.633881787175012 1.2775145692710839
Ni 0.8157169137791058 3.4323192748047933 8.036173998839637 0.35812073180539616 0.321912143095323 -0.15992441640419552
Ni 4.005380461216209 6.984120794335878 0.31260165260411543 -0.5558190245242556 1.7057978781344945 -0.25770681206200774
Ni 3.69612845535731 1.112457909713337 6.964252507929587 -0.6803930864536153 0.5879380165459874 1.642189814365546
Ni 1.4710633064574583 9.234627952228376 5.024570915219597 0.6010087336870166 2.3540120658627197 0.2894699634062176
Ni 4.152189999534014 2.4780386095549125 10.56868333366373 0.4774232609231714 2.9090543601219507 0.46148936330173423
Ni 8.530940809154787 1.0166070541174146 12.792409183851019 -1.1493581893071043 -0.46662025677039637 0.13521174414886392
Ni 2.282361001139712 -0.06763038509296324 0.4776545859981961 2.415175781856234 0.4221908228124277 1.5014597115016142
Ni 7.491243685247273 6.626560703904 4.291975452757224 1.1566547229685176 -1.1257279514826741 -1.1294352251309323
Ni 1.9513722238413875 6.242317303233686 8.481774080111036 1.4512267834879908 -1.6775615089966205 2.47175624935444
Ni 3.8433766490025745 8.883330366577887 5.4208726708490085 -0.5613854628684396 -0.09259416658865345 -0.377745190904543
Ni 0.28129659517082983 8.718526626742172 0.8163870297899906 -3.8338025199210173 0.6409618770411863 -1.2031035013493603
Ni 5.725963984261494 1.317879266253381 2.17791063450717 0.8626426487175723 -0.12021347096781876 0.283718405634421
Ni 5.396291172945547 7.739802593351519 4.244178821629879 -0.1084056796996133 -0.10426826049247204 -0.6312791025357838
P 5.02692472104056 8.550894960008154 11.846637498644643 -1.659103302291433 -0.05297963752082488 -2.3244677765466997
P 8.724406474748543 2.3536658245820536 10.627516346168113 -1.7800600791831795 0.2489043832790294 -0.7372550897479819
P 0.5353750939274057 7.196831295785407 10.387128560174308 1.3470078881762155 -1.2586200463594261 2.1450572263934347
P 4.88155247890209 2.355971098324234 12.717921776011579 -0.8450928127592673 -0.914603872276212 -0.29352125065745577
P 4.249954139005025 4.439238579349806 5.200838492049321 -0.31651334067725495 0.4201413964825667 -1.0833127197412569
P 1.5750619514336377 0.7229086461991785 7.123158666883992 -1.7832773005688964 -0.7516776929312151 -1.3319916172730415
P 5.2340353672459266 4.883680423894872 10.916997129778286 0.40099850500552875 -1.7328862497108544 0.537712544731532
P 8.177459279959075 1.5513372313825342 1.5420004060720998 -0.6645589476348361 0.04662207073391326 -0.13118951036334825
Ni 1.077990800685514 2.1862768182419496 11.751249564415572 0.2630271958336567 0.06178515162759681 0.280367229774001
Ni 6.430425773977193 0.3831682284634348 10.265187045686623 0.16774519800019497 -0.3393339381161962 1.0137024156422867
Ni -0.13237031157073104 2.523910757096681 5.947927313192796 2.637834344064857 0.462046778467101 -3.0652133959464436
Ni 8.909836348066925 4.687853486006494 11.10465761210226 -1.0328957007412858 -0.11799743715310644 -0.038035100395850625
Ni 1.2773643135618622 7.94304000634634 2.667797170977033 1.0679418937121414 -2.105926064719928 0.4129525920436114
Ni 3.0180046514733245 4.181430577000618 7.907074002731496 0.1204952638742957 -1.1390151555098835 -0.2563778088379391
Ni 5.768513551025059 5.853724681657072 5.51344574450868 -0.4999553805874164 -0.6259273513055672 -0.211735487538216
Ni 4.638966749724951 7.756872818754143 9.425087428865224 0.670441374557542 -0.7689305664743918 0.14486006587190536
Ni 7.523060196126193 1.9038294528184443 3.999817005031133 -0.23438330684471895 0.7200978612424049 -0.5917525051960711
Ni 0.28218043899020023 0.5222658328008203 3.1608382925677745 -1.6111293455153157 1.9870495673959778 -0.5441639567838306
Ni 2.838267964319841 3.5315860420996557 12.49847464870332 2.130745694866769 1.0239500615122237 -1.16630895822883
Ni 3.8347155395582693 2.342251452976035 1.1802217580229528 0.46963436100637185 0.24960012379447336 -1.6474302368288787
Ni 5.920045633932108 5.961988549710888 7.72569749130068 -0.4193456400541488 0.18286482725045283 0.8682455967266466
Ni 9.255384749000074 6.742235047064258 8.498385117383638 -2.45990757754597 -1.3051462149454232 -0.2274950643653179
Ni 3.5449976954094256 8.064790192446516 2.3424035823768343 -1.4485741763564923 2.4140622370770815 0.5204720124835295
Ni 8.950677958981021 5.398932438002378 5.745746406220706 -0.46848764899643836 -0.15824368626766294 -0.15888851894051345
Ni 8.313601094036748 0.571792819198612 6.5054563677753166 0.5060059576568705 -1.8600460700895192 -0.3331859162369294
Ni 6.42700052918618 2.2568349943184027 8.904412888262954 -1.1120635666217042 -0.8151129785677251 1.096401691714731
Ni 6.77219427262053 4.459426057505014 9.380461249115282 0.5868087880375507 0.7882382656640683 0.272785303661685
Ni 4.003196517670985 0.5152669470548239 9.827563958210533 -0.47617781855184443 -1.106504841587004 -0.949466488481352
Ni 8.933159745158864 3.1827057272962307 0.021538909887465405 -0.6095052011938019 -0.23193844484865217 0.0010999179323981057
Ni 6.69770686478109 2.934538809059076 11.585117725577783 0.5804293668737681 0.09328347934619419 -1.3960285410492923
Ni 6.425133910771458 3.2411215505849236 0.2492159577862277 0.23189267921238127 0.5962802178630957 1.8997336184871283
Ni 8.747253884144728 6.298931839752173 1.1936726103194322 1.1088463452359871 -0.4668110326249638 -0.1233766991871488
P 4.8562318001064 4.235506512475085 1.6747477745626043 -0.14913092533311734 0.5651922382090395 0.3738815941840787
P 7.816828602234981 4.021284050109632 4.507460682480236 0.19821996955028442 0.24412136006808924 -0.16550551003639885
P 1.5638249085770177 7.100224459731523 0.33263046819407155 0.5162551461887045 -0.12418916778611513 -0.6736483115306139
P 9.42614300157875 7.715900544551018 5.205482638665147 -1.198112475892672 -1.6187716925519215 0.3941485719632309
P 3.6392525922607617 6.892647158922475 7.451857103387454 2.1312838267584264 0.32541115738751697 -0.2403521228336441
P 7.818937881043615 5.058022583829811 13.179900500562947 0.997459985641495 -0.9395309745351949 0.6996563055586015
P 3.02459381447729 5.549699207359391 11.38243189832451 -0.5963522087516117 0.30135797309305523 0.10999590700486861
P 8.464190534644365 4.868486149999043 7.767278283107005 0.5059195685906513 4.391231312134553 1.8750407437261385
Ni 5.473233184000347 8.331221971871715 7.248734487425138 -0.7505662050345913 -1.1307380031027556 -0.8998902202151212
Ni 2.596074225009794 3.2530399091629167 5.847567640816115 0.6252192694949491 0.4051534077141668 2.159068453070862
Ni 4.9361977329930475 9.150816785407404 0.1488030867847272 -0.30812100284850164 1.5908646817290086 1.2199231440098601
Ni 7.213154873822142 8.700485759763893 1.1251873139925266 0.03769031546192218 0.3470763010657764 0.05950355468227172
Ni 4.633562889414335 5.04251098480348 13.23184942435384 -0.13905065827897986 -2.055899596290156 -1.526740854665906
Ni 2.964302039681802 8.084697677839515 11.254752398829975 0.3294012523835166 -2.782481779705324 -0.7781651976987825
Ni 4.095472799002716 5.424486444099909 9.323156997092555 -0.026307784656593402 0.7405988094092342 0.515022559333184
Ni 7.765963250433834 7.527260087559315 10.376201375974532 -0.3849859316273563 0.24416738281467623 -1.4718961389118843
Ni 2.4640669707207263 7.200480534786186 4.5616906139739175 0.20889776097910476 -1.7441613084040413 -0.39444064928235295
Ni 7.956815650246981 7.138088814274138 6.841408483438385 -2.0816553650980216 1.7916554973302627 -1.1107643881943066
Ni 7.908964887185609 3.1081529878122747 7.460585411094689 -3.165582064274193 -2.741069792417441 -0.19582781516902403
Ni 4.529228253123505 2.2119334883522894 5.001170986772655 -0.5745088876242751 1.1400230279491075 -0.42148299811212575
Ni 1.0059393298772843 4.935208425233244 13.066031177409721 0.05929529532620756 1.0900618655396324 -0.27211347440564104
Ni 6.966481250316764 8.360350552233436 12.357873483232877 0.7810895704344291 1.0117825729117542 1.1265203654769826
Ni 0.8182900472637986 8.74047805929929 8.97914575642393 0.5163849868983494 1.164999238278471 0.13207114163735317
Ni 7.44393424152617 8.916388178702595 4.4418789110974295 0.8155143277712019 0.43492086878458647 0.22587192693959807
Ni 0.6766501086455632 2.8267415956089392 2.1124800592159554 0.7159807537502378 0.13694595323115122 0.720545747413101
Ni 1.9111932624645187 1.415419411514626 8.946648863132845 1.0019684150348098 1.9859272808660764 2.473670178547701
Ni 6.297354547191733 5.946308955027233 0.9978316727929436 0.07552769802466992 -0.3661896248564597 0.21633493398344036
Ni 2.7340359920418216 0.694192588507111 12.177794271600293 2.075536139574161 2.225780866796747 -0.5965311575316372
Ni 6.577627302162089 6.077560228858338 11.84189722118046 0.4324029874587392 0.6050278821487387 0.3736165134481501
Ni 1.6723967686692633 3.9027164484065544 10.188650090827817 1.1136473661690562 0.6241280933132992 0.1311617424492064
Ni 8.639801995101314 1.277625640139923 8.650187859960822 0.23852561114786663 -0.33673429570982005 1.5483921143870945
Ni 5.68722231906396 3.565101175735971 6.7243976414931845 0.07246242883578488 0.9752955337293139 -0.021648688618027233
P 1.295862502051747 5.323166396548854 2.7952442764789374 -0.6935874736567023 2.092322100783248 -1.8764543362442136
P 1.8772954720531854 2.4431048459234095 0.22811290329859962 -2.2392423916182915 -1.611420394393173 1.4066567101871
P 5.50208177159986 7.675721583174148 2.060886726233068 1.198922373388477 0.19670996066366123 -0.6588374717700266
P 5.411924102168837 0.584051835637292 4.263877245760429 1.4913007686907414 -1.0374738070302714 -0.8412348724657576
P 8.474494268293624 7.771684435874954 2.691387494502277 -0.7112375826382977 0.8446577821043776 0.4211765226153004
P 1.640188267923253 2.1278796611374036 4.538004159600315 -1.3033073619644717 -2.2010959624555575 -3.63453071206745
P 7.092132668903707 8.579780879975962 8.562108670134592 0.8600198663827446 0.4210695647237909 -0.5108938818767911
P 4.467835173463332 2.6470795731920447 8.207032115503498 -0.7152934978752262 -0.7385635241467603 1.4495879623329875
