# total energy = -340860.5746448939 ev
CRYSTAL
PRIMVEC
9.35179878089427 0.00000000000000 0.00000000000000
0.00000000000000 9.35179878089427 0.00000000000000
0.00000000000000 0.00000000000000 13.68730281014203
PRIMCOORD
 96 1
Ni 5.0131438010314815 9.155335905285979 3.011397880951103 -0.3703602112943815 2.8970843322442685 2.17552299908246
Ni 6.579672917541483 1.3786234294922208 9.251809058487362 -1.173113125634857 -0.5372268633443651 -0.014923968299683975
Ni 7.578482403245313 7.1894756415432965 7.37768900273133 1.5365493561158956 0.04743685332572476 -2.2465687500763765
Ni 6.92245373931771 0.8839834279699014 11.753724698535969 0.5929089873980176 -0.32076825929886693 0.3987860707352422
Ni 8.850682365945001 2.245067559398028 2.3437860794163625 -1.3573036136752687 0.6279286980063121 2.161573221770587
Ni 0.8225149916886507 7.985930911565508 2.778166832201919 0.4055061630678952 -0.9332546546081799 0.030637779490514976
Ni 2.040431504885358 7.8712965657005824 0.48954794724564693 0.017111205758989886 0.33376467155853484 0.3347038955433526
Ni 7.46342722644843 2.250687990289268 6.004496162621043 1.2459038843443382 -0.9372113252630827 0.5307258290010537
Ni 0.8289378068901543 8.64609307042477 9.889705520326737 -1.8893887849176942 -3.107098980436636 2.527472569080137
Ni 5.649608502522355 8.411334872982511 10.918251854862454 -0.4220255008791571 -0.275390602495016 -0.6383318956175071
Ni 4.705647314950177 3.9285689713949354 3.150132746699248 -0.09208046017702852 0.6188478187509665 0.2738872784766122
Ni 3.7825780452000135 1.929911950355117 4.027816803207687 0.4431113750151788 0.4346385616574773 0.5441253902364113
Ni 5.753319947753391 2.410772076805486 13.424765774227572 0.2612955578545306 -1.5525439317719392 -1.0186469041317552
Ni 4.170602868060798 4.261857717705924 13.266377168777213 -0.18396371674158637 -0.4147981298927824 -1.2025802818560385
Ni 6.33094313315827 8.830042946682163 5.332162638029753 0.28451904715884546 0.3213058769698918 0.33553616163666083
Ni 0.3909818615426655 1.7828829745280357 4.81964106261868 -0.9685877826918351 1.2027003523736706 -0.5812382359283086
Ni 0.0124350864493875 6.834135354397792 11.936655228758177 1.151762942093855 0.21293027917726554 -0.2031703715770243
Ni 8.717063869149598 5.0636061056722985 8.135034116297211 -0.48197874150433767 -0.7231441042678965 -1.5125337099275886
Ni 2.1867403922288697 3.12902760787171 9.251877326616325 -1.7756516657028387 -1.1116041104867822 -0.21614107280507938
Ni 4.512485917182185 0.737116238256661 12.206719271031881 0.5804751325100389 -2.719875160617696 -1.308435427219656
Ni 7.672524088839838 7.395954000358086 0.3257409097513878 1.5423978444768727 0.06591074376019616 -0.187155998426639
Ni 1.1867432281170742 8.936120396930642 4.733808385736852 -0.9411919071773855 -0.5267331629018929 1.5598540922801072
Ni 8.5017667643607 5.115910714615236 13.254030924413462 -0.08653304799623807 -1.127414852266794 0.41785337177933846
Ni 3.7200332169128028 5.544737434278818 1.4623238963188046 -1.0396173357358354 -0.5137179815891476 -0.11093693076189926
P -0.22808568922112987 7.138732782947841 5.792178540830395 0.02659086311465098 -0.7733739469577261 -1.4720619750657873
P 6.353892446647626 5.714668964602816 3.1263034289721783 -2.0316368670880496 0.872747084141426 0.921822244401522
P 3.0728232989593094 8.914517742423545 10.321376121910495 1.5672210741681396 -2.536493798742141 6.453394115725602
P 6.060573287074009 9.093239963326187 7.640881343476112 0.4821486914232987 -1.2283550768272973 0.7162350358528891
P 9.332103600304645 8.523827656993703 1.0493643731496776 -0.7199441092733602 0.9626418495210454 -1.4144440674420027
P 5.965699291414058 4.571925948371406 12.016425134680286 -1.0158552003192312 1.7391790246981016 0.3250614873575821
P 7.981984452603606 2.5957787062920112 0.09437086890130038 -0.6619384792928535 0.9550424399072327 -0.3585971572211824
P 8.036842102533745 8.274359080529944 10.96381662263515 -0.45639600793922686 1.187371435326084 -1.546245243247421
Ni 3.355724555017383 7.487498755756337 2.519325883293566 -1.1282044380476248 0.8190223409244604 0.18391975087752843
Ni 4.763123468456935 5.861567015251067 10.58033957937904 2.6578748076555 1.5174046648666448 2.5597419706368045
Ni 5.66123278804284 6.141354122412664 0.2713976087380835 0.30531078709321613 -2.687698832995468 -1.7727925989874886
Ni 2.0988521900393957 0.3391626109412509 12.452118879973547 1.0915340792097847 0.3236211553666298 -0.7221082068042144
Ni 2.6110314896258093 6.454957332906579 11.058437184556078 -1.4754226640079042 1.1637198573454153 -1.5926243447325925
Ni 0.2598406561667117 1.3500349815146488 0.5877521183471459 2.4443367196909067 -1.3993254666330095 -0.16782695908072384
Ni 8.94583691555959 1.201070183400568 10.136008513002336 -1.119957367547484 -0.7194831104765415 -0.10518460165915433
Ni 4.132737435983209 0.10758589534458043 0.6552496591135587 -0.09573811153427382 0.08432138505689993 0.8424363489730265
Ni 1.6754869206927598 4.086455385266492 0.036317709427838116 0.14454073485927366 -0.8886850955279211 1.8025307494818699
Ni 1.7409027511157618 3.418783732221429 2.8731427624653882 1.1215324253440877 -0.4515615626650611 -1.432467757712933
Ni 0.8188556329403275 5.951232059153245 4.137644324649822 0.7609694026457862 0.710832376780079 0.6780394986197742
Ni 6.9672862612688 6.630079111391373 11.845333981343787 -0.879243490499047 -1.1320351246476246 -0.03456333979716628
Ni 2.2147677322971666 0.5141310199308429 8.9102561278526 1.7206046041300236 4.667984856415368 -3.5202917135155114
Ni 6.2569049445294045 3.780277502771985 1.3045422225903123 0.0947055565047014 0.8481902207376683 1.3342945543746052
Ni 6.954941887264745 3.9267173152943275 4.334070435269946 0.39519346828797747 1.912909236637138 0.011878753715456962
Ni 6.9480496117791475 6.149452779903202 5.358004462791421 -0.2595824318181658 0.9338164406489208 -2.454346795628741
Ni 4.033645779205207 8.37679868116662 8.592573662858253 1.5281523903014522 -0.7735449253179516 0.6187064080770958
Ni 4.058456100593659 7.479418801862774 12.60276139073636 -0.20963695313797445 0.2734198519218904 0.4163171376404701
Ni 2.594001864579307 0.45684938383263396 2.408075953301419 -1.6372962337186705 -0.5655269958406389 0.6305329683983787
Ni 8.450378631669578 5.2029853103362615 10.400899140352525 0.2702273131265217 -0.027149820941914534 0.539364221402342
Ni 4.109844233284781 8.405574165113952 6.359969245305076 -0.7836683869051987 -1.480779043223811 -2.0953500889762946
Ni 5.072901793369292 2.6717246618124113 11.066129038812392 2.0382104065405087 1.1910547977149422 -1.879132911517641
Ni 0.7393036239229855 3.026522544645616 7.076472249334664 0.35642457504989583 -1.2934572086432692 0.2640101285722163
Ni 5.075389371767079 6.369884022061969 7.667011203631209 -0.23797488085071916 -0.9652641176352408 -1.4377639731148657
P 4.319128131645947 3.137808946651867 9.071478328244797 1.859221517305695 -3.801850135384136 -0.8154531355159634
P 0.14247745550301072 3.1912264196148667 10.139293799811142 0.13555190109710205 1.7843553641244236 -0.006997514363755691
P 1.8264904108772075 6.119751467905568 13.013722434568619 0.11144498074656935 -1.009406873590726 0.6321666473470596
P 5.954701576392264 8.552126199218149 13.353866049171252 -0.5111427646628035 0.5314349392529364 -1.7035041970043114
P 9.133667788189467 4.042885356111272 3.4442178185690255 0.45336853396681276 0.19966724351977225 1.1983377045296006
P 0.8594330865794133 0.6768177119662492 7.466820058939848 -2.033955745029213 0.9773012513054329 -1.9696025755641242
P 3.0852050801573156 5.498530197950004 3.6059880343526163 -0.5334044042744813 -0.31766210956971747 0.3303913842109278
P 4.912976687427368 1.9648876766999386 1.8904763513114065 0.5708851748287587 -0.14942017443876202 0.2508746196315228
Ni 0.5237456039562736 2.2607037664698306 12.164986870279538 -0.36715018899751606 0.6829976139559979 -0.3788363670861927
Ni 8.19046409629481 -0.05072602535817678 7.478550019783246 0.32779662690055805 2.6812070546235374 0.10891038725017371
Ni 9.009055073337931 4.537679662308642 5.590181563851017 -0.7302277505875554 -0.396262275872124 0.5809240471219995
Ni 4.34222707391111 4.997198984609577 5.5634232628375315 0.28332296996821527 -0.7189156680088458 0.4754070018240909
Ni 7.271593784065723 0.2371644151932028 1.7168938788577242 1.0710747829141682 0.7863125093962652 0.1433881093120692
Ni 6.1323296368718205 4.2807577024500105 9.293869707366632 1.0153196395307353 0.422987093461478 -0.34134582633990246
Ni 0.6276384740779742 7.690198987982008 7.709591812506408 1.0123718697563209 1.0663138711904152 -2.0836289438846243
Ni 1.8961987168061647 4.219484718757157 11.482264432748014 0.23077142112374452 -0.5870628130298857 -1.0574227393483726
Ni 5.790399828757994 7.802850752567495 1.6234095604530787 -0.5465424843183362 -1.7567687127554066 1.3377421466035737
Ni 3.572639520944693 4.934504527546561 9.152192765814188 -2.6815117303481495 2.9875100304266935 -2.180226575205716
Ni 4.632020605454782 1.1335595501162719 7.048139105455812 0.06461619331848871 2.5398076936067224 0.30422655289010186
Ni 8.077634647538053 2.757555468334543 8.200487353914165 0.14745790850606863 0.1275791673042706 0.7106997078569567
Ni 3.348243116227047 3.23217794519347 7.101998918487291 0.6709800206698315 0.6027144035242136 0.24800244029005028
Ni 6.657236734200294 1.8572765314994408 3.7057689186791785 -1.4429200633945087 -1.8671860235684101 -1.4722710057528
Ni 6.464262372402059 7.037069381585661 9.105765762220908 0.20101810112071186 0.7539397494925144 4.908551923473294
Ni 7.5648287774529495 3.3740914872476586 11.582715841026163 0.9834266474768805 -2.0232900377852507 -0.03048017086672815
Ni 2.1140301589852903 3.8944723141079787 5.124375027426653 0.29648290438894104 -0.45395140305347625 -0.8405270477654556
Ni 0.8372347225086371 5.642996780991395 1.8500990261599621 1.0303037716443932 0.23187905236562645 -1.1525558703087957
Ni 9.145815774425275 9.210913643699689 12.572512998527182 -0.221368896862922 -0.2840079118503818 -0.13408560096422067
Ni 2.365593538310344 1.437455593779727 6.075902755155407 0.3391040814935773 -1.330047091952161 -0.2282337423035553
Ni 4.7999508509023645 6.906265776135121 4.21208931651291 0.9040299534151075 0.48451770587610743 0.2027847061028314
Ni 7.934991665201807 5.077212972472223 2.074501977136549 1.347460916553234 0.8097321738717861 -1.6028475651224976
Ni 7.532378036699867 7.721462050327125 3.50247110653013 0.4167156586304694 -0.15219156653631208 -0.44654148374265035
Ni 1.6767213580931655 5.1475946078923105 6.9701488467859525 -1.1693264048989154 0.7150356162281492 1.0732409373275515
P 0.6532913925101882 6.344269446003556 9.18229059406771 1.0370236068667302 -0.7172521642634937 3.17737648580596
P 6.761780489496753 5.210214250567424 7.121161688768887 0.2737841772398446 -2.5687819693518854 1.959392724910658
P 8.124608731342876 0.361793028102169 4.208201773881481 0.42202010156251835 0.3052040863120228 -0.19835263847340676
P 5.49580882459002 2.6769429653686707 5.494548202153848 -2.3805111405945127 0.30599444342380205 -0.27433233643383076
P 3.4018850323537575 2.388701832373995 12.17161168432838 -3.8943013486370224 2.075076426328923 1.3207142445870095
P 2.548075182205131 2.050157375312795 1.0779322471705761 -1.1826197795737117 1.2510579177414518 -0.7656747785412555
P 3.2487493321140644 9.2159355594877 4.414894288881645 0.976661560838905 -0.8687528753803683 1.0698676499799447
P 3.0903859765196233 6.5176050309771565 7.351395486102693 -0.06005968429605785 1.477873182430926 -0.6925783156658976
