# total energy = -381173.41578578466 ev
CRYSTAL
PRIMVEC
9.19777580175262 0.00000000000000 0.00000000000000
0.00000000000000 9.19777580175262 0.00000000000000
0.00000000000000 0.00000000000000 13.46187461128716
PRIMCOORD
 96 1
Ni 6.861135925669612 3.0714776040548415 11.228751196094946 0.9609917155121321 0.8732219668953155 -0.6696476750116531
Ni 2.360903446949589 4.514249888796114 9.269684770214448 0.5132819224929934 -1.1585899923180176 -0.8602037002587767
Ni 0.6682653089366105 8.743460710493766 3.5907803376060645 0.15893968389342303 0.18735011671531604 -0.19155978392128944
Ni 3.067265022811502 1.366826251277833 0.8474168235291804 -0.8107901828226554 0.18873851242241044 -0.2717622617138094
Ni 8.337305333761467 0.9755896666343918 9.357699205095763 0.36499611876899074 -0.9845641035154334 0.022208417776239175
Ni 4.915843168810736 3.2843325279268205 12.132486919648347 -1.7021032028917267 0.6316791661876798 1.03435583022658
Ni 6.114865201303658 5.416238954755389 11.807746573775317 0.3832949170781786 -1.2038959153436686 -1.344331369785317
Ni 6.168497431063295 5.810805134180684 4.610341810244897 0.8157416132906596 -1.7930261524255442 0.404362022161123
Ni 8.93934573830906 3.3854896644208154 1.8200990732836166 -0.06289226864884653 1.8441221997704111 1.029419569267227
Ni 7.864797203558748 8.024755719722329 2.036969746000229 -0.8936987466924287 2.7112411390917823 -1.9792146447325913
Ni 4.802287430753374 5.666602407689243 13.553415407021044 -1.094725846674205 0.04013620589925346 -0.5000253145934034
Ni 5.124411929234251 6.568895000244654 6.547720800942706 -0.5081885671304861 0.5939538837227643 -0.2590882657905667
Ni 5.538100284216103 1.1116431639083664 9.709202318749897 -0.3100349320417628 0.23947023444932308 -0.5827251048864802
Ni 9.244868251758872 3.9037015417810776 10.677070452734105 -0.949186752457404 0.840887516428668 1.2663693512875416
Ni 5.969880663882778 6.8259176427422155 9.143561191521936 -1.3574334543849138 -0.059772234962626083 1.356849813967302
Ni 2.395864192159052 0.7345168868749853 10.330951716939909 -1.1540615083200445 0.4988125252322248 0.2767895397250717
Ni 8.163513363034605 6.804633989910147 3.8183526222803756 -0.3218162409474071 -0.45852462424645546 1.1719396741520463
Ni 0.06441570192053495 8.64441906239708 10.889754297979172 -0.7594455098020921 0.5866306105884737 -0.935638324349008
Ni 7.228743424692662 2.7785836365594085 8.802019268886443 -0.17910407465643993 0.496029563170449 -0.46643025224677737
Ni 8.510214318026843 5.2286043316896045 5.832181684546722 0.3093631027857188 0.07959724010835324 -0.6717886326140559
Ni 0.8729516882622799 6.920213238608413 5.038348342566284 0.13686393504030625 0.06446192712881157 2.5343608115595386
Ni 2.110696356201622 5.893281588348864 0.8936236890142579 0.4823404957191305 -0.7040014699011747 -0.4258055367468796
Ni 2.5794058050648228 5.380643563026733 5.676629822692495 0.10157168749691539 1.1373418815725187 0.09461376812184351
Ni 8.330682935300322 6.796539947346524 8.715271367710823 -0.13880486081676094 1.2054010391342853 0.3832103277841723
P 3.9635330723223974 6.810051479762389 1.6629725522397394 -0.7422106339810444 0.44673225959721774 0.3045865073326819
Ni 0.06144941927648027 4.5414293158137315 13.141306310116663 0.6969702740860061 -0.2747341998579398 -0.37877234661747666
P 4.5912536664582095 9.191300406428718 7.133931833613033 -1.143418941004534 -0.23580255578974876 1.7609678384384189
Ni -0.03538108355623294 4.496939675040732 8.379410911088454 0.17053638759208695 -0.32395719854980987 -1.0128110141762687
P 0.8796513480388052 2.168945869332779 0.5440576269100098 0.3140106288600592 -0.12949746737290602 -0.6515980165987939
P 5.574624651284447 3.995679298185874 6.228701471518054 0.15571089254348022 0.12035796696548305 0.7752523949273615
P 2.9401149723575117 9.230979610541747 3.8955569114514326 -1.5710021384771267 0.037998076510328105 1.5651150835687302
Ni 3.283182805971761 7.654765996808396 12.940024947333098 0.2299738649231136 0.5395722236480902 0.464991977138354
Ni 1.921148595802618 6.77383063929018 3.0452243930442204 1.5218547302181984 0.8917148834931804 -0.5118426189433056
Ni 8.666576503914996 1.853701307030981 11.806939009074082 2.1663791277996625 0.07933035960021176 -0.37329332578077645
Ni 4.136570825446741 2.0268310379117285 2.840294272664078 -1.3251990198312402 0.3742896282557748 1.3112862664048899
Ni 6.837267697882568 8.640712358813968 7.738773880620717 -2.117003405580012 1.8302948069690155 1.5188714792201583
Ni 5.2910204371858995 7.528020648482587 11.518343162135446 0.4193556673564777 1.0887979112255444 -0.23573056490123273
Ni 6.465254464327729 3.281977897362858 2.7254103758042323 1.285151002770419 -0.2718105984532415 0.21488380335921056
Ni 6.594501607627749 0.8780932448453079 11.845829963814722 -0.6381686305667654 -1.3500057944622748 0.7325875090689835
Ni 0.7908615406709993 4.874572749511904 3.5786512308689638 0.8571479441515883 -0.24740388747410294 1.2629325576918509
Ni 1.4333813558123434 0.6378326286749557 12.6025355646448 1.3092702644161258 -0.4980309098711939 -0.17080969585813163
Ni 8.450640325203457 1.1386202398618932 2.454759389140171 -0.4861809525111434 -0.20862419560274395 -0.2528834225314354
Ni 2.08285468933789 2.8406778199082865 11.550772679488649 -0.08826031509998992 -0.1715108356902143 -0.7929649817157762
Ni 8.570275792959174 9.364807246110725 13.434452296664645 -0.7094270117921201 -1.7268084189478905 0.6291191187699875
Ni 2.3791150427177383 0.73203900611744 7.937565405538403 1.0346815889971148 -0.030633408615140786 -0.757180110806683
Ni 3.9236975060234807 8.893255684574617 2.0963367888717053 0.09966392895124125 -1.1824747693554152 -0.5370489430056041
Ni 3.337394495596748 3.6437264133029212 7.028471977674422 1.16577699698476 -0.5236936047446207 0.31445491548632937
Ni 5.840559938377635 1.783457894464638 4.48730040616951 0.7477531610658283 0.8678005387694281 2.2809225449658976
Ni 0.6591990614877897 7.171781600151172 12.475509684161958 -0.7447367428370077 -1.0507517550860999 3.6104356187914597
Ni 8.53527825664715 2.6926672143016885 4.298147230345482 -0.2166619783055559 -0.12311933176070407 0.14402522867543585
Ni 1.4153813088839247 7.908045144620283 8.779377104592275 1.1728012508213932 -0.19467184718770988 0.27420866637177294
Ni 5.306941786819569 8.655677139781028 5.262704165099119 0.6987363648474935 -0.06430997493197957 -0.3703494126611041
Ni 5.9546859385247055 0.7681200403999134 2.5512541731620066 1.7888252269703193 -0.7130689794200816 -2.2713755247074108
Ni 5.793614491508627 7.644354114783373 3.2223146861157588 0.13832997806287145 -0.40626746671395186 -1.2844544909240267
Ni 2.514248762427665 3.9587778223162697 2.371605058907287 1.450623088465721 0.8026423569045402 -0.0018650782331967877
Ni 4.349471738196923 3.9209381733313364 4.474781313745253 0.2746784069193398 -0.09240081963092475 -0.21998975712720822
P 0.7033410263415796 6.334314930309862 7.375774467193549 1.1830900343419108 0.23587608934016147 -1.4572663048138514
Ni 7.7549573668601415 3.2260002348148995 6.575600178686563 -0.8939959662178734 -0.257479269432234 -0.1688867678038059
P 2.325979492842688 3.1661411109466577 4.464657322097777 0.027718806071507104 0.38353531522375883 0.10668818278787434
Ni 3.636009479540559 5.932399728147824 10.40616376790724 1.3650392917566299 1.3254527877132591 0.9665519832087289
P 7.441635139667203 9.07949224574305 4.0243735988514775 0.017006818970641678 0.010771893804523385 0.5665250980878501
P 5.430780638042987 1.4129255027879166 0.24664295268728115 -0.13417764645739472 0.26444155968268 0.6506233113903503
P 7.253522232268113 4.620088693091113 9.801981201412978 -0.22127633714911568 2.2148616487810826 -0.1485673395201635
Ni 2.7243719469344216 3.517459349310417 0.026769206224051875 -0.30406071673619894 0.9375599668517531 1.6009040682428817
Ni 4.965345597307797 3.9938857319359804 8.903616059056052 -0.08789367578919056 0.5461794445519625 0.12064053120290837
Ni 3.861235411648983 8.435620357582554 9.696964678260237 0.8815029759571851 -1.5625596641367283 -1.0115648004739934
Ni 7.546719726359681 2.2228356368103492 0.4608655857969997 -1.8021101170046832 0.28350448985140203 -0.7476050655237383
Ni 1.1127376992095834 3.7122866329270563 6.1523994841373275 -0.9615902683280795 -0.5209687496142898 0.25092655591538077
Ni 5.5230343277169975 1.9561921209928452 7.244050362913548 0.3065084069457431 0.023046083186186114 -0.21300715516178798
Ni 6.750348718080035 5.327094113247861 7.601637805153858 0.5860348859860036 -1.6095470886298604 -0.2562641660782103
Ni 2.790770689283044 8.0648764170661 6.084323067511882 0.7081481450796965 0.24421057734778584 -0.23164508197794945
Ni 7.093471738348128 4.779118233915006 0.5598695230135583 -0.6544676248371052 0.20254199396440603 0.348734919715122
Ni 1.510044815775741 1.9495605247560595 2.7714903119854704 0.00943440594002246 -1.8330291751810432 -0.29119980161313075
Ni 1.2572347545215183 2.5619116357966303 9.439008461535167 -0.1195048749365684 -1.6122968834608555 -1.618904104364728
Ni 6.03954461658377 8.40524010464205 0.3230700298167184 -0.38501344243118213 -0.12923701462266773 0.33344868298001284
Ni 8.152126516791691 6.260420000814248 11.132795401725641 -1.7619129759605074 0.315141914251025 0.5671455052806683
Ni 7.571783664979989 7.281308712478002 6.202451019840125 0.3219149713088005 0.11729475465912702 -1.1388873716827677
Ni 3.965418616328696 6.394082076421698 4.128528290426705 -0.22281231417766786 1.0410360704602328 0.43518363552766987
Ni 0.4156235669766086 1.8769808771770349 7.38198020641818 -0.7309319757434315 1.11505838758397 0.3002503418511732
Ni 1.146751073528077 1.4198790211721193 5.087632783780666 0.35637880941362493 -0.8537324907121361 1.0099156949063446
Ni 9.135727446008941 8.92800488094435 7.353494695259615 0.639725176420608 -1.362640195396834 -0.5122899908933694
Ni 3.49565142326684 6.2903863538509315 8.068617152419083 -1.0756009529192958 -0.06934522336304187 -0.08164769487947875
Ni 3.6253492575732427 1.3703765926750582 5.534943607616291 -0.21089525102510776 0.4005166802731038 -0.12334301773573596
Ni 5.072628452378352 5.179984889654029 2.4083566110339514 0.8081067224532212 2.0117128744706125 2.0710989297384135
Ni 4.77266139541539 3.526546751643211 1.2055027852092046 -0.2639399374559132 -2.8677480451739967 -2.6490345836560505
Ni 0.9399298904762525 6.11086416890005 10.237647641287754 1.1823433859838735 -0.3085010118957397 -0.5895650106264492
Ni 7.759482672475256 0.9694363547309112 5.919334287850522 -0.3447096006058128 -0.7488222257602909 -0.6001345586121793
Ni 1.4020629297565101 8.19678171752622 1.1641505057071724 0.07726267843790566 1.2684889687337055 0.08357165137506897
P 3.9302187289525805 2.6550391141564864 10.228924470870325 -0.9426016430407185 -0.5311264068735821 0.4688674009333602
Ni 2.2235346677590258 5.271511955052442 12.152707309616376 0.0038669391545739853 0.12655998201113688 -1.1573198673563425
P 6.9975573339692065 8.530403435557696 10.189696877541245 -0.08316567418590194 -0.37666892712122874 -0.07344741845687351
Ni 3.8872467211602593 1.1253386518370405 12.158630677128846 0.8123937798643494 -1.0430618426410099 -0.7603783060290066
P 2.1114045849259386 7.672802834839377 11.139498740612423 2.121043894197973 1.1378630441833113 -1.9550285344046912
P 7.66194026180797 6.874270349284218 13.469951111749076 0.3486107354324319 -0.2664040827256896 -0.4519806524803507
P 7.976246650994439 4.584493301362458 3.590807011155422 -2.3114389683871996 1.0042384420159092 -0.1015662881802767
Ni 9.183914592589414 6.349215326847438 1.7428552336773049 -0.14509120804610498 -2.373379928866371 -1.2994743613716266
