# total energy = -381178.30083586636 ev
CRYSTAL
PRIMVEC
9.13160572734188 0.00000000000000 0.00000000000000
0.00000000000000 9.13160572734188 0.00000000000000
0.00000000000000 0.00000000000000 13.36502801881946
PRIMCOORD
 96 1
Ni 7.460238805566454 0.6261149393316366 2.606929157919205 -0.28095575528761935 -0.3231185046985983 1.9943841533841782
Ni 0.6787056830795859 4.842307889057944 1.4164791578548255 -3.0106872398741054 -0.5574174793596272 -0.24436252954461782
Ni 8.542160584633125 4.650270220454775 9.850706902184152 0.6278191690116414 0.639757315210124 -0.34812788225874236
Ni 6.665697790580161 0.6444082851001925 11.507890621405847 -1.2009964823086865 0.009397382054499945 0.9238130495793058
Ni 2.8826287719436063 5.767257365543137 1.4167594981508844 2.6255064186271233 0.2416703274244354 1.2234558397534672
Ni 5.5148232566098985 2.830879962244407 12.356048772624682 0.8110272385341258 0.21033860719068936 -1.9157035115528236
Ni 5.616686318581765 1.067320341496701 4.170650892445062 0.39769540877422477 0.24047065068937937 0.38095701297362133
Ni 5.072981381525118 4.453484116869502 2.357430860229709 -0.7711466002891042 0.905130385568138 0.6992945513438086
Ni 7.207676854152928 4.996157182478115 5.0533575608009995 -1.1765728020486834 -0.694012991229895 -0.5880727423516388
Ni 2.2909007203275644 8.092556844673751 2.0974275633028823 -0.10304261561548705 2.1836790525306906 0.2404444254371343
Ni 4.144351867928794 0.7311466684934842 8.564831622190951 -0.48382325091224426 -0.06836486172764354 -0.03281550386812413
Ni 3.6478938589440815 9.05656219888675 11.056994759234996 0.1838647292698769 1.0362530472492928 0.7667939797473633
Ni -0.09910440387937876 6.929893407699842 9.262004151548055 2.1782252285049712 -0.6297374690802767 -0.2578428234192398
Ni 1.8963331681319229 4.68392018758757 8.224330481230005 -2.3710903615012455 -0.4288592359715388 2.2751061953944367
Ni 5.2229040844793175 8.065107237834896 5.180685931685546 0.11660132813652824 0.5545324445023482 -1.7493019720647165
Ni 2.6238208022074665 6.567213422730176 7.432185599588529 -0.5097111744225995 2.2914252442694343 -2.1697632137805467
Ni 1.5572949104096945 3.2465689185046767 10.436830887360738 -0.9534887222668678 0.3963669197707883 -0.8990289006560903
Ni 0.455946553302777 0.7138422756260088 1.0220869324892927 -0.03110546315555288 0.4856397352956927 0.15053706165202463
Ni 5.872006014927206 6.8427413625667635 1.3953358379364338 -1.3855474390123106 0.4455927466761358 0.9185402312161406
Ni 3.9814166268024818 1.6577517050983994 6.056081836490189 0.10372061551911814 -1.2101578370929804 -0.7774977393181125
Ni 4.9536769525997535 7.741081339940704 7.507363370121544 -0.6003394755341338 0.8007865346427241 0.0326201000278664
Ni 2.272610114040729 4.605717116074611 13.113858816703255 -1.485326039164545 -0.6015558644397382 -2.7275848705571284
Ni 6.623865904708971 3.1907930706764236 3.511139844620059 1.2194675445296805 -0.3294493320126326 -0.5076373226127063
Ni 1.800086043686968 0.5456992797491312 9.943006433469947 -0.021159664796750653 1.6375626000061796 -0.15004469539663837
P 0.9423634486214862 2.8089367136636456 0.37793889815254245 0.4915661280824567 -0.7045853674291027 -0.18451676103157902
Ni 2.934751977477933 4.860680679796393 3.9007306716902255 -0.33560866674580914 1.5236748141460725 1.0219777682772013
P 1.3179737873116506 5.2932813698775405 5.861233459641844 0.8653003980553935 0.286139613481404 -0.11386336038007486
Ni 0.1920924582375781 4.096703149204527 4.123271556089972 0.0010582660611852743 0.09362672161822586 -0.7291638280994152
P 6.331974127395595 5.151613638507613 7.138408145690913 -0.6413611693621342 -0.8768099413568898 -0.09106281754579156
P 8.941430913782197 8.320198644036967 12.807786568844282 -0.8752608517022152 0.6519343168922902 -0.13824461743791674
P 1.192724683052922 6.45473030328872 2.5788220754674427 -1.2339503115268877 -0.3407164202860196 2.2037267152101854
Ni 5.337934921920788 2.6869019346235716 7.530738454481524 0.6862138069004504 2.135246153840284 0.3506869012351702
Ni 0.24274182260630556 7.4251917027562335 6.267623701782351 1.3732184851333122 0.5677970228217383 0.1570218980454199
Ni 0.4608410939766381 -0.22370059832806835 3.500608363726096 1.776755954510611 1.9102859400816778 1.6103330748662654
Ni 1.2245665922502234 8.64073626854046 8.066061490634183 -0.09800711007410863 -0.6095129145032858 -0.9413834543629013
Ni 6.8470788752908005 8.94450826491483 0.6092771715172104 -0.04317910649063531 -0.6619760173990082 -1.3043764266589342
Ni 3.252705357558473 3.7100618307867053 6.777619316268927 0.0014634719194039313 1.0636594642867037 -1.2335939566287337
Ni 7.101549332302903 7.032706156668129 6.188435330010604 -1.941235594385657 1.0303024860928127 0.19047015040153648
Ni 2.0782621491866515 3.409540686053928 2.415942537136113 0.4914859096638245 -1.2161770467038668 -0.48139381553514504
Ni 4.370468689134294 6.028804816999722 5.696161422773584 0.05188769000822677 -1.1347944325603165 0.22366900575100832
Ni 7.173278095349879 4.835176104979054 11.719940203976865 -1.1275755462143742 -0.7248955397413644 -0.43348362211742764
Ni 8.43730235598024 2.575158475246635 1.9897047499309846 1.0514899188037052 2.2512309314387355 1.6980876539744303
Ni 6.882774322108195 6.733454305132492 8.796995392714047 -1.12836281800236 -0.5525400966626678 -0.42163212209548034
Ni 8.50872064443223 5.43806297880304 7.009101869004205 0.684459286103189 -1.2111628813187272 1.8458222131806534
Ni 6.599667149511711 1.3274432624586543 9.063907662539837 -0.14802612230471282 -1.2017325891437627 0.3611410066889587
Ni 5.202330576758779 6.072280391903178 10.541157656559859 0.7551697652448737 0.8351639836813294 0.4649292422212186
Ni 8.665510314899013 7.873124358866136 1.8999995078344514 -1.176380226421903 -2.6462845317147394 -2.117097250845399
Ni 0.45791167485690926 3.3709870466415373 6.503543301744176 0.7098700128668097 -0.2701697204157089 -0.3009465965872494
Ni 8.647511919995692 1.2757583739995988 7.0007090101733365 -0.33166845115113847 -0.3814555498765947 1.7394944990559913
Ni 7.658221149502989 3.225584488526071 8.327802532132347 -0.024499527803261034 0.8001674130014864 -1.9288081672555815
Ni 4.4533928008121535 0.8846809215158039 13.023538104380194 1.034452246595128 -0.7319781576197587 0.39959468267946663
Ni 0.3490547160527476 5.500340529914482 11.873878073972662 0.13121470717432884 0.2405223298629212 -0.2327948793116765
Ni 7.818809567955453 2.607210411375837 10.896333287936653 0.021343755783098724 0.1929918883821257 0.2194768220465317
Ni 1.908551256605106 1.7805718022316672 7.864156208873974 -0.14123532463512453 1.011925783357838 -0.26308041766909535
Ni 1.1815567292392426 6.917383107843145 0.24857509234970568 -0.8848567229207664 -0.9647491256720353 -0.12179598496359023
Ni 5.848090339507723 3.9657193965443334 9.739082153681768 0.145425194346756 -0.7189413790404586 0.21458169873775945
P 4.824693021595485 1.7967438759880254 10.426926747780758 0.1849924151164169 0.23944760874150375 0.1541018961851475
Ni 7.632670916656975 1.9120486616015402 13.399510054657458 -0.26877849649513713 0.761320872447934 -1.4546170401164624
P 8.923377729244466 1.9000771264831975 4.5883743704630495 -0.38738271399430707 0.706961580970763 -0.4227844905323686
Ni 4.812621038814059 3.689050005990895 4.882110732134858 -0.042535559369365455 -0.33183300175346075 -0.15313027630049758
P 3.093550601206374 8.995608730606858 6.66694334160239 -0.22016459214217565 -1.7773619635257263 0.48668077496569734
P 1.919691815601581 5.790433380898099 10.326809648825387 0.04725224811874443 -1.004230471596109 -0.3865831009111471
P 4.003049400788259 2.2163137646855917 3.2539034242308804 -0.5190167680942417 0.619154808468424 0.7138199986534931
Ni 3.0355283783673563 1.4266946851903635 1.4727590703196403 -0.4375097125576852 -0.8996464796354314 0.10485035824818716
Ni 2.6803271784945046 2.4022697838693734 12.260074683191197 -0.045800346163566284 -1.238029366692268 0.5600106940081001
Ni 7.465279451932074 7.327903575257509 11.452438945581179 -0.4203141746150052 -1.2058316989138007 0.32641363051010236
Ni 5.384086057304545 7.668247652599817 12.477550265889844 -0.1451948235035048 0.5881218504220194 0.2948019171420923
Ni 2.186846072979342 8.909470293710344 13.139333257221669 1.4858549150848217 0.9136211966479685 -0.7781217460553567
Ni 3.3592346700608298 7.376127585143069 9.523972570029015 -1.1122651411095488 -0.5236354978131756 -0.19598105291743667
Ni 2.2981603468867426 2.706489228924751 4.801479566657011 -0.17232844649550322 0.5528054345089125 -0.9456003206577263
Ni 7.957609975124648 9.081500614148531 5.192326902676289 -0.8974777541188865 0.2902878313218227 -1.0349960349137401
Ni 4.057409849727616 6.88771452081073 3.0853568113805236 1.4252126188124163 0.5849953889778958 1.4670172135530282
Ni 7.418452577723939 5.285565163031622 2.5265381536721834 0.30343593866800644 -0.37346944634732454 -0.28752723785754997
Ni 3.222269715644333 6.853133129892983 12.159649849122564 0.41586719458724514 -1.2367492144282637 0.36441042146884983
Ni 3.6118605427144996 3.273470628999443 9.040920671423585 0.11642263646681884 -0.8095892205360186 1.1006797502647947
Ni 3.705496027919297 4.47016756054701 11.221117109106835 -0.9613848371854928 -0.6738324025169622 -0.8355640473332256
Ni 5.496669624409086 8.347849146201987 9.946948547665668 1.4473133073661977 0.005693965060983743 -0.1793177333291428
Ni 4.012391033454976 3.4751056152299036 0.5601199115255519 -0.6376325555576373 -0.9184175895953473 0.9738734565708066
Ni 8.517569170389267 6.8148169122296975 4.118353273241201 0.7666764803328925 -0.5617312762436325 0.06781336009954773
Ni 4.515615562289186 5.613161518768127 8.266683781788654 0.8797080888402915 -1.8951071754587105 0.2204060187290204
Ni 2.149159936111759 7.257444105407673 4.916325945662638 0.45407018801952764 -0.355049291968924 -0.6138989593861235
Ni 3.3391816638671754 0.13053539081861357 4.050472568850877 -0.28341398702012477 0.4260888723152533 -0.1089731221673091
Ni 6.139972985215365 0.6951352681176659 6.660368585473323 0.4782254451094925 -1.288443814589078 0.5782323592224493
Ni 7.026067479298918 2.691257710559079 5.7317262876289705 0.8749875434361706 -0.12663685799565932 0.23545262864949773
Ni 5.588122655843263 1.8970545649849733 1.6936434814390917 0.26410885893360964 0.07909818898474764 -0.3291829657251234
Ni 0.5278515563404345 1.1582437397982588 11.79061426656147 -0.5875703487939236 0.5297776061551714 1.3624139383186407
Ni 1.3827442667886969 0.7275205078561888 5.498439329600493 0.027874357812764896 -1.294568439429577 1.015383145778819
Ni 8.436781854453356 -0.2267222466657188 10.296858895175767 0.7272416713760378 2.1300543252266992 -2.0459535408210376
P 6.383805121546407 3.874987761963207 0.7204855187980871 1.0994085968618548 0.7588631549360608 0.12734442558564518
Ni 1.3982588649321483 7.780155480879979 11.16887336637681 -1.3398458232101378 -0.14685704169727612 -0.2884026984839678
P 4.119386057849808 8.295315018409594 1.0470299135539411 0.7412791233057104 -0.15437134779645026 -1.030346709067187
Ni 7.592793194413036 6.042054776920939 13.549331396788002 1.0922316194974415 0.10083352377931021 0.36675218222814904
P 6.681495468501392 7.583899010427325 3.312415101137284 -0.648800913469631 0.678264984367019 0.2791145883138225
P -0.01118530386457546 2.004889697107409 9.274955507961746 1.354424492355261 -0.5598769966437133 0.17340882404387556
P 7.93798615440053 8.404309864460352 7.686000407308872 -0.05883995295634383 0.21549418324969985 0.5305332533742734
Ni 4.985235782019275 5.335597230852676 12.912047590482112 0.9795679358524227 0.31226613536512676 0.6855280936873356
