# total energy = -340866.9592596455 ev
CRYSTAL
PRIMVEC
9.23349702537905 0.00000000000000 0.00000000000000
0.00000000000000 9.23349702537905 0.00000000000000
0.00000000000000 0.00000000000000 13.51415623282538
PRIMCOORD
 96 1
Ni 6.416588054741452 6.21249083221815 4.8044443707897875 0.29847602355956987 3.0055553179641787 -0.023329675864875946
Ni 8.819707274391147 4.504709354123817 10.910370488256596 3.5990862552169114 0.46512644583368923 -0.13772679726123377
Ni 9.11119031459272 8.692663586158334 7.170124529266609 3.1599197237820933 0.18967285131122175 -0.20194266981751027
Ni 7.166311094915264 7.4859932356229075 2.8680285746630405 -0.5693031750536196 0.08688271802617295 -0.6695335180312921
Ni 6.298463924821953 1.0991555089202756 10.487756090603469 -1.2675150348562108 -0.46443199086982595 -0.42883532471213887
Ni 8.2734720459242 2.3964341676633194 9.914931160195678 0.09741935589143869 -0.48539908003979626 0.35095686706710527
Ni 6.681524790439112 7.6558526504590745 9.100148898618537 -1.000849470939018 -0.14339505129060465 -0.36061058810678537
Ni 4.275293882226697 7.5840899100749315 8.439658375566747 0.9775470487676519 -0.5164757468399429 0.6205473179405765
Ni 3.691108980190675 7.668705678587578 12.658048061133716 2.458630253495443 -1.7720040416479226 0.9266584894479009
Ni 2.0093751977504413 1.9175942353960431 3.9334707385382077 1.5749348978726294 -0.5288072718221022 0.1975291141308469
Ni 1.9193301328731684 8.363507877304253 11.861186170958728 -2.208503310663222 2.1079040143819054 -1.3133277223149509
Ni 4.306069128456798 2.479073967771152 5.251208980418562 0.719917884021115 -0.10453925476567157 -0.5258633587024298
Ni 5.484291074061249 0.459371103381537 7.934080082053407 0.2753211827096613 0.9164131575708089 -0.19107538808570318
Ni 5.941506155842207 5.031932811817355 7.759504196837901 0.286157611203533 -0.4500646664045604 2.0363532987271125
Ni 2.3646063027502797 7.8787862073086306 2.5181464346020244 -0.8023423091656182 -0.3511900661238339 -0.3489094976197733
Ni 4.2544815794956286 6.154652205639886 0.8562785214279365 -1.5374268736248424 0.2944992983000089 0.9833122333862033
Ni 2.5295534970660714 1.5263247907514137 6.4451306413440586 -0.9618869736328919 -0.6977043240385532 -0.0795285916539469
Ni 6.797082008131797 3.4395238814713305 2.080666106426706 0.3692700635539963 -0.041532314915831696 -0.44659110603366314
Ni 6.17985965304708 4.197649404114208 5.5974281921329 1.236356606975535 -3.877374233864381 0.3097351414131569
Ni 2.578518732817115 4.803172918222766 13.108961281062875 1.1493162803255754 0.28044153465536215 0.6603834761009079
Ni 8.632368849319882 4.997344131235908 5.776180388140448 -0.026495475187367275 -0.9704657164408382 -0.34977415961291375
Ni 4.122451802764689 4.936319948117175 5.28483276054065 -1.9431382107250086 0.9322820062822654 -1.0716283414247931
Ni 1.3105102602575158 3.151743473654477 11.983854104859576 0.5574982119988915 -1.9938583627876953 -1.6801788920148097
Ni 5.161414143315919 5.458658885781993 10.166132145430721 1.3409537115623358 1.4897812467224214 0.11944393979164593
P 3.4175019906046065 2.632248453133035 13.101812707516117 -0.5539153797436396 -0.5851882217149923 -0.5076802600354998
P 8.372806009003536 7.604874512314343 5.342497797371201 0.8920529835588894 -0.6614152597995319 -1.8860445510358097
P 0.6043342396667827 0.7913291786415108 11.70720560128965 -0.8971980180949387 1.1766386222896124 -0.34949082404454007
P 1.162404964868729 0.5223260107687121 2.0636247639597767 0.29524851776120764 0.3422354280337074 1.1099406067414304
P 7.6901735596211775 0.3560565796511955 8.336869237828152 -0.8564853708669249 -0.03489321233275926 1.9105237671240967
P 5.571556856275678 8.760446689241196 1.8378574468137856 -0.28584085129406256 -0.5472009438379415 0.6685405579904035
P 2.5352043973639478 6.249784927484692 4.071261294183927 0.43197438456175286 0.1646750437153035 0.023010087741928115
P 1.9165323832158865 7.072711133608772 0.5654224356875167 0.5389163352316461 -0.8697900583956311 -1.8859478775569456
Ni 0.9360088465621408 0.6566724719518364 9.597348716755581 -0.6093987575229246 -0.5035657236464941 -0.0020327141593126283
Ni 7.912820878056952 8.72207227480006 10.664493537517886 2.5326867662912256 0.9899377091225209 0.5752578499751576
Ni 3.0940248825400567 6.604434322159749 10.333586234241405 -0.5645977991581502 0.040735015825516946 0.6334714822014123
Ni 9.180866284605425 4.182340265725517 2.337814387220348 -0.6321771888700208 1.8149820878713454 0.31057254971278775
Ni 1.1236335100471877 6.656280409043043 5.690324560951323 -0.7294438212336791 0.51358299867318 0.13711744581200902
Ni 0.29261229691142643 2.12875508329169 7.703690476199709 1.128102879472754 0.48848183273017803 -0.6919836195046922
Ni 4.872941223207659 0.9874486595678099 12.751052461869598 -0.5085168970041822 -2.354384361600474 -1.938516909902913
Ni 7.278110279239917 1.1349445441401593 2.7163997767355776 -1.4385165350101743 -0.9886768401322263 1.236824290640573
Ni 3.9233499022367333 0.8188994779869834 3.022170730533448 0.4163418202308184 0.10763769118533718 0.0936981982861096
Ni 1.9471506599932693 8.863381716235846 4.637639396833584 0.5086446808312982 -0.02331167814274695 0.03010530402581267
Ni 5.7971496603242345 2.8578504906788096 12.014071647857662 0.9888030812974453 1.257142176262319 0.3552295263005302
Ni 4.146034154661383 8.541012627837548 5.885672121510134 1.192299468755321 -0.32616706171693505 0.23921620945698802
Ni 3.73695329388178 3.6184413570790945 10.9011942387206 -0.5904960070811507 0.3972763189589351 1.8357856548802578
Ni 6.32949770897418 6.7246821564395605 0.4415467603504575 1.0551735383028795 1.0791117942860318 -0.1580706510249084
Ni 7.839497676642839 1.38692668323991 12.739228045331263 0.33648746980633665 0.8423661578567234 -0.6216397796738068
Ni 1.593563117498368 1.304730090998577 13.642406269182409 -1.1711642294386024 -0.5398470745760315 -2.3993241595359582
Ni 7.57470867690068 6.449828644728959 11.284375139801604 0.12076163016180493 -0.15676118818486548 -1.6257895186306517
Ni 0.8060649168529176 4.97505446894984 8.24068943739874 -0.16368568321884067 0.4847228799083781 0.3404976194069942
Ni 4.511606776546224 7.291526550698765 3.3002919769097647 -0.12617123121315046 -0.4911097572713284 0.061263731906488046
Ni 2.4566735035184593 2.4700805414800877 9.255075901752539 -0.663938797552334 1.3392650110060034 -1.1894092916917194
Ni 1.4122911000998226 4.2832716238236985 4.024853737162477 0.002445633327015143 0.6777039696572263 2.311032734087717
Ni 8.384864956371226 8.735276175822877 1.1827075785533214 0.5314783908963621 0.5144479177766366 0.45368220855248964
Ni 8.248347699991973 6.608977202791375 7.63839026051897 0.36435899940562405 -1.975471375640075 0.7985095656830894
Ni 0.24857405527630919 4.337444552006118 0.0007091325864001777 -0.7263266157609362 0.8368210596687781 0.5496779446235243
P 6.862141229535126 4.357315038020873 10.922654732956426 -1.8634178147752294 -0.5891430925976822 -0.9617111101766598
P 2.206990505226178 8.541317333245765 6.717481875308378 -0.840385637091585 0.1744328944330157 1.4266200406829044
P 0.9602560102585844 2.948514199869739 5.598442030127519 -1.0527407604916708 -0.8139760367498046 1.0595711531499428
P 7.460545717288026 3.6982926410268644 13.417611239293553 -0.951735744131503 -1.3349535281148428 0.4542105702521339
P 3.970376103571839 8.581187574236338 10.572570379306317 0.26220315727046456 0.4204584135023533 -0.6443747593774773
P 4.053034370674109 3.1086415086373416 2.594623798666063 -0.24002507851152854 -1.4817786881329191 0.2954920012305814
P 7.3430586986766215 4.6337382442586605 3.7227715655034985 0.5441562434743467 -0.3861064183850447 0.8571047496184788
P 5.0746377364540844 6.420576925539953 6.561893753773513 0.4856718740852088 2.3059571193370223 -0.7965169607330927
Ni 3.213026194695336 0.46249110209175337 8.531770820471298 -0.42036199713380507 -0.8677018084080346 0.2461381333878019
Ni 3.1895361777708304 1.2776574771531952 11.133759256519038 -0.9687520761838412 -0.3475169881476209 0.052384170028671066
Ni 9.34217548101703 6.5786451644277735 3.435339260531792 1.4053580459803343 -0.10078930080493612 2.1266926078433177
Ni 5.643024124748821 1.5851514015320847 1.1217286395709591 0.15296058349185268 0.44475096750113086 1.7033262766655504
Ni 8.26893839878979 1.0166357442762861 5.632321578122565 0.029086375842995064 0.5218244127463658 0.03744323244812261
Ni 4.958766579855961 3.9149566532648876 0.5880694343159505 -0.06714204506413599 -0.16143416818050263 -0.1307043431968136
Ni 7.213051057836588 2.30784799534661 7.721177796582304 -1.9611269339929454 0.6773404156702205 -1.13053051507764
Ni 5.453460426847835 3.1823986844207353 9.418853211970715 0.5268570900742668 -0.8693565704026381 -0.9414315339920173
Ni 9.041080370210734 9.085281121396902 3.666431535523838 -0.29099617024275687 -0.8985686731902203 -0.23203331855530362
Ni 5.7926344801842635 7.8238838328459295 11.595051850671796 -0.7773283036197839 0.3606422126756692 -0.5429845917637488
Ni 8.60486226110522 6.6957259091615535 13.247211664870088 1.7040585268458843 0.6354257777143056 0.08309574017991496
Ni 1.5601932585497973 7.588715892181527 8.676791204439299 1.797366945892743 0.7934794594583496 -1.267847992715597
Ni 3.361713200408905 4.778981155509634 8.822216938935204 0.6615713257614219 0.5771062160378061 -0.9803251257334213
Ni 5.809254775178018 8.968181909668685 4.256824117740026 0.8529408480487762 1.1156631110475044 0.49181218265499177
Ni 2.597622838562714 4.9002908419696025 2.264175400201355 1.2154124006237002 2.3201606645309143 -1.2027368620385608
Ni 9.092861822613498 2.2611080324252852 3.650308926030174 -1.1762025631934583 0.6678029084934305 1.6449007855388058
Ni 2.038802353386605 2.852365793330871 1.6396050280299546 0.20324930444407577 -0.16517203795638005 0.4119298072060519
Ni 3.3445019615931506 0.044670736194601816 0.7724891509163686 0.6978179667982821 -0.7039536473823748 1.034469987206941
Ni 5.073677452743334 4.874132344348878 2.9943049592769753 0.480679820187256 0.7258401630428208 0.21143132603423587
Ni 6.861180945824376 8.12922635237285 6.583056006049172 -3.002926879202396 0.5799184886756206 0.09952226116705441
Ni 2.9974332681346887 6.4129685238317 6.89444923630354 -0.2905755377655705 -0.5276662162391236 0.5500540970160205
Ni 2.5109480001702855 3.9877073778514367 6.884125263063254 -0.6180654320589871 -0.8899017415438415 -1.8266988620876412
Ni 1.211047028217116 6.258658318311912 11.81165676852762 -0.5425655019484591 -1.4923207253148236 0.13724882918355075
Ni 8.803299349833424 2.1931771933869246 1.407783306757628 0.41021899516253224 -1.0582377790505 -2.519921753316073
P 7.370168246510878 8.567355795402648 12.839178806024814 -0.5562746240044356 -1.1956015365453603 -0.6394683232147954
P 8.540338582540578 6.103249326623092 1.672822534274416 -1.4354186128111408 0.44760746311331945 -1.2084084585020414
P 1.7748720688857886 4.3813128972924105 10.172159772415124 -0.5753794631546866 0.07148360986228335 1.0424566049568433
P 9.495359199876129 6.70662143587968 9.892943433268664 -2.8746249747994876 -0.6769843178823824 1.366659343858556
P 4.104381848707591 2.6156004576476244 7.566481630878771 0.5860140600503972 -0.2997258368062709 1.0213187945369637
P 6.3739292975908155 1.7143834286057422 5.070362627241802 -0.18872154314154593 0.3600755415389218 -0.46144411188609563
P 7.988313951317471 4.2917018067844195 7.92555294737189 0.5737573541702312 0.027980030152693746 -0.7253719651571507
P 4.702453930560616 5.285318442494356 12.268029755362228 -0.4958603845824364 1.2516413010487475 1.0645369817956505
