# total energy = -340862.4907180259 ev
CRYSTAL
PRIMVEC
9.32901560924103 0.00000000000000 0.00000000000000
0.00000000000000 9.32901560924103 0.00000000000000
0.00000000000000 0.00000000000000 13.65395733547643
PRIMCOORD
 96 1
Ni 6.989597182025755 3.1478618216245495 5.199400093536286 -0.8104204581880624 -0.4280094863767338 0.46083270355434186
Ni 9.294153289443758 3.5801684147960553 5.159790025259488 0.6342924354408108 -0.7559696354383496 -0.792416565411474
Ni 8.56084600078933 3.4635557170264435 12.729679978434298 2.0421992159849283 0.22817049316578766 -1.299201567326214
Ni 3.684233586285657 5.288432488931012 5.237016551132017 -0.41257515409953466 0.6932457740465674 -0.05882941143338255
Ni 6.07988753320128 7.331729508265975 3.136668868441831 2.043329987155262 -1.7498203064620315 1.3770422297547769
Ni 6.634488194777733 2.0341172677665393 -0.432255283584487 1.7088076114950959 -0.5070871065361912 1.8484200558148165
Ni 1.8826606959033672 9.277734221597797 12.870343811893497 -0.0029837652186722806 0.6617183928622474 -0.4027404273972999
Ni 3.5202108301108317 3.2149187873499874 4.212655163663623 0.03628186515016977 0.17606657338169676 0.3944493910331013
Ni -0.334229716937769 7.566102372751253 3.180621593583571 0.3959797116346987 -2.0057569139974936 -0.4319404460000238
Ni 1.3071350518391347 0.7539169504074383 9.554875959117055 -1.5374546415389843 -0.018272830167258853 0.4626594723504355
Ni 6.933305900558408 1.8107059968716057 9.680642287210793 0.9992445883457436 -0.17700785424904356 -0.7777358234708476
Ni 3.712864335842052 7.562016263821405 9.210823721420757 -0.5193870069494668 0.6064931538403555 1.7523672412536018
Ni 2.313017524768165 3.3461127368487116 1.956967239823746 1.0589564023840794 -0.40769340052720104 -0.6570425846531329
Ni 3.039486644825383 2.4175678050804885 12.90225277760959 0.006002497440338049 0.7016535384942884 -1.6814582729478653
Ni 2.4494543811586107 5.8655254076532675 1.6088867330956935 -0.9603039454164881 -0.5157694648015375 -2.094707827406605
Ni -0.07391192655112656 0.14674075436536896 2.162786785583947 0.1723821825515741 0.670548846669684 -1.3185956555821097
Ni 2.699397373050086 6.2712722927807665 7.495926717036665 0.07613576392231404 0.0068206224662592215 0.2759883839800151
Ni 3.2738315222631953 0.4366930964108074 10.8733560270968 0.19973974862892052 -0.3569943315104368 -0.5043383401464604
Ni 1.5585706862620614 2.436878867831136 6.8744538042480405 1.1752777373863437 1.6106788882414582 -1.0481035188299757
Ni 4.266214909298415 5.80809598625569 2.880056563139516 0.7596499125034143 -0.5708473796122878 0.20218435351467112
Ni -0.054631649552689995 2.7956821453444998 8.707251843486704 -0.20733504447767517 -0.8525551825745834 -0.028018596700113037
Ni 2.9577551372126174 4.897677332228774 12.935745810212186 -0.19723883658393773 0.02929000721336891 1.8200001099112268
Ni 5.180533091938745 1.6097963121382965 11.659865760080056 -0.3103429502004849 -1.7693349794561917 -1.065983741544506
Ni 6.330073079504117 5.2215527745061845 7.016318282043476 -0.1791225865992012 1.5279567293508782 -1.3945591555926176
P 7.355294602231258 1.265359718990149 1.5713113231695781 0.27758503904317355 0.528129271918471 0.2766265317846462
P 5.1792830038186555 1.6545942461134708 4.50470000395784 -0.053432408787527336 1.4196343533936906 -0.16817997154476844
P 2.145281820296355 6.144052504022031 3.59581037562408 -1.722034394598015 -2.3758499876734183 2.39403360056098
P 5.276668599980014 8.072751893004842 11.810591870004398 0.12209269026840264 0.9950367209119831 0.2349651474901179
P 2.4524023501582266 7.687491526621508 11.279520852133105 -0.2855130356409986 -0.10819819167449754 0.004488889009289044
P 8.222519913004309 1.6439031939819528 11.299755487450089 -0.24609956684038262 1.4602127890366854 1.3380699622566374
P 8.738190591557355 8.332210481034316 5.083041144997021 0.8866541811408213 0.6960565040224851 0.3560517650915094
P 2.911763089212282 1.159092899766657 0.7682631109378469 -0.7770763355099779 -1.3154622521594508 2.6815760079271818
Ni 4.309772084169321 6.328281908466375 11.475318236196195 -0.5356659466151484 -1.6160316679129394 -0.9428255861260666
Ni 5.049040613933731 7.341674239131768 7.406138671360392 -0.13926971626832144 0.20240418283496112 -0.7571605704226574
Ni 3.85293950840291 4.939107491492362 9.160836055944044 0.7476839983907898 0.9817415464649738 -0.45933503596289277
Ni 4.062198662296524 7.234213305883115 0.10199599578037777 -0.23619850567658676 -1.6578689156636994 1.031472595141514
Ni 3.353874478012257 1.3031235750358603 2.939492655840314 -1.1537882000539998 -2.000680527915851 0.929962099899837
Ni 5.224845917091199 3.72278107966038 12.540573364518437 -0.436019501165404 1.979884417106106 1.891177501387001
Ni -0.10512401478534984 0.9642657333490109 7.05613358866835 0.14520099415109186 -2.999826128789885 -0.09305619382673651
Ni 6.966657132120518 8.964297948024722 12.599162382582636 0.9642061086843715 0.5520459306350687 -1.0817726289476466
Ni 2.3404261732519345 3.0987072372607027 8.980904529088697 0.39622602331754986 -0.08402442264177142 0.9374221557223081
Ni 0.0037801172108997425 6.555546062895616 11.568656905294157 -1.9270104519252105 0.6385226714720744 0.7584057556836681
Ni 4.447393725569106 0.01995103323600738 13.327136272891874 0.8554096213042428 2.3409040677258526 0.34903008235803756
Ni 7.912908535918078 1.3077974119624662 3.870337190008554 0.6327145494307297 -0.14964488885505842 -0.07886807525181257
Ni 1.8396725909975775 5.487280461167755 10.776372511517353 1.2681138447824742 0.23834306282341533 -0.877849695475314
Ni 8.437133921979504 6.4863900686103255 0.7484174955806233 1.4186161965418214 0.34119130303990913 -0.1379715662821882
Ni 2.504840748091266 0.457145097796433 7.801598450741446 0.0672394898739487 -1.0429551418598169 0.9061197460646008
Ni 1.2798570095768673 5.649679968589627 5.840030140314503 -0.051050538818912077 -0.2815301397338506 -1.8807694186797999
Ni 7.118962644423452 3.8441422464831705 10.901947594786746 -2.706735537911945 -3.1513003575441987 -0.03848015835306921
Ni 9.110129123347487 1.3611687114776625 13.397823158673484 0.036767032316704425 -2.6820629748659295 -0.5932884822246234
Ni 2.8426350819744566 8.008670883326484 3.746864866905342 0.38084054200041506 1.0617342222395327 0.6635986406040959
Ni 6.925087037619606 8.494404750108115 1.094186272188091 0.2767836261878007 -0.4010560977163416 1.1976360504768857
Ni 8.977517163443885 9.08956797247675 11.19666892972017 0.8887532297616951 -1.5576956511762077 -0.05567132542037508
Ni 7.2339147773768255 7.912311478905498 6.471512154178088 -0.0012094469270688846 -0.8609611472500914 0.8563069363075317
Ni 1.285920869860887 0.2261008261562918 4.525754659765539 -1.096759332164466 0.7721891826210056 0.31598369342603
Ni 7.612654161700882 4.235139957596769 0.8336427196185666 -1.6275908335054485 0.36396433507036674 2.556452758362571
P 8.586817980836576 8.400582837990596 8.339277210519155 -0.7828844575513227 0.36004365985972187 0.8417298098243052
P 4.914376270549384 1.268372991100516 9.330090524191606 -2.1964579494629137 0.3516209830136654 0.4768977274370045
P 5.386834947816922 6.58695685916684 5.443683171528817 -0.3552920041073494 3.1571295626314657 1.0750381384372905
P 3.1088758645062127 3.764481780382793 11.174863288138834 0.20375658309779748 -0.544222835046224 -1.754473746073643
P 0.9401968725293629 4.210660620080972 0.4224001112705816 0.003976211038928635 0.7249855283520095 0.14726019067296572
P 5.79549248588075 6.272671645154002 9.235168721108723 -1.581021984606974 -1.199319865937212 -1.8097120977216574
P 2.844622162344451 8.498071053325992 6.065470472150627 -0.24371563998923834 -0.08466102778450581 0.2831890154935123
P 0.8116775518666826 5.42708032207117 8.783126594966689 1.7960597970455456 -0.01885827035708365 0.037649692031973866
Ni 5.092252615219238 3.325840785468442 10.260744746437085 -1.7401678709739319 0.13712798733497028 -2.588214367044884
Ni 5.912646266568013 0.20299285396626546 3.069300313587953 -0.5130196699705423 2.1927576177931916 -0.9586347852441812
Ni 1.6753046612373539 6.927167408147816 13.37646810855633 -0.4725595050729668 -0.3458051476628367 -1.2461229423336797
Ni 4.657455174823374 8.73197746702019 5.035893231936393 1.0026764968454278 -0.8152980979953377 0.15923227543317736
Ni 8.1303025916081 6.082844831216717 8.755900795193021 -1.033098560780711 2.0027399815480416 0.6006739760554172
Ni 0.9135224175907508 2.4171200123210532 11.088010150840027 1.1648146330714906 -0.015885046661372644 0.6240378475923383
Ni 2.227526423779307 8.499386444556833 1.6045039614627206 -0.01107682663945189 0.42959122904155694 -0.8534638104317819
Ni 8.301863192566755 5.98742765739371 5.055637161021163 0.8408013844727649 0.22085081957592287 0.09411805943234759
Ni 6.26986361139171 5.216011339108173 4.404589402275001 1.142689261927361 -0.5994010228802644 -0.9574484782455639
Ni 0.02035684542424563 2.4941217089122834 1.6695925048498073 -0.315097948386967 1.0800047384139464 1.4197166286948517
Ni 5.554365413940657 2.9399180589617777 7.321087899918312 -1.7230296686317488 -0.8852326182029464 -0.010354860871762812
Ni 4.7826505671488295 2.16742890385676 1.3833232582507242 1.0722772878627016 0.5341222562771124 -1.587250739125505
Ni 6.230336571355723 6.140460832930727 13.816576557659413 -1.1664470264685913 -0.569751832555264 -0.8280757093759804
Ni 0.5178555340584573 4.815656625125541 2.7256716132099537 -0.9267600480227716 0.3718144272424048 0.43071788644683245
Ni 1.0294848829575995 7.969694255223969 7.069500202537494 -1.049385985086825 -0.1713066900992082 -0.8895901238406937
Ni 7.0930186514236695 3.951957682333043 8.620849297652079 0.7658269878484036 -0.20734507178000422 1.1396736150294886
Ni 3.7180979137179526 1.357800936766076 6.291402443120548 1.2809215380701036 1.4510884581379138 -1.8601748823578994
Ni 9.078055966952935 4.324847773736976 10.431172804875 2.5542634640207362 1.7168387093296884 -0.7148785218249946
Ni 6.173205678464434 9.108263320183175 8.661811140321424 1.0937233735516194 -1.5289473753989216 -0.968639461865377
Ni 6.961460870307904 7.403805484503417 10.480026994929393 0.9122320296099257 0.8249973275609727 1.3840983652706098
Ni 5.687835643299844 3.6153201464117273 3.113471337699918 -0.27972162577020215 -2.0224539150372007 -0.689639801862864
Ni 8.968598624318465 4.701861290134042 7.179264469792492 -0.6279160996008218 -1.103695397162667 -0.9866837209615975
Ni 1.0513054509642492 7.656052743302821 9.562890516609365 -0.2968372024045662 -0.6784051094893091 -0.366502271000872
Ni 6.313840591974586 0.7029795911200896 6.058343104062948 1.18677931026804 1.2226071185999265 1.0582490919044099
P 1.3855920748985298 2.504728799901407 3.8214699393320117 -0.5094543212167872 -0.367365904552748 -0.20246820330367712
P 7.759371593526696 2.351359779794813 7.070128045302286 -1.236411885693503 1.7753333631314714 0.10565254243450836
P 3.317183458786026 4.088189300375414 6.950560848221983 -0.15605027816076997 -1.2746562738866822 1.2993941429529945
P 4.400300853701826 8.08809812403132 2.212555219188853 -0.4355800996351402 0.3925984538672916 -1.5068418017491338
P 5.0486301372375815 4.402717068799612 1.1977868586897786 -0.04423994365498187 0.28390815304772393 -1.0677701440209675
P 9.32711270234136 8.276292360199832 -0.08052899747336542 -0.833909542448938 1.1181565668933195 -0.030932170802482215
P 7.6798603916794645 5.760144844932825 2.6762306280603845 0.19873084774843192 -0.5621364821018512 0.45817983931252704
P 7.48563961129022 5.30631621226096 12.09904503920731 0.7700587665415641 3.5620608270324974 2.689941606283058
