# total energy = -381168.66958151705 ev
CRYSTAL
PRIMVEC
9.26921376411025 0.00000000000000 0.00000000000000
0.00000000000000 9.26921376411025 0.00000000000000
0.00000000000000 0.00000000000000 13.56643129025493
PRIMCOORD
 96 1
Ni 0.030691292837242964 5.653803123596549 12.43484179001636 0.6072984233504702 -0.7775131659370803 -0.7679036678717743
Ni 0.714540496086185 3.4734709152504397 8.226900642722091 1.045447312154051 0.037101275727671586 1.4645008748890778
Ni 6.065439626151325 7.351162962251454 12.617499984429523 -0.2921050870362195 -0.2251461045171671 -0.23587017580289055
Ni 6.450047102124785 4.182232056716099 5.7997709901918695 -0.7337450197121943 2.013511104021616 1.042004090800457
Ni 3.8009893052450465 1.3846721902687031 11.275169561452815 -0.6903543114313853 2.961429274179242 -1.9918860695526728
Ni 6.77876122066157 7.21612905990693 7.150960927436898 0.3022380617051634 1.0528302348816836 -1.2497859930075639
Ni 2.4547380049556167 0.7606029256791889 13.121899994980819 -0.44197366186630976 -0.16130201347801254 -0.10727002343327333
Ni 6.286362060835524 2.192493416465001 13.148327449605645 0.04362107912406036 0.24467466146839797 -0.03652740550207258
Ni 4.474814781009408 7.480042106828491 7.855099512127488 -0.23094368503555066 0.4850404111487969 -2.861433672920194
Ni 1.1853284846247336 8.845795832332971 5.704806043987853 2.018627599312575 0.868038622922163 2.032007363053591
Ni 7.904507200874538 4.871361003977633 9.795044864349718 0.9404907673453028 0.12706031868632311 1.0593001588767434
Ni 3.130908591736807 6.212217622007006 2.253913078993508 0.32866745954128557 0.16585749405917888 0.5918293811805936
Ni 8.021985212840114 8.564864509415766 9.330082576499223 -0.5292731557149272 -0.11305037756047627 -0.7428500673372562
Ni 2.1886652312873314 6.301063033454856 6.3048226264525855 0.7502203916593982 1.0912201475137917 -0.9786479951413146
Ni 2.510418170481671 0.13229577667507292 1.8784079706822066 -0.1331828866442932 -0.23855029373821499 0.10321127998286742
Ni 7.939257482305732 6.2270298251884 2.477026755750348 -0.13603449716047541 -0.0663930827132534 0.24580491841809926
Ni 1.533674797365644 3.7290602084442837 12.694149891668511 0.7847348804965001 -0.9991563995073114 1.1793477936906593
Ni 7.386867972673688 0.32896253345872534 0.7312426919013002 -0.32461385829720224 3.056036357432866 -0.6103032716150651
Ni 3.653682964219567 0.19252805295355696 8.637204232374813 0.34232721641656527 0.2559090967316367 0.6136475054969497
Ni 8.759823877071751 2.153321720191802 12.397289425342528 -0.744873525525188 0.8967390761806493 -0.9207426381840982
Ni 1.1507543182501403 6.3773579298165926 10.274984347382002 -1.4013790067279284 0.32597705719331604 0.5984833961620015
Ni 1.2646358753756777 1.3747541318180825 10.82926755733317 0.17099044441037003 0.45116329878537786 -0.11779200601051973
Ni 5.5494317795274 1.7715042774834235 3.037646400053705 -1.107644354508086 0.9683967497269517 -0.7501124053266243
Ni 8.777407575091216 8.098270839988345 4.495847553374178 -1.0910494262638821 -0.11115058943460211 -0.1259262050818799
P 0.8676910762267264 6.49582774762723 1.3200843105641007 -0.5096846920600384 -0.3294652728522326 0.42376485216776694
Ni 6.799987719588599 1.2491748272489158 10.72492865551129 0.42516918871446135 -0.6813611067938394 1.178945416045918
P 0.49690028990419677 0.5097251737100646 8.703924031185622 0.518949405191416 0.7545529575964811 -0.32931357776571674
Ni 1.09961606734166 0.8049514776950715 3.6144232104180682 -0.20159299978757542 0.979312882418823 1.069154940183636
P 3.4118491838675182 7.027852795188232 11.879621462579813 0.854774044602773 -0.5700066288785474 -0.25926052970237284
P 8.261408997680796 0.977067795588711 4.679047996777399 2.747393420642623 -0.5048047382599177 1.6907551248687591
P 4.973303814108405 5.268546802677721 7.220624628456977 0.8705307932163976 0.5438014312380892 -0.9333646978234829
Ni 2.4001794142636976 8.57436545325865 10.464914239790039 0.22279457356585503 0.6218518956846129 1.238521732947654
Ni 8.480839088990649 -0.33500698758550074 6.858034315322545 -0.7436895325194159 0.8731162945553866 0.3043995881328564
Ni 8.848622942452074 3.9649431537259603 0.5697424042352269 -0.6604392690395078 -0.44853280314106625 0.38446502612687977
Ni 7.370711733534033 3.5910323501375627 2.7245193909473535 0.9844843993174337 -0.09285796177300137 -1.0204425625795974
Ni 3.297022166964445 6.686022739541515 9.554172301438163 1.6865634553849147 0.2988537186139627 1.7664381175243706
Ni 4.489089369807497 8.96370022811979 12.185029070678988 0.39434680401696603 -1.2167516882604141 2.3332496365043878
Ni 5.177217242010464 1.8324400870669564 9.328670875282372 -1.1847347690341854 -0.14014106312968122 -0.4209896034154749
Ni 6.8141418086111205 5.449565273221806 0.33391600115593245 -0.18462886112941107 -0.16030159723795617 0.5592658454222755
Ni 3.1621921873170358 2.749665840265754 2.4147839870625742 1.0167437735717715 -0.29227040896949025 0.6029141782398455
Ni 2.403850022811778 4.6116839876279725 4.236037060350041 2.71046158061328 -2.199150408693413 -0.7405589573102342
Ni 5.296252481844922 8.256848544636211 10.225615589331674 0.5930784230963464 0.49538344494601777 -1.0962739078876151
Ni 1.792934699107568 8.075190498360264 8.138068208173149 -0.8490589964958667 -0.17790902590707425 -0.46231880118156504
Ni 9.34846528072284 3.034119464314956 4.148465238837813 -0.3140689929018204 -0.012932134680635792 -0.05787836037402291
Ni 4.8564653778746925 8.526925618538767 3.2777987450759007 -0.33626944025825956 -0.6814264128141361 -0.5264009763734547
Ni 5.324662621238523 5.820778735680175 10.904914535670889 0.2634403721116753 0.16352807459505384 2.345925175089528
Ni 4.278353800765572 4.65409990862801 9.081355282063315 -1.0022864604958608 -1.6991297220856998 0.3892133394451426
Ni 8.451705950943639 7.42451024871852 -0.08357215588471091 -0.41598109445729003 0.43096445523999966 1.2502943001025497
Ni 6.115752917057839 6.4136747083301735 9.02787655474476 1.0584622363564802 -1.2942830469786741 -0.046011690843423984
Ni 4.078491019165309 6.319184345857624 4.635337166650677 0.9996688203673558 -0.5416720435999123 -0.26857435090413095
Ni 5.436810835438577 4.39520150621279 3.4615831489299524 -1.2797892242378734 1.122280359253706 -0.5687012798035624
Ni 0.9856047412270489 4.200789022153615 6.051184502701597 -0.9655996465977887 1.2254129634798379 -0.0725462467988428
Ni 0.13467981838862397 8.484797043157393 11.293646811654186 0.7017615248270623 0.4205633145113338 0.7407332781045695
Ni 4.476844738767059 2.844730893975628 4.897373197837425 -1.1966559459518038 1.1365805779264617 0.21278526895896904
Ni 6.285833715665724 3.67339858134524 8.76550127034372 0.871405739622183 0.8848873190483857 -0.8223388068922032
Ni 5.5752558083530355 3.433390836053726 11.074955476660701 0.14689663668595992 0.21440814927437268 0.8589580007771335
P 7.52583202154444 4.401458225328836 12.18831222610255 -0.04206813281464368 -1.1468094547433216 -0.8591631748094043
Ni 8.627515123497771 2.203533049749757 9.586935263493832 -0.5616207188076973 -0.11567187434372338 -0.20679459859317287
P 6.256181501662421 9.525970719348432 8.29961669574945 -0.20796265075934509 -0.6611427228644355 -0.4933957250920276
Ni 3.375782674118579 4.7871501992824115 11.369781350622283 -1.492831860623287 -0.5246449129142965 0.6181574775521612
P 8.107799591471744 5.198091510824294 4.676064236950058 -0.07401717491741445 -1.0833497436267794 -0.6726039294264997
P 2.1886281544333106 2.5195205381438295 5.14721279789396 -0.21267085486829182 -0.016535792871494103 -0.6882388077502792
P -0.17009562934949438 6.431749674665417 8.494295206236226 -0.4231156486195422 -0.20198355035777474 0.4668552555993379
Ni 8.845480679073793 1.7092615087956502 1.861423063855181 0.1316541087045926 1.4213618776077586 1.2123715569148474
Ni 8.95526524383001 6.473479673866065 6.308091878055889 0.7250894009197254 1.1310516776884327 -0.22154938830484427
Ni 2.596899932485681 1.5854618932194922 7.107941580637669 -0.5255334861668368 -0.8472288852656634 -1.2794619228054416
Ni 8.232155359858218 4.585442844194602 7.383407775272177 -1.0964703401691376 -0.4648778201579929 0.21631873603352422
Ni 6.744743207097292 2.312409231582458 4.783713174914663 0.8465552562374066 -0.11845046553012503 0.8352933101703421
Ni 2.2609465582012938 7.872315222370794 4.008025531177025 0.5578285987551167 -0.1432076178701469 -1.047105159472448
Ni 2.080576932602577 5.315671484138427 8.364681013028221 -1.3583317978294671 -0.6647052434047134 0.06225386373389924
Ni 4.387378290014357 5.295177253078313 0.17310905066005208 -0.23990835042800618 -0.39559456038113805 -0.04333851488663504
Ni 4.670172724846118 0.8798522843456184 1.203243093566336 -0.15440862879228892 -0.7939016345974327 -1.395863476226338
Ni 0.15986797916779827 0.3851284057724549 13.70738615835472 3.198731040222336 -0.928961940770097 -1.0094212717684292
Ni 0.7891363456124089 5.954125641166743 4.142523672980946 -1.475876206605555 1.4529499368266847 -0.9426566646483702
Ni 1.695478188313339 4.500305118148853 1.5898499388928786 -0.132540625074604 -0.19374239339490507 0.08276535342368972
Ni 2.8115007635592963 2.4016995652785593 9.1804987897155 -0.34118256128916075 1.4023614252458556 1.0676508448342839
Ni 1.7825717184086955 7.545955484064344 13.205373897202374 -2.390564925286089 0.431838630314837 -1.0202111632950817
Ni 3.5300223868459875 0.8526832926403715 4.304628313367562 -0.9052406858937571 -0.5170146500625482 0.6694666693490987
Ni 0.10687773940096834 8.340317812251016 2.341701800101758 0.4949026486548573 -0.4468808693599401 -1.6661776926397112
Ni 0.7696107473635936 3.95320832942831 10.596739140419045 0.3824369399532575 -0.24495388327171358 -0.4530075510829682
Ni 6.1668262834717815 8.097139995940704 1.1983878795322846 -2.399462999106668 -3.754072353779225 1.937151397013954
Ni 5.871638910183498 0.0456888802887422 5.306102875036955 0.034808623038752956 -0.3257456579088003 0.5133793673028062
Ni 3.736651694305086 7.737327666093796 0.5470597118665225 2.278336786516592 0.36077796692258507 0.48677564867234874
Ni 3.8046599137931265 2.6963122473295185 13.33004945345478 0.3095903883051765 1.2660824161747422 0.08327134652583078
Ni 7.668420332895746 6.943938605325178 10.991183105764279 -0.19540461158867636 -0.8602404670339829 -0.0844802792322674
Ni 3.18963832850609 3.9513915635812804 6.7786981900097345 1.1456185197590143 -0.01923210875673462 0.2363527718662639
Ni 6.781903484039851 6.925743139214365 4.7941595785350835 -1.1001233635406924 -0.4618344053459788 -0.9568219004051586
Ni 4.934873654915627 1.6426436713333974 6.904132894848219 0.11272847544468327 -0.1305565047650397 0.3493216454565274
P 5.386182391272886 3.34100458504687 1.2874149675648368 -0.19727046115282154 0.05049543764639045 0.1871122896728971
Ni 0.3460345708927001 2.0143854789615663 6.641120815479368 -1.332616395341234 -2.0573877507999083 -0.99962536872393
P 3.875523051040785 8.224591681637932 5.60547251745881 -0.3248321449555954 0.4872273914977867 0.21472696606637212
Ni 7.195987058960015 2.130426762833827 7.336427693542153 0.7837221229612695 -0.7618705743038169 -0.5136349349570379
P 1.5638831641792632 2.2375974093815616 1.0767637483658092 -0.3350201412321908 -0.015987890787824078 -1.048857623387181
P 7.542600028775443 9.12408542940118 12.211808755417014 -0.20972359931450976 -0.08013485777937812 -0.2980556481926996
P 5.4778178359858165 6.532181602994831 2.6898571670444604 0.14978475686703233 -0.31824112200163907 0.02536496112734986
Ni 7.1994166679569584 9.4680381349406 3.0952897850001717 -0.12292572769265926 -1.1404092076439327 -0.5220203308072557
