# total energy = -340866.9303355771 ev
CRYSTAL
PRIMVEC
9.38314730460226 0.00000000000000 0.00000000000000

0.00000000000000 9.38314730460226 0.00000000000000

0.00000000000000 0.00000000000000 13.73318454334821

PRIMCOORD
 96 1
Ni 3.8316364208261207 2.7496938349354876 9.471132310477858 -0.33135323390356486 -0.3500634087185584 -0.07743622790129244
Ni 6.511463339663353 5.343449141985276 9.091876749318551 0.648238870318574 0.3353800956747708 -0.4046566705834064
Ni 4.848647626190305 2.1583115821811623 11.512831074155459 0.3598156030093158 1.578106610732392 1.392222279929325
Ni 5.442056638799213 5.717142373321451 3.767561721664132 2.691048980414623 -1.5955669723006844 1.937361456142231
Ni 6.675677803621932 7.119951070264457 7.494335839569533 0.4568786040026003 0.916383589884454 -0.9183157739101604
Ni 7.223268907110804 6.7690682704398135 1.8278183618195203 -0.11597423607549061 0.16267883922088114 -1.6759113749877075
Ni 8.175592693782889 6.266197247816411 10.738677306681405 0.22591794968618512 -0.3952770291407192 0.5486502746899583
Ni 7.978321401270164 5.855224771562377 13.263908426036597 0.49451055542276123 -1.1153828608029244 0.7617075663633914
Ni 0.1527979884258443 8.471096157210553 2.2003856154587047 -1.479437698704568 -1.3542110907928742 -1.5455546449382995
Ni 2.091184545145583 7.560668124013988 6.500685856473658 1.4597980700967697 0.660119938026876 -0.943012505325892
Ni 8.558209298367712 1.5641613009217357 1.796629717927633 0.5154259654191897 -0.5488461927508483 0.27202040047120246
Ni 2.0054507266672363 9.035201600255284 12.029418381757699 0.48575234961415703 1.0352073795935977 -0.6373271085020766
Ni 2.0498986962559336 3.959575636646658 8.925567966843568 0.508078523915183 0.48637815612361396 1.28387316449926
Ni 1.458422612026859 4.617306125196145 13.708107565814071 0.7580224042023204 0.9864813751428044 -2.2735673901524067
Ni 8.78426808733349 2.095998099800217 6.269624911588999 -0.04652462592410052 0.29531305245055595 -0.05239625421352912
Ni 3.3835442131613025 6.7523944173768795 4.377246741883037 -0.0660341567119379 1.0808244061017642 0.8583093114495413
Ni 5.223166574504273 3.8264193908300648 7.722073273618577 -0.4144949968300668 0.9623744547922716 -0.027094542223946888
Ni 1.4087013135572561 6.8349473488612285 12.010219523709267 -0.3338459184184315 -1.1609212115543555 0.3415394304079473
Ni 1.9163389750979183 3.6830824300031826 5.232769287630106 -1.8481436622249783 -1.1739996420048684 -0.39292472685845875
Ni 1.3230613265536588 2.528054508430396 1.0639081764438358 1.2301944440288815 -0.09110961162332695 0.3661060640037179
Ni 4.0900107696955255 7.804798855016464 0.21772186243431266 -0.5334902791200683 0.2000120284537007 -0.2789071002887068
Ni 8.31326223353492 1.6379409895170336 8.941882445358212 0.028030423774654954 -0.616213723562229 -0.6719745233726169
Ni 2.1803244461573255 6.290349469416856 8.344640417005799 1.6147003506960256 0.23772008452743576 1.8783960333516165
Ni 4.710480779622103 0.19479883315308244 12.656845995536932 0.04618035521080434 -0.36048537538283076 -0.3249807547183177
P 6.541620775647745 3.7736579525785876 5.896232879286769 -0.33995537375027907 -1.1192012061077499 0.6105182158393485
P 9.118636547602275 4.500804966147535 11.859044819796582 0.5119431490769119 0.48545410164744784 -0.6866624644020948
P 6.7368746914533615 2.47876483474464 12.806442454044332 -0.8109596185209841 0.36352981863610945 -0.6960657599938657
P 2.7819624791017388 9.044819326417079 8.392870733341637 1.1635180257472542 -1.9703911329036903 -2.6910209553901656
P 0.9400693960698379 2.422925724121389 8.091866868864175 -1.3889004146449435 0.40231311005189424 -1.2427288290504663
P 8.028530623408463 9.040709507823061 7.668912113284668 -0.27527798817655175 0.9649321882171188 0.27245337424356303
P 0.1912116558734204 7.147931616034669 0.3919228102504501 -1.0862388922491164 0.36245921127974995 -0.8864140401055574
P 6.822402080687261 7.979653808211602 10.964519344940513 -0.6961387793236463 -0.8321851035586636 0.10966037804232082
Ni 0.7532068290510431 0.06965110370633322 6.723684801047867 -0.07586065588405644 1.608682683747036 -0.4437492657094938
Ni 3.426697308398461 4.468348659031786 3.486347853526024 -0.7137107267691386 -0.17292031444323125 0.06521114659001027
Ni 4.145727899401602 3.715200943809835 5.528444462656561 2.275181528717062 -0.10289760539719053 0.950764381357169
Ni 1.2375714699096603 8.008722799088906 4.228983628631822 -0.710796381335821 0.8339802477858734 0.37987534987366833
Ni 8.992470746654497 4.388338560513141 9.23453718521249 -0.5606506415849442 1.005383868474262 -0.7296685356499756
Ni 2.0679894045875797 7.002539745910779 1.3042875250858383 -0.328968278611156 -1.0527762417152966 0.20195475400236831
Ni 5.039181818816036 1.026807211328001 5.176050976088455 -0.35420237058759646 1.0448461882349425 -0.39556473558446714
Ni 6.304320976007011 9.099082068264542 9.2478715760891 1.035473745881107 0.743099978564533 -1.823887103670459
Ni 5.9440268792650235 6.976642258879999 12.700861402027035 -0.27202451423626056 0.26671647175978586 -0.5113826485877515
Ni 4.293193445117448 6.466386699193835 2.097730228824087 -0.46490096008644455 -0.17511860764613066 -1.6854252280154134
Ni 7.0488549618469865 0.6455145688518881 0.18417335695248271 -0.6711165462476958 -1.0054383758612815 -0.2844563122417101
Ni 2.7410238066686614 0.2624288068933178 4.9401971194736065 1.6130885261242154 -0.3486642143781867 0.7378698405138453
Ni 4.194904975317659 5.40713256389756 13.046210021470971 -0.6378917227562949 0.49349985477005975 0.37495631530549617
Ni 5.419743514103852 8.07175878382542 3.565423390556167 -0.9546104945761367 0.9979718922809071 -0.3513217066056917
Ni 8.60149375766952 4.534715661121897 5.371131303665786 -0.5025771344809796 -0.03222569280292514 -0.3752301377921731
Ni 8.853403117928705 2.9971368169966106 13.399976262514658 -0.4700051140822293 -0.27886750530002297 -0.80778867699217
Ni 3.5277819561457773 1.6750231883379185 3.034759485112051 -0.5409768173051006 -0.6053173883646995 0.8803246393783677
Ni 0.6258765795016275 2.8645060274386123 10.609585840350947 0.5974102177024808 0.27687721434287155 0.443595770850765
Ni 5.5976386070808655 4.775637355687951 11.171836235139885 -0.3597364130319482 -0.20134103167776937 0.29998114735018655
Ni 3.7968624762840655 4.108110861174646 1.24172445098206 -0.45216217236353745 0.23066446323223502 -1.3325271780615373
Ni 4.154876468189649 0.3004887296810895 9.86153880409636 -0.7297577529296723 1.1062736994128046 1.1974277911208218
Ni 7.55851938324223 3.0767903559112084 10.766130519563525 -1.03252880432017 0.6627995417415682 0.5544648244892064
Ni 5.836045618123641 0.8740336190855915 2.9854848244622545 0.775363209473613 1.5607040989852283 -0.4544589388175141
Ni 7.156976970200493 2.8290752625733133 4.0394374814352005 -0.45812867435961746 0.2955369955359039 -0.49991372871620354
P 2.8365911637007244 5.486495225240435 6.116733091688406 0.0805043253036549 -0.4358670347479397 -0.11539573786420125
P 5.926330263127323 5.271639914359711 0.8054428110439242 -0.6332423969097416 0.2655944423402007 -0.8707490798747907
P 4.187088813471051 4.957501520046854 9.429204654300925 -0.008431675707120962 0.15699387302096188 0.34144661358382483
P 5.764386520857674 1.908138104204838 9.550317630333458 1.869333666039032 -0.09565275090931914 -0.5082338185461247
P 7.3979268142089705 9.124838808083197 2.150121971065052 0.1595559773211833 -1.3687442514120427 0.5243314954389358
P 0.7657323926153142 6.809716065301168 9.857803373086595 -0.45396760100339234 -0.3088134009298359 1.5624784172768316
P 5.3106644247079045 7.264554756000454 5.545528359264149 0.5900481209104547 0.30528713294413234 0.9134090806371624
P 3.1896696200345 8.603041977002881 2.2064283624325536 0.5203336871334523 0.929664109043444 0.64860705229127
Ni 2.7506509159779298 4.860817568465276 11.154394840613504 0.05401450654324246 -0.28377676967618226 -0.16068983381531035
Ni 9.05346120524148 4.520096717355972 1.5477989683549696 -0.49525180446416 -0.599761748653793 -0.6983473569391908
Ni 1.3018366469653893 5.828201306834607 3.7387911148765314 -1.7365804107329896 -0.6611005567725905 1.4235637703550839
Ni 8.764638542815959 8.780092586707152 10.071354426468305 0.5338898285513322 -0.46326291026238925 -0.006260379087415025
Ni 8.819436124069492 6.927296286309394 5.668633377505608 1.7886771314282288 0.2619517033812908 1.7419990106454
Ni 0.20888856740142273 2.8965963918028397 3.3540557955918704 0.5579316999918842 0.6756571144305268 1.2701887250336317
Ni 8.209315725807752 8.164830223629155 12.641561786615034 0.5024712050307347 0.3766930954909448 0.07121312980971607
Ni 7.050206135083374 9.17221431968407 5.752638820219074 -1.3149122931932515 -0.7860906231934461 1.3518688158129428
Ni 1.5180900468198768 0.8503618146358626 9.444970218688285 -0.6546910537018209 0.5758636018799567 1.020291895934346
Ni 0.2253578678494028 7.598163181323769 7.929169659852289 -0.8063871686589531 -0.7708843477666529 0.9206349089616402
Ni 6.024309089060441 1.8259604986194862 7.310655097859485 1.0379579457555415 -1.6673002362799285 -0.3524835881242768
Ni 7.623019138984833 7.331672409888558 3.9793684479302556 -0.6842155455234991 -0.050866190722247885 -0.5876374545864332
Ni 4.590517239155248 7.495793042372389 9.598548884984044 0.19556196310214707 -1.7493042860575616 0.1811928388646686
Ni 8.431105182672443 0.21791140201330605 4.119611785034656 1.2593574387460826 1.3116896724908957 -0.7512951127808157
Ni 2.6452406372446755 0.5716729514832555 0.4050892427872583 0.5223936549862744 0.27336585875550334 0.7032455655717565
Ni 4.684883553310521 1.9074062187017942 0.964889697770497 0.26070343279648645 -0.9235641667932932 -1.6292818480546263
Ni 6.970524446726352 0.7215246316019748 11.450386227709863 0.35202927419567764 0.12104033774448833 -0.2874375063572211
Ni 0.21107953233681662 0.5624624539218737 -0.22165903111478924 0.22770435216264653 0.005226281395945837 0.40800244712718764
Ni 3.397693999553482 1.8348932550156103 7.117415743816734 -0.5125617564975172 -0.30160916987191283 0.1423018182264259
Ni 4.700947501787584 9.015900465899373 7.045192719387525 -0.5223062374787907 -1.0162856029884304 0.42627039219844004
Ni 6.883233025767168 2.99072812727124 1.1390155804068351 -1.2265581328278747 1.6773496500961305 0.886955514431324
Ni 4.476896706381439 6.149320762868804 7.608472445454464 -0.1600948805437888 0.2158680216493508 -1.2219648570302373
Ni 1.3879645576376825 0.813949572544687 2.813092009164534 0.7483545420952531 0.06343322875398107 -0.22673504627084176
Ni 0.9921364814081706 4.75908548354219 7.156362374040886 -1.5743710549493597 -0.3668784233933682 -1.6093028338295379
P 1.7381154719592826 4.807549440250154 2.0707855825351063 1.4362588493242492 -1.3894136068359362 -1.0241642344055588
P 0.9908979059414811 1.3268427349860519 4.8773816387027535 -1.2009419749216672 1.3024910367107632 -0.23404366411711305
P 3.221178229255282 2.72586064034919 13.135997359658482 -0.30878331902284883 0.2504658142288783 0.6324571820042849
P 5.021363221761162 3.112408783726006 2.7896763646408704 1.794350527663923 0.2921554806581807 0.7167770243992881
P 3.6986396885166006 7.638360585106327 11.671517925936563 0.36696095580484545 -0.3677682821974892 0.6039436479456244
P 0.34252241542448986 0.9675151024339796 11.385139573428258 -0.5103516362200758 -1.172409671809929 0.6167665107419055
P 8.420342712518709 5.691122905373497 7.499444963369628 -0.957902535063847 -0.5192995894419831 -0.19117309000583205
P 8.097496757349125 5.256260935648317 3.174974672774027 -0.5340381812037382 0.25457880795598736 2.770330489054771
