# total energy = -340864.539587201 ev
CRYSTAL
PRIMVEC
9.26156426403848 0.00000000000000 0.00000000000000
0.00000000000000 9.26156426403848 0.00000000000000
0.00000000000000 0.00000000000000 13.55523547368141
PRIMCOORD
 96 1
Ni 0.4026455795560761 0.22655360618257586 4.182847495620838 -1.080735960153016 0.2667213568557923 0.05710342988121133
Ni 3.717832690101125 5.199507000173388 7.9717117527274155 0.2565842684217904 0.6888041933354461 -0.35086585001519577
Ni 6.118319004594782 9.007288002257948 6.8358235008191475 -0.020054861768346106 -1.0174089179595962 -0.116604927680954
Ni 8.66346169108898 2.913039803145553 7.518099785110709 -0.6895143320285931 0.42743201660670904 1.887122100370705
Ni 7.758773572146863 5.97458878901911 8.062437109951317 -0.5495506750170406 -1.5322445580929547 -1.280364122904737
Ni 5.440520686617469 2.054076026899299 1.2138632136309755 -0.5410310675818037 0.36546225977213187 -0.9483161769269927
Ni 6.724747708471564 6.197653563949198 1.8228675585253236 0.11681498680923107 0.02736527938683029 -0.6326986085911297
Ni 9.190315034940879 0.5811631566063126 6.533813152233088 0.8604983486810599 0.7097232028763003 -0.7314189426821791
Ni 5.34094034781538 8.518508949032478 1.2622530345176155 1.55762443161864 1.958961293800194 1.1131665698778959
Ni 2.433179636291589 0.5062797050298236 3.1440963818658503 1.2348136879684475 -2.659236206779401 -0.29991352733704474
Ni 0.40618998019405594 4.076579381274759 0.8138006843438635 1.4204067127833409 0.539422328333787 1.9237613488602934
Ni 8.830947818962583 2.4690218899340817 3.093305037369521 0.4353654125211728 -0.26833549542044755 0.11143521055455648
Ni 6.231736120384437 1.9590060698863303 7.211168767439312 0.17567885102497488 1.1754433164299305 2.3845315746078155
Ni 4.899728688571267 1.5093571256116454 5.453501695068455 -1.0315039626000815 -1.493315742238241 0.8423368472806848
Ni 1.8565639077313911 8.395357929217433 7.694371432830634 0.18370840619767068 3.3163692942638114 1.4191108767900529
Ni 1.7221878720469135 2.0030355463246794 7.865561260247294 -1.332312748057886 0.13718558004578307 0.5016631073071425
Ni 3.714063233451902 3.188210138538863 6.69303333401472 0.39032302756955356 1.0017940942404746 -0.7643884556296642
Ni 4.190904130360788 7.736805141748931 7.822685774714335 0.9057006562493112 0.0014848120756426042 -0.10143259081588983
Ni 2.96789604819064 6.588658283401076 5.714480535563472 1.1378519884397178 0.1076736866295952 1.1574116557392002
Ni 8.623405425713326 6.676374558400572 3.535706807619593 -0.07105269297245183 -0.058967736783459734 1.3235715115301463
Ni 3.309462537682924 0.744375998735562 0.7126857043457641 -0.17869038415778904 -0.8289820232403337 0.2520943509712368
Ni 1.4531023843650042 3.655270823601115 12.14965247160929 0.22165608908603762 -0.6613751505902158 -0.34257198543751965
Ni 6.785679539663802 6.4054274963046725 5.902531966851326 -0.7604628953230129 -0.6718583095097268 0.9239408334064217
Ni 7.9153588388997385 8.153288424449 5.308216462855426 0.8508274012501991 2.2124291280801898 0.18753240792945122
P 0.13875860788696565 7.522483283469622 12.17252019989577 -1.118201561198642 -2.4138323804544624 1.314079512879311
P 1.4647534321898763 7.459152707136969 4.406400354986833 -0.30295308549431693 0.8268930019217887 -2.342780458812959
P 6.781511835751885 4.292901737431789 0.26276724855144185 2.4950298751704 -0.4136246784099715 1.885592808210372
P 3.789748736492329 2.6249310624968016 2.4840784149332036 0.013954405297563064 -3.1594019036054104 -3.7459366120459685
P 4.926105623551582 5.25160329907236 5.37061162119896 -1.012823612581759 -0.4912375410984443 1.7085440734210637
P 3.435456857722323 7.801608306797129 1.816049194925426 -0.03151761099230701 0.18205570108559613 0.9487236967780563
P 2.6973009255361915 0.3723871229991282 9.462747651942271 0.6127134237184544 0.4690304088737858 -0.9044433868034424
P 0.6350284142767877 3.6031004321881532 9.302917133076647 -0.195161899450251 1.8243020797206904 -0.6977634594112628
Ni 2.7070440911258307 4.468676965307984 9.988866553749247 -1.1832797817552139 0.12583673069186715 0.27317791111441336
Ni 1.1407839147701344 8.694265653780176 10.802112470394613 1.04566122793707 1.2580052955935626 -0.5302347482972481
Ni 1.2101345078644463 1.983030567547474 10.368372115029931 3.0309567887564186 -1.673621550512266 -1.185210166008707
Ni 8.817851967114912 0.799473044451115 8.805698016351334 -0.3718864181309208 0.2252615470491088 1.499165773261115
Ni 2.7855265865693664 7.325045256815704 9.763280781030662 0.7589839967846412 0.001596397952842412 -0.517608060672173
Ni 5.9571400019745475 8.539801285240255 12.07273981130591 -1.2379769161877776 0.8642418748838921 -0.9515169432524775
Ni 7.533624945260815 7.413020855614164 9.665763918743185 -1.1179269673810166 0.4431684535053593 0.6868002755315398
Ni 7.2159625530944425 0.9582199602996383 2.024081524923439 0.5471487504437673 -1.6644514539772235 0.7909659490078765
Ni 0.36009517492824533 5.949267672363147 9.493476595963052 0.468009166698123 -0.5142116333961144 0.8894212023629973
Ni 9.138515106097865 6.36915921070674 0.8455020926107598 -0.1849780169387137 0.17835125565081542 -0.7225607209606006
Ni 5.347108549605018 0.8815610668566725 9.981139630696552 -1.0088499726459916 -1.5073125707379653 -0.9759514221457579
Ni 7.000696015261765 3.5422797397669 2.3074131507327085 2.3324664784814604 1.4186966720707697 -2.5260993428816945
Ni 4.647573340335992 6.950414982955539 13.511316358303242 -0.6154465063789013 -0.8563868976158477 -0.4827696128367492
Ni 6.942700099936367 3.6653659286322045 5.875679913625053 -0.18783914053659262 0.5564425170408674 0.29662251529059885
Ni 8.109592364323603 8.968593186826853 11.104801691640104 -0.40944175067687555 1.135680691820012 1.238499878570783
Ni 5.8020828933227095 5.342987153514344 9.84991160070021 0.21253664328327268 0.12231560491248611 -0.34306100925879623
Ni 8.440304300516404 4.6595022350883255 12.449155714753225 0.3525368099597154 -0.7711239745812848 0.17932930329336855
Ni 0.320963213664612 0.1178589620033353 13.367550022627002 1.2403042787693734 0.4315804915574438 0.5986939695109108
Ni 1.8432735630344979 5.050979294316887 4.2135903319879935 -0.9238567583330477 0.3799162304139328 -0.7805000164795461
Ni 8.560278603794144 2.237399429638189 0.4325854383028686 -0.9794658630569196 -0.5826669979550352 0.8724241535843684
Ni 3.7031716338954235 2.606083779250685 9.054517349144225 0.9338002426990047 -0.5708342669861652 0.5885357980309864
Ni 1.5379475744474016 4.720415543152066 6.677919387317257 0.6463709638718997 -0.6690100414276543 0.7445799055441693
Ni 0.7010568842750885 7.0768353349503785 6.278351425561025 -3.4014910637348192 -0.8060153871418311 0.13726168469935715
Ni 5.222346017610697 4.838398610116334 12.78852443504929 -1.5872476538017117 -1.6313616134017905 -1.0627454371128664
P 4.247983150825564 3.3338297132212698 11.056029368149991 0.6494292910822492 1.6761941963354487 -0.10988175002450754
P 6.859920238681431 0.9970166529374684 13.174455669605726 0.13193101651506312 0.1280620204779601 0.08121934909280851
P 7.916192379682122 8.023478339939134 2.0605452295270203 0.12570817553380284 0.999139430226447 1.784200069493482
P 2.185330915431963 5.087488380585287 13.56174187101175 -0.12786841640991528 0.5438029738999861 -0.9074230382570566
P 4.49848067906032 8.327961526179598 5.527038515203182 0.7688482911732307 -0.0007821295816631691 -0.6523109835054185
P 1.7999201807863041 6.4105861875912025 8.026367021828305 1.4796248750147099 -1.7758532401906835 0.3350335109686295
P 2.0311258706910054 1.0256719327229653 12.316707010588903 -0.38409607282323527 0.19462171067606482 -0.05086464806035111
P 5.7873847908600125 4.426925833674816 7.846840860431385 0.5310366753732532 -0.451663378350248 -0.38720762186902347
Ni 4.103261947875281 1.6250618477707317 12.215910628400959 1.1899800765935247 0.23650858071783784 0.12639363163660167
Ni 3.622957225937379 8.716326699820595 11.822456225205297 -0.9203477167385247 -1.7546328973593268 -0.7411878491434849
Ni 5.899542333911844 2.6216246840600137 3.8913017884793915 0.7194147191324514 -0.039673407330221996 -0.33109792335964916
Ni 6.522539976229562 5.120033517355241 4.0297547647461505 0.6464164723978545 -0.09104893358872061 -1.6634718636727737
Ni 6.3027445334792676 2.353363475596239 11.42154626278943 1.001118408329689 1.4627939195003001 0.7025850491696223
Ni 2.1766250450381794 7.42214349639914 0.1423974764802823 -0.5233318505298278 -0.5198904289484465 -1.277007290617362
Ni 3.9292742018990876 3.825452066671091 3.9293242143460305 -0.47534272424505875 3.4010262082832585 4.616557908093643
Ni 3.519987154620264 3.241334471069441 0.22307588880718668 -0.7177100777365187 0.9862021533394886 0.9237652270605059
Ni 7.023007123536898 6.4288592538539 12.219543013899301 -0.38659852753011487 -0.43387802934236885 -1.180355151909251
Ni 7.999972489875918 4.276999631616761 10.205926130420476 -0.6314637077427641 -0.8787791492681188 -0.6716294813283723
Ni 4.990964357985271 4.68216528280491 2.0338543275186742 -0.4475920364943517 -0.41246948175960574 -1.4286519835112685
Ni 3.7637330025177134 0.9075869885519616 7.424120840366238 0.7735071301014808 -1.2479021457212898 0.6066489626919294
Ni 8.893037345685908 1.9100772259604155 11.750531843406272 -2.2023051522723107 0.32502780590616925 0.6715688032937659
Ni 7.59100033578155 8.12529071572516 0.07813796525348425 -0.18654870385994324 0.6393829625898408 -0.7185667693098592
Ni 2.532982252635647 9.166846231134658 5.5915073377820015 -0.6304864314311593 0.7089824680555338 -1.0015655231694365
Ni 0.9268139959322756 8.066155627997173 2.158643718049316 0.4922675250248554 0.5101364348854762 0.7010632132084572
Ni 4.334152744595526 6.4704992467160825 3.7030466027780657 -0.1158852759061101 0.5215909565793212 -1.006495613481202
Ni 4.1310466406214 6.058044744464201 11.32541307820071 -0.4919335387242045 0.8284611177398572 -0.6255460567067485
Ni 6.185094882827952 8.03481449457955 3.718756994213146 0.4957508555877655 -0.19196833221361778 -0.2688252905726725
Ni 1.8424400222521142 2.5585719546548216 3.661770589390857 -0.0714077623190254 1.742713005993289 0.0568252365191602
Ni 4.713117430524085 0.5806000534999912 3.381435079616044 0.2186615252340879 -0.2229341844675128 -1.1663778637935527
Ni 0.20151681954904846 3.1681958981974083 5.439092553410318 -0.6112712919552892 -0.18906427119294536 -1.897091552878591
Ni 1.816609519562473 6.039308599989069 11.432336911295597 -1.614295401948123 0.6319661013004793 2.340414272573627
Ni 2.8596746699445084 5.63005859896724 1.9264831608705737 -0.663932884015063 0.2931875214671209 0.1395525376160629
P 8.074917067776449 8.386726151337639 7.6615141813455 -0.384467340119725 -1.4775911324141326 0.1268073221352526
P 7.02134930353638 2.139625095864598 9.305858605882037 0.9664355122355228 -0.05004420904158478 -0.052989664823153905
P 7.320747891004305 1.0853627143058768 4.442050894249379 0.9765965119289245 -0.9061225742780782 -0.18166900717013873
P 5.177325553797736 7.60145664181834 10.106756078914604 0.18049658412859237 0.22370731518811152 -0.27944034708435744
P 1.4790347642613815 1.4787476557696715 1.6137775578901081 -2.8990355424333685 0.9064452477248195 -1.0169690022087003
P 0.02375313382865673 4.789756874682129 2.9283649135078873 0.1634951644745894 -1.978094415085219 -0.7770634799941714
P 2.026596965773388 2.1635755010117523 5.768159635792548 0.9646272553821904 -0.8664802772961078 0.03567071392873212
P 8.651801381699858 5.04057855766559 6.303076097479371 -0.3024974860141371 0.06608994965053779 -0.2540604735586721
