# total energy = -381177.82764473115 ev
CRYSTAL
PRIMVEC
9.15955055465662 0.00000000000000 0.00000000000000

0.00000000000000 9.15955055465662 0.00000000000000

0.00000000000000 0.00000000000000 13.40592809830807

PRIMCOORD
 96 1
Ni 0.04272838724329905 6.37240921473345 10.420722624913251 -0.44052741633808645 -0.9183633393186441 0.030493797713482967
Ni 7.180254092372252 0.4616935558896351 13.110501576755222 -0.43632134867653893 -0.4313871445997151 1.1834299341798329
Ni 5.40072745685694 0.35921833652789514 6.422793154305405 -0.43338849130046003 -0.05728263577155296 -1.1779331727313196
Ni 6.399887866307952 7.439551808179783 6.289095775069663 0.6071793812741028 -1.1037591605210668 0.33054770728313393
Ni 1.0744061170125268 2.107896521830619 3.5778010390448562 -1.4297758127030666 0.03995468601606668 -0.08096429565920894
Ni 3.6034862506265966 5.239894909191376 8.341825240044258 -0.8280433134761481 1.9145164332232576 -0.446550739714031
Ni 8.762749636547856 1.7726020153185382 7.941484185480068 0.2994016206976327 -1.4845871041159915 -1.4075254859452986
Ni 8.344588676437601 0.5954257414173718 2.255707852470078 -1.2428355298316596 0.42743175949639284 -0.17492243247492456
Ni 6.07796630356213 5.77939243510411 8.488540172485894 -0.9279155017834535 0.1967130459874548 -0.6371630721203865
Ni 6.704039901035596 0.11304350875729374 10.778379258076663 -0.7455975481754064 1.005473599974591 0.359070240202859
Ni 3.2540860363062714 6.725638121173156 2.788527150095156 -0.12411691978728301 1.52689666351748 -0.05318583999436001
Ni 1.6815560831016862 9.04376464664977 2.631892424435124 -0.12453832359541778 -0.4756718254497033 0.7401946319922801
Ni 2.5640329784168374 2.8710519524587546 11.241151809018122 -0.31764154074442713 -0.3773386994947437 2.4739884811190684
Ni 7.030980897469028 7.246578397722576 9.863090104916397 0.21766188032498 -0.8929618685264041 1.1371619043512287
Ni 1.8827547699301945 0.7937858835382339 8.271967180101452 0.05364786723244309 0.6970371227681996 1.4080075677880395
Ni 9.225499288613006 8.0061890822976 0.9333985005029142 -0.40226760152593943 0.4776446329053581 -0.2847098230134129
Ni 8.935526238097804 4.107124136234606 1.3485963460183858 -0.5081417730529507 -0.5637688754989517 0.6675177731528439
Ni 4.158930554003067 4.857172250061703 3.6146535746264745 0.4377750504039299 -0.965886324600272 1.8160246702032468
Ni 0.4816851908651383 8.33443073490556 7.254912672745124 0.03391696446241901 0.571313520615429 0.7128905448606884
Ni 6.633685393454345 4.553331640051903 2.609061328796922 0.20492463526396965 -1.098906717524772 -1.5652996887757107
Ni 5.044988833573428 2.3049184536198024 10.922787815696147 -1.04977216478165 0.0815844457417111 -0.016493112559016757
Ni 2.9282899836884435 8.647037034767626 6.682238338876386 1.7467624934723145 -0.7365318384287122 0.5803769163692779
Ni 1.3638570731478121 0.7487199790009971 5.5309643579043986 -0.58899911082065 0.5731325761020387 -0.21018614077322512
Ni 8.922134975230495 8.840184476684804 9.698920732994639 1.0281047071105456 0.01730352427545407 0.8015964321385292
P 8.886788269755161 8.798920701570427 4.019392129397638 0.6644789863265201 0.16540575123374093 1.788486869794294
Ni 2.7966580830960517 4.182928576378133 6.365845480827354 0.4593995706522411 0.5524303105576809 -0.3942691567014952
P 6.814128538793579 4.837900555757452 6.699277850717736 0.19771526199972403 0.5433358044555804 -0.8635885575706095
Ni 1.8063915972046516 7.421553291398484 9.271875008875293 0.39554416675917686 0.23811217775953186 -0.6949617282964096
P 7.664876751090704 2.3879772577789993 0.783027991446816 1.0083056701067472 0.17632471213908987 -0.14560028647203957
P 1.8655622935950804 5.244758630520062 4.601236089296786 -0.23708347938470134 0.8242383379077611 -0.5560311405350618
P 5.452735384736948 6.401380873043501 2.362942374284522 -0.12336358656102624 0.042195659531443455 0.3986713995342489
Ni 8.497782158965453 6.38980320118011 8.00305743197316 -0.5289306847738439 1.3022426681453831 0.4462303802601347
Ni 8.764352557889701 7.132285526273695 5.528591118363415 -0.3752553346031537 0.2518254135805663 -0.9817443746784512
Ni 0.8334778797825504 6.369166733847659 2.493837847014718 0.5505096964962003 -0.3455552364355597 -0.005414486147351965
Ni 8.22061416008397 7.463128491230706 12.245591783391651 -1.288988374238638 0.4378213302608331 -0.18129131211574584
Ni 8.116103688595611 4.067683111674669 8.239444364052924 -0.03798650654610232 -0.34568199182141107 -0.2089368417471563
Ni 5.162038729730284 3.562817846296333 8.210983808662158 -0.41758237750613897 -0.8591297504683075 -0.4252535208981515
Ni 8.696901627824822 4.86453652868367 3.9671762797207157 0.40165259364975986 -0.6042095000125014 0.20170252878224618
Ni 5.232832895736728 3.694651257000271 5.763489623482893 -0.8475664711107403 -0.058474599197125096 -1.5968047013625273
Ni 0.9006155532194801 1.6727629145978455 1.2874426069393303 -0.7413300311483039 0.8408425221233455 -1.8421180248561886
Ni 0.35155637251387134 5.069124249206366 6.362292491178771 -1.4307983404303102 -2.39079401057776 -0.9553674273468192
Ni 6.544086670220417 3.7936293599716295 10.007646131299333 1.1438737691537655 0.9577397842337377 -0.10057358524970421
Ni 0.10751388810545134 0.46773611137086823 12.382412569356363 -0.23474197573571828 1.0601185410129808 0.40203697357237217
Ni 5.919359526674101 3.3757157077255444 13.215831828015554 0.5831166838979441 -0.0050956693553525145 0.04686246887949348
Ni 3.768916892655627 7.236548689897882 12.160530701487726 0.40397995623135585 0.1813563610257264 1.9476294137271426
Ni 4.0218670399494485 8.886916503462508 1.6182159593123528 -0.23644224625627666 -0.8468247078487092 -0.06346022533717459
Ni 2.034858265945591 4.14110606868174 2.6526580414299756 -0.4101475184946485 0.3546168324171957 0.751537310698609
Ni 7.853078035724473 7.097241085965679 3.1341050839814684 0.06595548095520254 -0.4688879697586506 1.0277491235433398
Ni 3.6689037604749624 1.924531479873963 6.815707645304061 -0.7654094406950108 0.3119020671574887 -0.350964323266273
Ni 3.976701296311491 4.531797536768018 12.512033948608552 -1.313567349129583 -1.3949209098074107 -1.7949683637535796
Ni 2.080042328684598 3.7240992119376135 0.3744836434325838 0.560892325282105 -0.9160933123375449 -0.4065286907951386
Ni 4.349238535257547 5.959359283816052 6.10916190073961 0.45581185330098273 1.0506936481546552 0.20164339340953658
Ni 7.7618855506992235 0.5071643125600696 6.016419619765559 1.4163924494176252 -0.8388825701834971 -1.7200497600678182
Ni 4.890229067905829 7.604222207515253 4.317540078756254 0.033792523069412765 -0.643658450036743 -0.10161282514749596
Ni 7.591362198578385 6.113193934880642 0.9519429264954934 1.2856078878021795 0.3750547885565734 0.6483856803090834
Ni 6.760645923279073 2.4023119543503646 6.830601990412493 -0.15516864688676502 -0.1177272142108553 0.6798325859644551
P 3.8906106809285745 4.602261958955567 10.264677774307017 0.38492293959990476 -0.48371192214536046 1.143410713474418
Ni 4.958202092350624 1.126752948261954 8.613858394901518 0.46420624801226507 -0.5405075909781658 1.0964834527952598
P 8.966155775052849 4.143331839459274 10.581875756847184 -1.3231097414023794 2.7580236466629597 1.5199996792873307
Ni 7.244728168516559 8.936689501014458 8.218691570428808 -1.360578941992431 0.2527327558861841 -0.9494420630013198
P 4.878761310648737 2.3612222106959586 3.354605691630959 0.8052309435673228 0.12278174591562725 0.35570749437821314
P 1.4284777021005175 0.5605452570637508 10.764343162852407 1.8608785932931435 0.8004317224064667 -1.3113472015498127
P 7.088759342179683 1.7502801906895173 9.378411572939745 -0.5530368337934283 -0.13131292331508998 -0.3128258645233387
Ni 2.134724845317858 5.7314330285560775 11.236232214431237 0.6762278993323322 -1.5178939457982374 -0.41597312403749004
Ni 3.052356095547323 1.9123767563275083 1.9542890276190443 1.3809289664036926 0.3201259977291777 0.29363257942433946
Ni 2.8426298671801944 3.009599313697397 9.090493009607265 0.6872625598799389 -0.5223360622754617 -2.439648055965985
Ni 2.010209915483262 6.399521484286959 6.696944913199061 0.768139180921348 1.5915025724233234 1.024430343582752
Ni 6.490081960325996 8.246343337508229 1.7549433178617104 -1.2190939632403455 -0.045171454330315754 -1.481444958942584
Ni 1.1365811459751012 4.846052555724554 8.705997061495983 0.62430935608617 -0.0009682774505402679 0.28347363661346664
Ni 0.33041704585760645 2.842098613249754 12.645396088295087 -0.47452022834376345 0.83459345588984 -1.00972671882399
Ni 7.360001111871599 2.304726103058781 3.8037982929643004 -0.3383420065165721 1.3178070982425434 -0.24254090295484684
Ni 7.727436481175322 5.165381965671849 12.292846820504323 0.9994924426904914 -1.7716325172411165 -0.8893229862222362
Ni 3.646270511128097 9.232185760496133 10.591943018829031 -1.1550387846316497 1.1845175108170567 -0.555485809554553
Ni 0.7930732705074017 5.766202682348348 13.386704159011389 -0.31194706146281115 0.700340990330452 -0.5088812223221365
Ni 4.222616908802239 7.107994398281835 10.003785380753115 1.0529909288292638 -0.7898701448405365 -2.4569353822915234
Ni 3.087171547092218 5.785904875527267 0.7817987797663832 -0.9879628447843372 1.30317263615882 -0.8920383282708702
Ni 5.747700390288183 1.4544633469394719 1.4479747213476795 -0.5059277961207674 0.6617163359797185 0.9192701674036298
Ni 0.5342784140236838 2.443218506994274 9.882729097196695 0.9889339504483549 -1.8084681980122275 0.2845738116561809
Ni 5.68960136130916 5.48766075088814 11.277831229094822 -0.3564582565013087 1.234620598121035 -1.0514726924125246
Ni 3.0766838617412824 2.704632078973042 4.534876977654467 0.4137709741798487 0.27253642087567254 -0.17796353329409353
Ni 1.5588547442710075 7.897556813073067 11.915510893038308 -0.8260933888386289 -1.7288501319682679 -0.18591826936479594
Ni 8.839149447475497 2.802181292062526 5.572737404027958 0.7247762405546807 -0.13306358745760952 0.5515468795114631
Ni 5.472291025107468 5.794258385605915 0.18594803520465905 0.3987043096547133 1.752842124007491 0.8871802288476205
Ni 4.355531146468109 4.054685709479929 1.4335630845519052 0.3990287828736676 -1.8576796267398714 0.8914138073129938
Ni 3.7705381330985226 0.4210856045928352 4.2077051605478095 -0.29050946041432546 0.8899896732719577 -0.17481213214930538
Ni 6.385498212433438 9.40365254632103 3.8902525425030534 -0.2963234959929413 -0.38077754997296354 0.33958719177758295
Ni 2.2950352986035067 7.651540445526546 4.663895658482124 -0.8724236393637361 -0.6116636422977014 0.0787145803930838
Ni 6.2867399386746765 5.668534395102041 4.5057990685583285 1.135448778314864 0.13497828798181913 1.9042554176168816
P 3.9209287931657753 2.310230992924206 -0.19513506438106776 -1.0871596042911729 2.0512872943291254 0.7722562884135151
Ni 2.516412475238224 0.6052750060967261 12.84773239129878 -0.3575509753448552 0.9103782642306386 1.0275889438163917
P 2.1772984361572876 7.7654028181007595 0.8479554653421032 0.5273936793040271 -0.01605139703590784 -0.2603607047450871
Ni 7.3431200602543285 2.485196727049589 11.697476952345154 1.2174240317370904 -1.1374856062392347 -0.38343761330363
P 5.848144021343515 7.760493299019449 12.43031152287093 1.3793672783435276 -0.3171846557126667 -0.029325745547310784
P 1.5162536747800035 2.758847458529536 7.096936988888254 -1.3606298498350244 -1.4292217399718097 0.4908220508275805
P 4.780158749248898 7.865324354776176 7.80090981571028 -0.13793814194109147 -0.4115374568636397 0.48150900095677074
Ni 4.825333652437379 0.5944246025450075 12.591719290309452 1.4130477013151084 -1.7118672242570259 0.0454506761336314
