# total energy = -381174.0667943337 ev
CRYSTAL
PRIMVEC
9.18358998177533 0.00000000000000 0.00000000000000
0.00000000000000 9.18358998177533 0.00000000000000
0.00000000000000 0.00000000000000 13.44111222982578
PRIMCOORD
 96 1
Ni 1.6295453908930762 7.720873691867051 1.2557154218030078 0.9805354419720145 -0.5765655130429878 0.452893136992291
Ni 5.142139990681902 9.11046105998836 5.127327778391781 0.7158020620805285 -0.26687150928041137 0.3556974670758842
Ni 8.652319306304134 1.7648288549923876 3.5011546017419515 -2.003280170322227 1.0990396435582104 0.661585466828809
Ni 1.9287743034412983 7.272530828699012 7.9522863841558635 0.22126399585394152 0.5980144269453831 -3.439612553196889
Ni 4.756015949676163 4.489315312862091 12.455085962195948 0.7548946572066161 1.4181091749984156 -0.550371114035807
Ni 3.458989985034385 4.313578134869801 5.244372632776801 0.22524869153330238 0.5474081747527412 0.5736131152828831
Ni 5.982089498077952 7.0751020111572975 1.803071160416483 0.40399872528443326 0.07756941104504705 0.21471513899183023
Ni 6.525363130942182 2.3162299649951605 2.0831302472257263 0.10941612324199866 -0.9143768438670704 0.23416219197284832
Ni 1.4703570420574599 3.0134664839923717 1.5360233839009 1.0143261652692146 -0.5040750591827448 0.8475852401638178
Ni 0.26728287641925175 1.0489588319114413 6.98873310240604 1.5821620117486879 -1.042211835935889 -0.5720907651010857
Ni 9.049720795813977 6.058487783180265 4.201772518572397 1.0583910167989126 0.6561272719277151 0.7264328023214973
Ni 5.592870587246575 2.6748675211696438 6.321140293528044 1.4844906877474433 1.2135534930380907 -0.48359313717930913
Ni 0.37280783552450913 6.644556945384172 12.089770099382878 0.17913184257058185 -0.5984862243754789 -0.06649618395002097
Ni 2.3077902457970567 1.7657012960411578 8.285249377803536 1.5249529095275478 -1.608631004573494 0.6510115479677047
Ni 6.386966429837258 1.8625238852746815 8.415265134686273 0.2417960543690223 -0.18624479946627923 1.0131000061715971
Ni 7.738239860532573 1.280293463685364 12.916385034117724 -0.7201490261953146 -1.2446265602938114 0.46390748582492364
Ni 3.6240099135117814 3.4342310264292837 7.403660555047178 0.39187931631307993 0.9892085442659804 0.4933422461462729
Ni 2.3457552068035437 6.318686438283503 3.938407361641622 1.4449334942801115 -2.1413311836920994 -2.0513124911401057
Ni 3.5967346512502267 4.098167848133432 2.9592089159898505 0.3946345104607139 -0.687052757861978 -0.33426295135119205
Ni 0.27147977704333603 3.2541683775530905 9.37848229704257 -0.38638666862962484 0.33035204633256005 -1.157829460002909
Ni 4.658302552213895 0.9223538603498972 2.984934906620589 2.0378319401551677 0.9969923019764572 1.353908471950791
Ni 1.4653152511545666 1.5780897361956054 4.848087867809383 -1.7156364614914712 0.32201370167019383 0.6189460348917276
Ni 4.2577051733885565 2.9990666148926692 0.7327944610680904 -0.6664811043582134 -1.3214236119492082 2.8285942577926706
Ni 7.576066844951164 9.021958803283109 8.566517943414075 0.3549189370386468 -0.9697972296189041 0.43947660647606895
P 0.6508355122286156 4.7032378580205565 13.320841357455624 -0.9743997613879218 0.6404165460606777 0.569440214852116
Ni 5.792292243815481 4.500308070076596 2.033048457590319 -0.5382180236130407 1.2765696888593112 -0.9997847771199296
P 9.026238356217076 3.5353423521867624 5.271725037194246 0.4790335428330847 0.3024278091184663 -0.1967413281222289
Ni 3.2513306482470905 8.627936874888501 9.180898276830074 0.6341093728957272 1.2431129518627622 -0.01866543761998721
P 6.4122672202515965 3.5637839303766725 0.03480580605093952 0.5178955100056049 -0.8098216482617989 0.9179792165063481
P 6.271501152930013 1.973856546687753 4.422274187597589 0.5462455219032076 -2.4672701885586283 -0.8796823778086785
P 1.432649221570611 7.523371405605441 5.187126724592492 -1.632935899867446 2.0641978317432064 2.6098921091286345
Ni 8.898806861556697 8.918294439509229 4.765143519764297 0.7946963625845861 -1.002230667557261 -0.09237048061362156
Ni 4.221834070899119 7.776838489248166 0.3093363716879753 -1.0929510141619694 -1.4214999458475195 -0.2662305332623028
Ni 8.094250909970759 7.609467561734085 13.400372165102521 -1.7774396108411967 1.2995154990222073 -0.02607201449670348
Ni -0.05387093886406628 8.93217084397967 11.313075323099667 0.719528104781864 1.1092962882892121 0.20791097158580324
Ni 9.12870885329264 7.846523570069942 6.9248208262501265 -0.8987936447168327 0.4411910180640144 -1.4894477746424024
Ni 7.867994803459677 5.073896733488095 6.701590712639781 -2.1132274834773477 -0.113371765455637 -0.3629166105321427
Ni 7.792817935825642 5.5714820061667245 1.3033938659388027 -0.007397578015651776 0.12690399561411694 -1.3935764799643742
Ni 8.501331903326957 3.0178746071861586 0.7267801279855679 -0.19480837276557417 1.0265669303097804 -0.6619065976136537
Ni 5.350414627998329 8.34611086536575 7.268926269629093 -0.25088310427195504 1.529524073837998 0.33569454159139606
Ni 3.5415320918380377 7.048221643265188 5.9766307721896474 -0.42040596299786315 -0.00882762559395899 -0.05307708233063761
Ni 0.7904022026978895 5.57034324100833 1.9997551888102474 1.0251404822758992 0.1726727172087994 -1.5018253223711489
Ni 6.642674309436826 0.5556420918587954 10.9959990217706 0.03993257452887962 -0.8751351247576283 -0.7191257271371229
Ni 0.3642064851426332 2.455508290738841 11.6733099055729 0.5613870055303364 -0.10182751226146333 0.5223136936779585
Ni 5.41147631782226 8.020598518274575 9.779148552792813 0.3428519785717838 1.2952356406999306 -0.10432019677633002
Ni 5.350212589018614 5.623552961393328 6.363009198638028 0.10203808561037266 -0.8284487764446828 -0.8803138407450903
Ni 7.181833693986855 2.7643248712335495 11.132131049584718 0.6171866289984597 1.1855505800672612 -0.2037748379302426
Ni 3.1930056682393024 6.098151708334358 12.03459417238165 -0.29216370818829684 1.0738068371333507 -0.09190716782395784
Ni 7.49106353603098 7.553052768443604 10.848483015808533 -0.9992934393058079 -2.2552505941210903 0.29773785984196466
Ni 6.995480285969529 7.342032237721047 5.577725928998923 0.21820386887137905 -0.265763106707581 -0.38970004927357405
Ni 7.300081598660178 5.077799759232593 12.183696184334485 0.5044771797171699 1.1496260982565103 -0.10276185115027464
Ni 1.3119033804208082 3.0839138027830733 6.905963242570707 -0.3552297834108463 2.5275684712280535 -1.3171540380395768
Ni 2.3600173220534404 3.548732026387889 12.813815354270302 0.8279983191708256 0.31827660322526474 -0.8784937568172161
Ni 1.9027112750580357 6.805728949656993 10.005658126387535 0.4715796576582008 1.1166252178504577 3.0894175039964726
Ni 2.9743811250074645 8.818477999939924 4.053758762033029 -0.4036817082646468 -0.9328918719521224 -0.1815034281265519
Ni 2.076685203772811 0.7301927500247577 10.835337625101062 0.6930017763565612 0.6965753526404327 -0.01907681412579295
P 5.513542736938392 6.958387766011812 12.195443832645926 0.581768911620798 -0.014520047993045961 -0.979012834679901
Ni 4.202925059115772 6.621570419646574 8.266216387555366 -0.3664811879549495 -1.9040715837408497 0.7017178160733206
P 4.493604049386046 1.3545152379607448 7.509911936120412 -1.7797865138068185 -1.5929097371834953 0.8211111051326891
Ni 4.70222766312198 1.3895690009413346 9.958735491707674 -1.3274191674110107 -0.4643484300170842 -0.8811268235646891
P 2.7466280933284937 1.9282600224020232 3.206524831059247 -0.12980034332530546 0.9215988155368063 -1.1449330636562152
P 3.5360678557957397 7.106289482753338 2.2989143060745683 0.4572251887087416 0.20714658261595292 -0.6650412865878933
P 7.898502689396675 4.60021634554577 10.062983931804732 -0.5212582558302506 1.3150223364085547 -0.38397265987149354
Ni 2.5356351133758985 -0.031045125951240378 6.591064370427573 0.10655191432032617 0.21936317928680288 0.25396174319727877
Ni 5.904359592427516 4.023238937429048 4.267015496917433 -0.7824129172315428 1.1873686071126068 0.8661216084051082
Ni 8.226237465264717 3.978432201882206 2.918737753275897 -0.11531783343841431 0.37675531618744795 1.5529671353522867
Ni 6.710173695841683 6.67300770716407 8.00017696922036 0.9324876945351683 0.08593655206281975 0.29548737324489116
Ni 3.3320819550032676 0.581525121878312 1.335555716432469 -2.49251482205803 0.08701667250087594 -1.9503388422385057
Ni 2.0815065885160147 8.144678002589679 12.474118034085121 -0.03732521881301959 0.5781747665116366 -0.5626797561998309
Ni 5.7122388898983205 0.20058062562527182 0.8489861599433126 1.2477270535960059 0.81213538399664 0.08984205776481302
Ni 5.1633265327820395 3.5916561259873854 10.394550101415374 -0.5039763288213515 -0.5417404349440026 -1.1385449007416844
Ni 1.375821166730713 4.130934897207246 3.6424340317438113 -0.3466253295712869 -1.4868044234822846 1.8758365001545567
Ni 1.2722027209067681 4.842929445313654 11.09337997327534 -0.6418939019371526 -1.1915247953728254 -0.4827097061330913
Ni 5.076256916114769 2.156591620250179 12.326656211303975 0.6612589367273257 -2.0211331393432483 -1.2596582578159532
Ni 3.6843277325467603 1.7187731512073052 5.2838896204911 0.4434638732585911 1.2081104676456484 0.06874512788519772
Ni 5.826363362667457 4.1815915795758425 8.199441586400486 1.0053435021546298 0.7152145650081747 -0.138564976891813
Ni 0.9712013754910442 0.36694778675376916 2.7136663521469546 1.2996803067348457 -0.2228238841418937 -0.9529145949309525
Ni 9.018175164208442 6.691916718947417 8.839412911674415 -0.9699764355092457 -1.344823221820071 1.3339847364436703
Ni 4.9903719825558275 6.901642363481798 3.997803148241901 0.1523129226055248 -0.5803388640424908 0.10718569124958315
Ni 8.139048461927615 2.801711266070851 7.260915424083385 -0.7297420692003883 1.2407544789329148 -0.24328060933434872
Ni 4.232064590144698 8.996547809788927 11.633766285447638 0.2017907176206783 -0.25238668540067505 0.6707697044312384
Ni 0.7227641440842286 5.55097504972563 6.471291071457399 2.5804002703171043 0.1873776275191418 -0.7501674269342758
Ni 5.811697169458129 5.821927688703709 9.942121459062093 0.24450651132164988 -0.6958341035990339 1.6661522387184142
Ni 3.4379044624241057 5.158358210599042 0.8148241235504656 -0.6869319160133976 1.941075671769025 1.3723669357662946
Ni 2.484712106897677 3.0493284028918226 10.102205207921449 1.3095867672152801 0.4342963478267101 0.8750597914350027
Ni 1.998661423242789 5.127758488762174 8.410869868518468 0.470688513302499 -2.6002029068653285 0.8684631120540914
Ni 6.839322521829641 8.951640054752227 3.4376179344165094 0.040727302516033084 0.5317478425076649 -0.4977799702026524
Ni 0.8051290076011313 0.674320706902512 0.19495751347619786 0.17332603452208215 0.40550590595757907 0.03643458867795016
P 2.8260569631265344 1.5003414633651952 12.696730092089338 0.5123020750782273 -1.2539470663637888 0.644749883328709
Ni 7.415785648907088 0.7234924027702022 6.298021524094631 -2.5660378309478453 -0.4777572472238223 -1.1029037544993068
P 8.480356583796524 1.3928108082067652 9.859485679640573 -0.0012210168912946714 -0.9824501424962242 0.22237882618467505
Ni 8.65569886741937 7.7371378297341264 2.198414607410227 -0.6055912108513763 -0.13564240392837928 1.0328075119028535
P 7.956368489905111 0.5975596699957105 1.5696527720744977 0.321332359332453 -0.4439392702331128 -0.04079415119822652
P 3.535654594246322 4.987929147619271 10.226911931432667 -0.5587385121638958 0.5190792459010609 -1.002914580998163
P 7.114628182461584 5.826308261127535 3.6428638237552056 -2.735857909199198 0.8416547336119956 -1.0838734773407332
Ni 0.9700901611026106 9.24144660397373 8.89047550872044 -1.6157236497542173 -1.308151063210018 0.9117077816753394
