# total energy = -340870.61664623895 ev
CRYSTAL
PRIMVEC
9.19780659551090 0.00000000000000 0.00000000000000
0.00000000000000 9.19780659551090 0.00000000000000
0.00000000000000 0.00000000000000 13.46191968106876
PRIMCOORD
 96 1
Ni 7.88469070946788 0.19283108998563192 12.56484361786778 -0.42728340684398675 0.03962969857648013 -0.4887091182496357
Ni 8.306134195634838 2.1297336607373802 7.714703291290284 1.3795269438498434 -0.43357643894155007 0.9340383268517398
Ni 0.4657713940070503 7.847016494728905 0.022411374910397415 -0.6510236321525626 0.6660296186430916 2.014086774019428
Ni 7.788030962716929 7.745573888684921 10.06837134390815 0.38295167480614695 -0.050486953005958214 -0.46738078908550473
Ni 8.551697229106802 2.052251340190229 5.373500105814574 0.09471609802766269 0.33954862523016366 -0.3015760026411322
Ni 1.9032560754058871 3.4480828358305398 13.006556309850234 0.4122185420910642 -2.074052098829467 1.1190433403736468
Ni 0.26168586819265605 4.447617647817651 5.386503964407826 0.40494823368189614 -0.38763108255968726 1.5582358399503937
Ni 1.8756442607949484 3.481480070624783 8.521744572784177 -0.10249805596592672 -0.14191101054591043 -0.8727576256643873
Ni 7.98781651407076 4.57061991190562 1.5107911978709156 0.9653433076126083 1.2100621920553805 1.0278751075982426
Ni 0.8098125805419523 1.3693694068209665 9.657499816340064 0.05850313844221537 1.3670195554114524 0.287959183188646
Ni 0.8927611573926609 0.02258153432755343 6.712987679421676 -1.2483562025395727 1.2818191101837086 0.04750730155234399
Ni 3.4656598437324395 1.1825251689773266 12.913615236199616 -1.2267213978786164 1.207529655441514 -0.1263928603056533
Ni 5.36832725953303 8.095467639389357 6.20652335063724 -0.7176589127836093 0.7203351740641917 0.5230842532953959
Ni 6.360540617679267 4.927927094514259 13.310970587361718 1.5134364242475162 0.9895916386370117 -0.28765476457434974
Ni 6.090952914066139 9.098488419976583 8.884678053526564 -0.6703156476129553 -1.8809663651819541 -2.2774199311292773
Ni 4.12785591065933 4.322030800150178 9.423033936208572 -0.22518132863047668 0.46727048875988564 0.20318862640946941
Ni 0.41532234605250756 8.846689273811007 11.195833845274423 0.5711173454442228 -1.8210270085138445 -2.5134384595845747
Ni 6.031047601420887 5.867593385081451 9.839505088272041 -0.3392102680541384 -0.7990731514960432 -0.412069932328342
Ni 4.077295569248161 6.220338455749042 12.235188720217945 0.2024193523436127 0.0699121516101054 0.2849473929455157
Ni 3.029812592848383 2.5635206030028987 10.74278669654811 -1.582993506511048 0.34391101596391743 0.8846991142969796
Ni 7.069746672772883 2.6005325756859157 0.36626676575737765 0.6621886476304466 -1.5151865741694033 -0.33508596147311975
Ni 6.321063632899071 6.884383281748816 11.884289649281337 0.8992811258762126 0.1970855988355251 -0.28444859893222624
Ni 8.01777376929655 4.835857053123354 11.042381323541226 -0.8947387579211687 1.6041773396775147 1.0141215054575758
Ni 3.1266287023069905 7.764521369730401 7.417679451167174 0.7137120123207192 -0.27758940991854775 0.6203637411748607
P 5.105003262032509 6.469442644659118 0.6994435034520262 -0.3866702613083147 0.787757726483224 1.1946823671652005
P 0.09475120193690345 0.8978098332887117 3.6965349002716237 1.693354510164819 -0.758859555391635 0.6702505987029748
P 8.070973881125221 4.7472269913009 7.224015959708427 -0.1066125923549325 -0.28723644609000853 -0.8236151025014654
P 6.1331156582955 7.112838395441852 4.547113078260992 -1.418603083915699 1.572746374861743 -1.6326129693103884
P 3.776076609656679 9.399330269508422 4.0071825311348155 2.0510494672867066 -0.3036938203150834 -4.344142843287183
P 0.1861249693884183 3.2647613578123456 0.8525639843766101 0.9802207389450732 -2.388032902892855 -0.9311244956390545
P 8.31117459350519 3.5612618427551226 9.323267170478415 0.4308217590145483 -0.9757200228612422 0.5014545908407622
P 4.809965228296641 1.5374501197457806 7.082652114838375 -0.2526137138098165 -0.15476729768328829 1.1594304859414422
Ni 7.5139639274197485 5.88870235061513 5.323515547079834 0.29657777809559244 -1.785939420782092 0.9078225876883205
Ni 4.280456715526113 6.869510428908747 3.279902786597331 -0.43791414708495546 0.9481634533992123 -0.7780016755377247
Ni 8.293211277737313 2.5864967232221274 11.965384868155995 1.1442427224574099 0.5039480466865772 -0.9387578438145961
Ni 0.925363701719754 3.9958581919779244 10.535944588175788 0.6730644140026859 -1.1775948155552944 1.5345750059983443
Ni 1.3759734317678864 2.691655243024546 4.241029398900114 1.0648786814057853 -0.1611588030319289 -0.08549817897382049
Ni 3.606882962165601 3.4790518497529344 6.898466043024901 0.853398504411485 -1.3356911776118159 -0.5233706741875631
Ni 5.214917047708965 4.449963088432504 4.665888030558425 1.3991202926007387 -0.9308722704189323 -0.7139585811138864
Ni 4.679181620051159 1.3261581126696709 9.971338166220091 -0.8408348088138615 -0.6956191593747505 -0.9582023256924529
Ni 6.172813390427683 8.055687127000178 2.40563105949478 -0.9767291808520469 0.7486985556982332 1.5632978278543335
Ni 1.26625280002442 6.430600308515882 11.050566451396747 -0.028855490779111592 -0.6378788672404886 -0.2222405008345979
Ni 8.545819830860172 8.888235765016073 2.085655013448905 0.343302435845641 1.0296414554700462 0.3497759593851267
Ni 1.2883827220610349 8.353907601727181 8.894195943519701 -0.45296872742523275 -1.022229479276691 0.9284101820316849
Ni 7.29417314729217 7.346094764040588 0.6890472229541103 0.8075811889670543 -1.5090100130450461 -2.0975026165429234
Ni 6.792028108361596 5.844516088992562 2.8767721328388944 -0.7869378016850899 0.1361532821265268 0.3966782803636201
Ni 7.344319587418365 0.18035610525651266 4.233356588857327 -0.7209990329004357 -0.8330752194731008 0.26987378644184484
Ni 6.06184185702296 2.857923988101807 8.633559545029613 -0.4065412892006289 0.374442094673239 0.4876709067931085
Ni -0.019437724123016847 6.947305474871213 6.874503917966801 1.151076971770424 -0.06572176767784166 -0.17796379040440963
Ni 2.8822981748836147 1.0243504934728922 8.263949376670277 0.39236782591372427 0.41682955850051434 -0.21467502978251415
Ni 5.727657959534875 1.155290464426031 2.6572214154566014 -0.6505230383670603 0.8803259249299485 -0.9278476246599956
Ni 4.564990854429973 3.7774930718319237 12.900503763272273 -2.0143343712538595 0.44056341178234454 -1.3899982756948124
Ni 7.4206981712055855 1.3454827037747947 10.039078170299584 2.9523671639769735 2.5422314725568667 -0.9576397683207637
Ni 5.320434281958361 1.323913847924478 4.987586825730425 -0.7497131130056766 1.090912643575702 -0.357340659106262
Ni 5.994403540991181 3.6186101652398674 1.9710669025941434 -1.8619880243072384 -0.14288185909961199 2.140598933511765
Ni 0.3233902717565944 5.208579759145695 13.32248072220653 0.25817552416831024 1.588348343065058 -1.367354827263684
P 8.885034928412276 5.298304359921746 3.552062196861099 -0.232643955556109 0.8116643578974925 -0.771154056488272
P 8.466332388532479 7.067189682612376 12.107071556028327 -1.1819024417917128 -2.0360738198134807 -1.9409735989735217
P 6.317172960820314 9.308271986814121 11.062399429243841 -2.216373200329602 -3.421079527389708 0.5439970921886631
P 3.0814950666321486 4.536229314027439 4.355940352757156 -0.15233914785776992 -1.296202118378258 -0.1313167799698319
P 2.7452416627191925 4.724296860113336 11.69712900689985 -0.10490486563520643 0.22409040955914308 -1.8117633238237312
P 2.2367961264506797 6.061096834710008 8.932158049596893 0.4009391125225031 -0.2808475118445293 -0.5216074116395533
P 6.031056799227221 3.9716679613227717 11.214344430519096 -0.383861588214926 0.255571767996876 -0.7148204148935495
P 3.988775881101701 2.8348926810445816 1.1050419286495423 -1.1466369337211992 -2.1198691571635813 2.258070065847756
Ni 6.553712946279845 3.177529362552472 6.346810132385726 0.4515967867783707 -0.22172653731265685 -1.0110973739192717
Ni 2.9472254897865517 0.4835213206680061 5.733041435581438 -0.24427254093397285 1.2044677286867387 2.94006314979864
Ni 4.001901150738546 6.1980889622301 5.505386531039353 -0.15550211896678381 1.117336127874553 0.6216984008258841
Ni 4.950047818744541 8.601126240339042 12.547640040902989 -0.11574695055603292 -0.07241074966224305 0.05113332834070548
Ni 1.7289576454001288 8.626889295877097 3.720026097645487 0.6584055264389306 0.7185485144774141 -0.8259828314026936
Ni 2.253986826486604 5.3619807731634275 6.722949823460686 -1.3200010205700685 0.19029300139372388 1.0027849973988343
Ni 5.575149132731419 1.8956402917623638 11.956270761860866 1.3657381175958674 0.6703863529498907 0.5896930515638812
Ni 3.6995692565808005 2.638556307065536 3.3749299227242178 0.9496899173460677 -0.46751705755305295 0.12562949977706753
Ni 1.6210489815042155 4.589861722753749 2.066229246474121 -1.293893010629107 -0.1993211730342632 0.08906121373473048
Ni 8.950762452466162 7.5733725585230305 4.447925774329799 -0.22029571840340123 -0.017600743800898717 -0.2120635603015961
Ni 9.301649566254534 5.68938588738427 9.041778425251332 -0.6495624742260039 0.09630015468533092 -1.0238153357065722
Ni 7.2979626435012666 6.624536055042079 7.897179490906498 -1.5485967741987328 0.6310443608171583 0.7654423508154753
Ni 6.813026700219282 0.6705899849861654 6.5378614468459695 1.3484865296042712 -0.0880289158154742 1.2607720597054222
Ni 0.22716558124518313 6.806054763019052 2.0478271953441727 0.6325880511551945 -1.7553839165927383 0.6652793707406284
Ni 3.8925944202800538 4.812071525946842 2.20211395811175 0.9383783489879903 0.12842737423717882 -0.4552140718159838
Ni 1.827806470058276 6.176023424837815 3.984230325212052 -0.42050880712431443 -0.024263500533054986 -0.2698915270536578
Ni 4.091257839261287 9.013932986359542 1.234253631792756 1.2233625087087125 -0.4346858699556449 1.8205438982298388
Ni 8.167679616907837 2.3873642161179234 2.6588236733197674 1.2020424070746976 -0.43951105925843015 -1.5427847955026461
Ni 2.799922621367437 6.638406346991877 1.0066134437408023 -0.011549395400496239 0.2173366357750773 0.2375581050282747
Ni 3.800873895529794 7.200971775722336 10.06838514061765 -0.062358764742879706 0.4715853140851556 -0.863271540550823
Ni 1.9256067447944885 2.045454161310321 1.870075908841097 -0.7312870450900051 -0.7324113885024354 -1.1704929144031906
Ni 2.319659163702494 7.985471073455906 12.405751001291335 3.32193007618104 1.1220978109292545 -0.7790655980258647
Ni 5.421536569168033 5.0095116366858194 7.118622895844523 0.19069229371467158 1.076500839025746 1.017092672270758
Ni 0.9239748329635076 1.1245697912746202 12.593679660501607 1.1992818136104249 1.933246148422277 2.339259333033578
P 2.0844344645485484 8.763798643140197 1.036303042802311 -0.960555656415978 1.1277796918053802 0.4616875953554694
P 1.4087360179251693 2.459990094921378 6.543381050426257 0.011868726413127946 -0.345367803015102 0.13372770340416967
P 1.72899443662546 7.374350425094819 5.820018651605896 0.7359584824237454 0.7407906137050663 -1.207103880758005
P 8.159953459588321 8.85506847538015 7.9779233535792455 1.019521850537541 -0.224128204775614 0.262457953593748
P 6.920631836506215 0.4053399668395657 0.8639361521264316 -1.9676403096314303 0.8835094648642525 2.0866625885046255
P 5.243126719731532 6.9975346952544015 8.074338438681744 -1.9626677961175036 0.0486360158401485 0.8888465608064499
P 2.716139803482347 -0.033981295496373326 10.632237342454061 -0.2480806018261534 1.3789589871615155 -0.8728445289512387
P 6.839755525422276 2.881810691147979 4.117960910606549 -2.8924411770453027 0.1106566805173191 1.1489121029086213
