# total energy = -381169.59026753355 ev
CRYSTAL
PRIMVEC
9.23817835486723 0.00000000000000 0.00000000000000
0.00000000000000 9.23817835486723 0.00000000000000
0.00000000000000 0.00000000000000 13.52100783172782
PRIMCOORD
 96 1
Ni 2.421945495707897 2.8782006465927212 9.509906402180485 0.6336476027679603 0.3458527130713205 1.466746476390145
Ni 6.945493415687671 2.367153860089976 4.939832244725994 -0.042006169228456694 1.1232424660566591 -0.1588134427282039
Ni 1.6723874213306809 3.4579517652638154 7.486149487524931 -0.37168998584939855 1.0487712343209616 -0.6485525449042507
Ni 7.577061476557538 1.167391641627757 2.6862322249139416 1.6642653061083468 2.211092154436321 0.3098361857673954
Ni 8.8267190961279 2.609794613673638 6.488339390052279 -0.013193615872138567 -0.5635320768977972 -0.2420138268067832
Ni 0.39937938223783465 8.227632470232338 0.22369786893781016 1.7357825974220427 -3.1183624691655973 -1.7152734217250976
Ni 1.198006964581355 1.439770091224585 2.658554642666211 0.05777448780630695 -0.6156041150026882 0.596029021084238
Ni 4.627846953216383 6.1341873574173205 12.1710163249701 1.2633081958637147 -0.17475222544564742 -0.15471921805417224
Ni 8.18655952942012 2.8958732817195267 8.936061250909582 1.8070908580487266 0.5244744487747032 0.4504876128745919
Ni 2.094895506811312 1.3582985966175294 0.461570798690346 0.634924669708171 -0.6856484213152837 0.026531213521309147
Ni 3.4028645079396433 4.9134082832763335 5.2293715343706815 -0.3658255566488216 0.42055457276058533 1.2297254748122628
Ni 5.792892097550775 4.604224931251281 4.984897926208264 -1.311772204902373 0.2467497988298718 0.9534583832495643
Ni 6.009998526257024 7.293883596504236 10.343827520979021 -0.680704189936131 0.32081736736924754 1.2221047250422115
Ni 3.4538130613763043 0.339318289705993 9.591370506244882 2.1191155668270083 -1.269654964017349 0.5370797962435396
Ni 2.2874838102553863 1.1360557407651724 7.906084740343348 -0.5486379333947841 2.109912560171502 -1.33577988067088
Ni 8.01465550723528 4.61023898533782 5.112495645168765 1.2015569827978467 0.4612926739098959 1.2390524086401435
Ni 2.987248103485984 6.850257035383313 3.8535822947392573 1.50732619758472 -2.0395149842845455 1.0317083653014039
Ni 0.3708518875846327 5.637930894405435 3.6289301219809564 -0.40601447016288134 0.38790670481857714 0.13374801511914386
Ni 6.354832008420259 3.468640337580446 10.199491146719902 0.3471737458755892 0.30086252151387544 -0.9357884767736271
Ni 4.229044033305738 6.009823000868938 7.189282474836552 0.4074321764460144 0.6608863838792554 -0.434340056580452
Ni 4.723924007747893 2.324704430708026 9.321030922603352 -0.6853486306866777 -1.2638761525520428 -0.3655190811519963
Ni 7.866262648875701 2.2065850827041915 11.417396223585431 -0.48862504317626165 -1.432049953449224 -0.36225095192368584
Ni 9.012415718545002 2.9722914927853576 13.222139025711586 -1.1342424167115885 -0.08971504526864549 2.1942354878902983
Ni 0.6606313698656484 0.1397006563779743 6.600806820559731 0.3958395865124086 -0.7317138482147786 0.6841651519015379
P 0.7209197215841703 4.220748149174075 9.455863059006509 0.192440643864346 0.6838602190666093 0.07736732233656998
Ni 8.66516183366184 7.351289636586812 5.576347350086403 1.8156125223664927 -0.5026982334398762 -0.7076128414015168
P 1.914039689834067 8.38100470670658 3.3175554740583193 -2.7088548982477927 2.6898655016294835 -0.10716049443860254
Ni 0.47778380164253814 0.9149565713888731 12.337067961189005 -0.30054679004566953 -0.4965733514890609 -1.2687532781386859
P 1.1818401525207645 8.208657251962366 11.484784115343134 0.2554923209091922 -0.6325430568498719 0.3045829077882561
P 8.419518672124068 0.9426821921638697 7.898175012065474 -0.15090010141839819 -0.3305559348132501 0.6354933977274475
P 5.73663159157992 3.0567469189898824 2.8127213624760015 0.6905864820468494 -0.3663932562268335 -0.7679100956296775
Ni 1.5828787115849317 6.7296526174113085 6.512731876089298 0.06396827532184467 -0.580175341881433 0.04513108801068357
Ni 8.206717234515096 8.209479449832877 1.954569425761051 0.7662833586595319 1.3335828730195614 1.9628757983632519
Ni 5.9441026002980575 8.998309020249847 2.3393238478999594 -1.420773094983824 -1.3944293148829727 -1.600088771430438
Ni 5.504023499652144 8.295126601040725 13.459432721683436 -1.5722172418311504 -2.276120495591564 -0.6798230728827583
Ni 3.42110991012231 2.613831697599626 2.1647536874518716 2.419664413755207 -1.9343247261984364 0.4006843161992196
Ni 4.826828076058131 4.644318625161546 8.910262714132207 -0.9028333620038451 0.6149618534329989 0.8568101011961953
Ni 5.659890044272877 0.5522823192534031 4.414689845742078 0.1890964099824614 -0.21669951641171067 -0.5534746926617952
Ni 4.664199184906911 7.732438397727293 5.376561581912953 -0.7904237033511613 -0.22084799136244546 -0.6061031174907885
Ni 4.587097348645376 0.7719357137225695 6.445572167336109 0.3772551386420019 1.663539997906548 0.7625254342789964
Ni 5.430182740337688 4.772175013115015 1.0535883705351845 -0.5195847247825697 -0.09037324767793468 -0.6373391926869346
Ni 6.1097061848684255 -0.062337379669972756 9.095703439009837 -0.18367163942246434 1.03341609202113 -0.6704215770632003
Ni 2.1001520302755843 2.217938803859886 5.5953040919997346 0.06435934011267626 -0.10183933933600525 -0.6094532649099439
Ni 8.583403955526853 7.208208730761427 8.054518246687536 0.19551979701030198 0.6560712218787992 -0.396594205290246
Ni 4.6876179669489675 1.0520714616549849 0.32022759420701574 -1.6925176160858206 1.7532139055246128 1.9793645400468942
Ni 3.604506226137648 4.139747801661357 11.264283579921992 0.6152091935571147 -0.38119458290572417 -0.1574723553192772
Ni 7.252219412279515 0.24535954946333732 6.11630871091397 0.7254791801589764 -0.20766465990295202 0.29024977899503557
Ni 8.53292654918453 9.041146453121252 9.803676777495886 -0.2051588627619628 0.15259677239453073 -0.737914834819168
Ni 6.531355119765266 4.202114743501954 7.346490402949397 -0.012815663707429542 0.6176106039097558 -1.3939132944785027
Ni 1.855829928237621 6.314969268968003 1.8467940660224988 -0.9022291527609428 0.1763943890347607 -0.4905937368668583
Ni 2.360169797279801 5.697147617438798 8.764520289132733 -0.09814029321786323 -1.0949047954542306 -1.3727448879310036
Ni 7.0486653911692 0.5514767501038698 13.401224807722654 2.6770446957157317 0.763122444433047 0.3643839391062886
Ni 8.633049925820346 3.746691028665961 1.9608975779104822 0.8384488250801884 0.14074732925511244 -0.4873957987548509
Ni 4.008260809627994 8.336846214335369 11.670603605531896 -0.27071813672001116 0.8041078857064733 -1.744568571144789
Ni 6.5140889644845545 2.0230686703706886 7.682163307490185 -1.3861768450661935 -1.1981813814573945 -0.7023518501128936
Ni 5.302963786688321 1.5458059019854178 11.846079107455378 1.6481974540122066 -1.5744083359451984 -3.182333058480287
P 8.734910079980386 6.137263670797992 1.5954657295463917 1.1341007489274018 -1.2615084236508143 -0.9853740010112386
Ni 3.1078987123495905 5.257040802257924 0.09611308342695836 0.7173403531019259 -0.5683348976030792 0.18143992187846814
P 5.703762153116159 8.222126515953418 7.100259693270452 0.03873778288983006 -0.13575476113652749 1.5633772749420172
Ni 1.406207789386799 7.904268514485569 9.217568868322566 0.8305313700053246 -0.16061578604426532 -0.5008760926294729
P 9.186536903526722 0.8067137598273117 0.9222870658860609 -1.3411629993596643 2.5498164839929762 1.6076956372434181
P 7.13220623772001 8.231087548924146 4.060737357758839 0.684151525054783 -0.5968438036760495 0.11097446886805404
P 3.183217580195301 3.1107902621638557 13.35428008077003 1.4946342039393485 -0.13402440870898208 -0.28214591894097857
Ni 2.771444257922902 7.605358016752732 13.463083649755633 0.09642305341644039 0.3525123844796832 0.18085062503390142
Ni 2.1193489648252455 6.033574357330526 10.975786356791838 0.055612190047665516 0.9250785465552905 1.5816624464044504
Ni 3.189157728855278 8.480472172681655 7.3669612822894335 0.03302633432734957 -2.7453702195650074 0.2461458466972858
Ni 6.789580680175337 2.660807834358541 0.8203373013963133 -0.790684927432348 0.20636445303428974 0.8410597803404741
Ni 3.3522485289225146 0.5152196716500415 4.4267234968221505 -1.4421641590650902 -0.811661529684015 -0.5488544202809644
Ni 6.832011633200647 6.578857832688441 6.190187346759542 -2.4391785725287343 -1.3402260893676918 1.2551763107851996
Ni 6.986021303978991 4.867125009891443 3.0039488822534897 0.44216366638992877 -0.1424069763457225 -0.5282783959018257
Ni 8.512778082267873 4.540620073515758 11.168839340605425 1.3412784418916062 -0.8062987227102049 -0.1837657417981674
Ni 0.8672238278255218 5.502212816701358 12.98979422186594 -1.5281991843789875 0.35022307422487425 0.8448403304288289
Ni 7.660750133961475 7.234168011841575 12.65197159323001 -0.4464116430330054 0.289874655043804 -0.4144268625962927
Ni 3.0579571203498466 1.5586192553157259 11.654919026379627 0.2827267311451131 -0.7837097816660954 0.12838983613102406
Ni 5.518102483412339 6.547715933570584 3.436174607509284 0.09523751774877146 1.958693384850788 1.559007942229728
Ni 7.074495337752864 5.674246173382682 9.030816322123451 0.6507261555168019 -0.3740397170284977 0.09930860249435154
Ni 9.150674295287171 2.8467908403035738 4.04394419720813 0.3143096481577167 -0.5455173854879314 0.5703994934415919
Ni 4.175712029862431 4.721475890493003 2.9960252967081367 -0.4883283378714493 0.06639616803704693 -0.06417036403032175
Ni 8.939618873380743 4.861231052123068 7.420396753329929 0.007049964868245923 0.9971673941017407 0.38579197246841945
Ni 4.51739529321843 2.6539161533315694 4.4932744096240285 -1.377530739355421 -0.004511257606792231 0.8781723689220553
Ni 1.5028945636874504 3.1715682373333554 11.989605293475803 -0.083393731036308 1.1288299874467655 -1.8146355031652037
Ni 1.7414058515619217 3.748002849987449 1.419840569134121 -2.0417541580277097 1.1564086683959827 -1.5293402399619662
Ni 7.498056575562012 4.795048742636171 13.343706985682402 0.9274102800122609 1.480834579052095 0.7252997171583186
Ni 3.579581621029378 8.985994528548837 2.0276914548021856 -1.1258881312096223 0.1435878840277011 -0.05962979584749084
Ni 6.661012952491201 6.856067849546806 1.2908589710612342 0.4898784559673886 -2.1254780187099267 -0.5197117372787372
Ni 8.881658542598947 6.767418290384848 10.653147598043216 0.4308194450217032 0.6450807843055665 -0.616033489230623
Ni 4.014459627280941 3.271229705053156 7.131966968901515 0.35845188989256976 -0.16258602239675868 -0.4525663497804916
Ni 2.0377666120783458 3.9227429929166306 3.6513890572955283 -0.041312999816174006 -0.5307687664238472 0.4274736684779219
P 6.54024224730943 5.3707443010246365 11.189864510644682 -0.4049076102519478 0.8811875015992954 0.926178721598005
Ni 1.337263264582121 0.850911976365302 10.090078781782987 -0.7485517457077238 0.7658426715776875 0.47119064974989816
P 4.623274054947817 7.122247481490687 1.6049976819373157 -2.23276526853438 -0.86698087108161 -1.027648336299417
Ni 9.207138041181073 -0.03732501186765923 4.439231066450055 0.6277114397891834 1.3153743204313346 -2.1781781773171196
P 1.1329886655628203 4.590450807375658 5.587826710467254 -0.37692963698178306 -0.12605835978437 0.37787657427608473
P 3.7810940047308974 7.274862187342661 9.452455095024137 -0.03946103420909978 0.15632744308155658 0.14895840431099508
P 7.143578435232347 9.253328932782761 11.328766064597948 -1.4533980801076969 -0.24363027936428364 0.3205353173524544
Ni 5.800652167339859 3.583350797784075 12.345058985436097 -0.794570121419367 1.435571336338921 1.746525951981476
