# total energy = -340866.12210182904 ev
CRYSTAL
PRIMVEC
9.26556258080308 0.00000000000000 0.00000000000000
0.00000000000000 9.26556258080308 0.00000000000000
0.00000000000000 0.00000000000000 13.56108741442448
PRIMCOORD
 96 1
Ni 5.710097597897446 1.6439331985593295 6.725675542488095 0.7796685217171863 0.6084399931540811 -0.6733156107815436
Ni 0.6764361119921953 1.8091937750850766 3.081106291763512 -0.18008315074025757 -1.0214224099943636 -0.16014321728322098
Ni 6.465565253595294 8.778157050806625 13.468926004327729 0.12313990058599439 1.082501279583555 -0.4858310253708923
Ni 5.20778364660846 1.048370624139871 3.424038666067319 -1.1618082421449991 -0.2075348191933071 -0.7003037093346134
Ni 5.71734326793799 4.867385403706302 8.321951319239835 -2.2008835893344356 1.9326401394071617 1.073117781486126
Ni 3.424709492807645 6.883803488838381 5.7511218033597356 0.7852894674483895 -0.26407286348935166 -0.05938245572337515
Ni 7.302050989644181 3.50285524871806 8.579055859588962 1.7473268506162165 -3.793500992088493 -0.38181601853980696
Ni 7.065093488855357 7.5871060264694 6.2688703290138585 1.8324995279298184 1.6817981727857874 -0.49598636863733936
Ni 0.6586323332416782 1.0681803972174695 6.551578398804207 0.33392973638148943 0.5056933115124581 -2.031627868226985
Ni 3.0692825071871215 8.529070928428196 10.15405419812957 -0.9143195082665737 0.6643830841786043 -0.37989463314737804
Ni 4.106793891828889 0.0669010690035045 5.320096165018241 0.018686520665909753 -0.15408261291143788 0.12464348171471437
Ni 2.0634315503312073 6.545814292241262 8.905851329874086 0.809326196682619 2.0907213319550317 -1.0393100889080615
Ni 2.888261208488785 4.707109699919445 2.2684580689029965 1.6422795458658748 0.7566970005226775 1.3009406615045078
Ni 5.492384670860808 8.60557667973864 10.7206229737116 -0.6704053791132841 -0.559950787304442 0.3815473382594526
Ni 2.3697603191424728 2.135332316973941 1.3835152929845003 1.5030702505218436 1.3078507583607797 0.654919110552227
Ni 5.581982662282874 6.0934139272801655 6.177061574328782 -2.733856562498453 -1.4205123851232697 0.33315917676405205
Ni 1.5435130298900062 5.644321368207142 6.564217552899226 -0.5710844353237584 0.25502283747194143 -0.36615620051536296
Ni 6.65556488256126 2.729041778851061 3.951497501443295 -1.1211040795574174 1.538687228394505 -1.2317669307223236
Ni 8.61663049605369 1.190105936940631 12.716476142405078 0.38273955879534083 -1.726001606775879 -0.23864233923138903
Ni 0.9335054432030191 8.634939247971992 12.132453826343035 0.959661683846799 -0.7497154269985218 -0.8256264765045395
Ni 7.896121808467057 1.6373639145967396 5.327256591881837 2.988337154313679 0.2763997604858207 1.0258668189189621
Ni 6.110462562669679 3.8815202656195087 13.27839360550584 0.6752323681882821 0.5004786000807381 0.5992189887764454
Ni 2.880116778865207 4.264011959920887 12.400286035199759 0.9304668074503974 0.3927388360998978 0.6617970686189828
Ni 6.935282955264545 5.147131273097722 4.6670481864229005 1.3603855950347024 -0.14153305838120142 -1.264682964724054
P 1.342265007792045 5.146603136023156 10.789621766113031 -1.9235142658464937 -1.8231191151561827 -0.8512184660410308
P 0.7456674700176905 0.8809057702450118 10.73194641790156 -0.19062287392931687 1.2587432022008513 -0.988378077944885
P 4.256228887243065 1.0571914398414022 10.021887431941176 0.3002344010115732 0.167431266304202 0.7673647646491687
P 6.111222338812038 3.8401495281118017 6.378390206822335 0.36014573265522487 -0.029616794425168343 0.04176088598687002
P 7.120464491620432 4.630048014846299 2.3580152918491315 -0.5498895464136981 -0.5888219618128375 0.5114502686008934
P 6.89096576881452 1.3328141338261188 8.875555719475665 0.8160154357773366 -0.5888628423531019 -1.8291514373931919
P 7.915977909358213 3.090991720620617 12.351438915139987 -0.7741779309162602 0.5596499682345716 0.23304350498737283
P 5.733789641751245 8.001397131997306 1.7238449707225927 -0.9350729387638412 -0.03209610920359633 0.5125787257783818
Ni 4.358511434017439 6.632604818161686 9.463957867031528 0.9683031615718807 0.580974954964593 0.21660052894000117
Ni 6.430865721240006 1.5140207437786888 10.877022892616157 0.67031333362011 0.04271810769381675 1.197030555682403
Ni 2.522030576746427 0.28943579487530785 3.3063965959857726 0.1947788050792194 2.26483926625079 -0.6237982207777063
Ni 1.5573279838931398 4.178842907475009 4.475768983246449 2.0835425548184054 1.2000464596905913 -0.22363660985117614
Ni 7.719927867941512 5.348898166707538 7.24632604238352 1.0799134642517207 1.833897179608293 -0.6350858778763837
Ni 3.7408968203441515 4.5235311059126815 6.959997917241713 -0.6335072205353541 -0.02244958725276779 0.4981959746941484
Ni 0.31691096798428964 2.4076194083824487 8.330386687532558 0.6319478464680343 -1.6321853948546665 -0.568474508504737
Ni 0.18660657990094454 7.094317073648035 10.15273848822451 0.3806086284952671 0.8003175654261055 0.960999685931932
Ni 7.6044604254284005 6.830961984693599 1.9307737093190922 -0.8001874676061445 0.19228740611593334 0.8035841519925194
Ni 6.02046615205101 7.824499008705674 3.953599857622578 0.7469985422879909 -2.0867245520908124 1.313037958988674
Ni 6.659845572534063 3.9745187185567663 10.901704498567563 -0.4457439275420194 -0.8530912575837115 -1.7749680093722529
Ni 2.7972177892836942 6.403217282108316 11.409960455223557 1.9663308467913876 1.6280790859957766 0.15638297890984035
Ni 0.49330967744576254 5.95778462030641 2.3540551903461537 1.015254847731071 -0.4195485000935742 -0.5166305272502522
Ni 2.0502929824060274 2.773970492440058 6.154659296804453 0.9717738937293006 0.5313176969487817 0.2060317522852194
Ni 1.0570061285871684 4.62622133744637 8.603398345945122 0.10758626912211149 -1.6947326214592684 0.003593116667897038
Ni 8.42037661225733 4.89118863431264 0.6307392832543991 -0.040859200108207046 1.0463443700470239 -0.2873706576750277
Ni 1.4147124426347686 8.22477131785079 6.329216938955112 -1.2264437187371975 -1.0995692908094354 -0.5893426102029978
Ni 8.935708679156244 3.569113287669373 6.448839986344418 0.37609197157183616 -0.21268448171504659 -0.8959644027981537
Ni 4.423509356439961 0.7863525558847322 0.6534760475926213 -0.1538391294420641 0.17354020741541726 0.08467311196936385
Ni 0.9362109875148332 -0.06106932383276524 8.704699669628326 0.6200858049231257 -0.40498808578089607 0.7648731085755666
Ni 8.8256059974532 3.5363131956699814 3.882051182362889 -2.1214138759428818 1.4324950114064428 -0.5784753284711909
Ni 7.485481334647557 5.703120629175542 12.106226724531318 0.5909966008666532 0.7517250012293828 0.6794644039917588
Ni 4.434535376066875 3.67519471515554 4.855317008274323 0.6372934270506637 0.8857326977678165 -0.12649776131463378
Ni 1.8886274442124165 0.06848084744584806 0.6145162095024967 -0.4789543528557171 -1.0494957711918118 0.07653351358136497
P 3.12199429345394 8.401002320627182 12.326038301522154 0.9189246111387528 0.19739850209025359 1.5118014597472544
P 4.064691174866958 5.895056760748252 3.864964558166257 0.2711187145925395 -1.090420791540948 0.45407790132901155
P 0.8028906587688323 0.1293454023426849 4.46656086702357 -1.5396382794538646 -0.5265986942065576 1.20889336855826
P 3.1444540174670825 8.110165572669866 7.464565253382183 0.235767074566123 -0.8842044340487483 2.0004915518334965
P 3.0087227893034987 2.7168205016343387 3.679068646925299 -0.7249477331355385 -1.8745607187659266 -1.5154205445570805
P 6.128020804008336 7.025242303632368 8.337031022553113 0.46944769891686255 -1.1511551333065273 -0.4999535808152034
P 9.167134639006186 5.473418063989973 5.137373709006038 -0.39145765539462907 -0.4574825561351863 -0.4216583473477254
P 1.368931297276296 4.020151614911852 1.1625445940984305 -3.0536624578840503 0.6125678992795256 -2.0291531814342476
Ni 7.484526981688253 8.252243711290959 9.374196801705734 0.010022674343324673 0.5271666508948857 1.4324428180122684
Ni 3.950511645570771 7.952558350943977 3.300321166515716 0.6913490712444867 -0.9574240527655318 -1.7992482220758563
Ni 4.47277435337803 2.9457725562402604 11.088426898002403 -0.6082695290144878 -0.6917162247759184 1.3164881223208036
Ni 5.271095236617456 6.786329769111377 12.534188241284054 -0.5160291462208274 0.6507305263921761 -0.006876415404859126
Ni 1.9213441461474028 6.840755684479858 3.9777107049109444 -0.6513733021824976 -0.2776583154832702 0.661255594293216
Ni 4.945521894054005 2.584415610484253 8.672722359597733 -0.39455840580713986 0.09037504745014759 0.22590663683227546
Ni 8.199884016407184 9.263700333587446 7.486940660774649 -0.9001373032289207 0.8867590821498019 -0.5024940878488702
Ni 8.769058268223741 7.453885765800686 4.459265162944383 -0.36736461900116735 0.6878811673005444 -0.7530496335780773
Ni 5.336435984860311 5.742517801825659 1.209167979107396 -0.019824748035411018 0.29376293435461664 0.9413258616520884
Ni 9.100228010665056 3.3063789914166204 10.223635794425567 -1.1379774582739886 -1.4993611771013726 2.957615556860106
Ni 5.194932311127344 8.67652309342207 7.40336343200264 0.20125644238376308 0.3254155282628912 0.42411863596275995
Ni 3.0543186234077377 6.519750264333272 0.4285369081971338 -0.3832288397269335 0.3976851243615796 -0.4094085834460949
Ni 3.5092577525518394 4.493751587357302 9.542964393717858 -0.9415595749294494 0.04527069891234139 -0.1851327973490231
Ni 0.7214834247839019 6.189553405976686 12.681366145621663 0.9518139056676058 -1.341352232552335 -0.32734514118543623
Ni 2.005429127756012 2.6683523430894756 10.45315768113826 0.9582313791581756 0.43994043348636497 -2.1309457266927168
Ni 4.9560012454809295 3.3510945970632484 2.139356350859629 -0.2523288355795461 0.30788343291639875 0.20895895323434335
Ni 8.311496984832232 5.2238223356624 9.76044382857416 -1.4576769099887088 2.188714300961753 -0.6015430089239316
Ni 0.689030791386199 3.5507026145612395 12.484391401046334 0.22988490475373313 0.6651083923804029 1.007165642965033
Ni 6.670130347144041 1.9145246919915972 1.485061227523294 -0.1899227625384987 -1.0660750157067318 -0.30523802487375173
Ni 3.228983746085853 0.9881166698257345 7.384852690817222 0.16253408611290074 -0.48832730943018476 0.47035247011931897
Ni 7.421400702933491 0.043373952165974915 3.045697943860779 0.9435575791960847 0.8521440631790937 0.10519899983685754
Ni 8.777350946850706 2.7119931434615467 1.0381803582695515 1.1405824999970036 -1.0606813554949863 0.7136742171042483
Ni 8.630973587131388 7.717574415012742 -0.03685840846711275 -1.0292514191204791 0.9619260544009433 0.7603723924917356
Ni 2.3477175454513564 1.7549624365335406 12.426879126738589 0.804999030062175 -1.2980366004838355 1.3122481160975272
P 7.336463289555407 7.768155121855871 11.644905475791402 0.2851775066784508 0.29148442273308506 -0.10155240422320574
P 2.77721343938915 2.855266539672448 8.192863499540534 -1.322750558290748 1.798088140329484 0.45813844455163033
P 6.46696435356476 0.27329147840645485 5.196256360038844 -1.9359684324494466 -2.009034299197185 0.18692177092864581
P 8.512272463231897 0.42761313159477804 1.3304875510292127 0.9548316094480073 0.3848468349463307 -1.5639634864627905
P 9.12735757828489 7.113098369264636 7.794560122471653 0.2490121125014873 0.41254198686875404 0.727915814624927
P 4.2606763573446775 3.0146990772525406 13.61872235668766 -1.5089202815447174 -2.0054064726366105 0.2456275122999705
P 4.908098286261479 5.134835871379306 11.26733842807129 -0.9205279510701309 0.585925871211965 -0.458603557113507
P 2.184773359603532 7.775057966076083 2.0123838591274086 -0.793618299029059 -1.2919986218198716 -0.07833585689742638
