# total energy = -340888.7404492727 ev
CRYSTAL
PRIMVEC
9.09960687721398 0.00000000000000 0.00000000000000

0.00000000000000 9.09960687721398 0.00000000000000

0.00000000000000 0.00000000000000 13.31819446716032

PRIMCOORD
 96 1
Ni 6.484671077333221 1.9751697772721775 11.275569531693481 1.0539599776107524 0.07823429832255557 0.5035502970275263
Ni 4.606284719243056 0.4397949218850786 5.998075057146438 0.06733102114649049 -0.6186218187830894 -0.6213728991656654
Ni 2.9077338926773484 1.6650824723205555 4.753690161671727 -0.4186365298022661 0.5789054740300739 0.1352197145686639
Ni 3.4171935852068094 4.4950329250611 4.7862258062077645 -0.3608175619112689 0.17115113835795037 -0.03566068662640309
Ni 3.587692920033189 2.834391060916628 2.6720695428276375 -0.3409120812365935 -0.004493774105295487 -0.7672621776330335
Ni 4.961979254068714 4.940704373093955 2.571330524518282 0.39531405302624173 -2.028931038121112 -0.5761356245944207
Ni 5.329466879460364 4.813027788424641 11.270441903195074 -0.5348105405933886 -0.7066533057017249 0.32001158363850046
Ni 5.402909806897184 8.051641587861706 12.16501242983467 1.490300095340369 -0.3959876820544987 0.6061745941586723
Ni 2.284529113670343 6.580571834644168 0.37137406750641444 -0.46724812016238243 -0.005520415597596945 -0.5664839604372695
Ni 2.8161099506179568 1.9230199300239528 0.003432371729546373 0.04320198930877076 0.09468215946593371 0.4689741017145536
Ni 8.062233530314494 9.355032884397508 6.699451829305655 0.7813312541315899 0.852272618337158 1.3201617145176492
Ni 8.613141932356374 2.350082681909081 1.0839560956247067 -1.9076598153127404 -0.13291857723931302 0.3379064616410503
Ni 7.133363855318114 0.44735578527341396 4.56980530506867 -0.3863910395049991 1.7711998005790723 -0.6080653834234818
Ni 1.1969895928412475 7.391392309090694 2.409114561869543 -0.29948698132258744 0.9060366994324913 -0.3628021964414655
Ni 7.796552307123706 4.172342664527767 3.961510231997141 -0.026228337568909667 -0.5488968434831257 -1.4985420236341869
Ni 7.622522324813064 3.925079045739422 12.761946643668821 0.5098322733814962 -0.12692893531478142 -0.836558550036011
Ni 8.234543686917597 7.028499985192736 9.102346809846605 0.24620395362873082 0.9678743015645783 0.3894282836694261
Ni 7.054233673557417 0.5870120024505427 0.10805419231089969 -0.6904941794433592 -0.1670790251711058 0.245912390530241
Ni 1.7104713116285548 6.876409155161883 8.970682777425734 1.221626242743896 -0.07857316971921306 0.7283418464187521
Ni 0.026428898333230345 5.276243278595792 1.126726978022339 0.013899126579595416 -1.0863864735705742 0.9117918567487134
Ni 6.293069754063527 2.1161863856835774 6.818769515059906 1.5566217013857384 -0.42950252598249256 -0.0906781805128632
Ni 3.4019153451911457 4.386438216099259 0.5360623933548293 -0.12934525806575786 -0.059896162135000076 -0.37877466061032183
Ni 5.85815404140799 5.586776464286405 4.814794022127464 0.3893110413652715 0.31883736082474123 0.16513372851927688
Ni 5.677508644867812 2.995463202975748 9.21856152964175 0.5175905771706764 -0.5152495877423254 0.2896609963711011
P 0.5375692882604838 5.786066955401981 12.440552167160641 -0.0591320302754659 -0.10801024403340755 -0.9613964071497184
P 4.3308578170428715 6.15877775516468 12.655920753739991 -0.4420693069039096 0.02883003685781486 0.3955387674425382
P 2.4409422569873436 8.756751928739462 1.0299663078576216 0.7502563871036563 -1.0658351317817838 2.709258047223482
P 6.865826312316013 7.83928406121159 5.824272565008751 -2.212501633189338 -1.136027019415837 0.2727968736259109
P 4.950158864681968 1.0921803203573792 12.685007647254027 -0.24311040230507164 0.332011436312854 -0.3033600911247485
P 4.30234874856814 6.259865288419002 8.093760028443302 -1.9256539378973156 -1.7749559251873945 0.9534879509359192
P 4.860345744399299 1.0897325260963824 3.5818882807800674 0.24986263342724066 -0.33348467842427076 0.5880678572556324
P 0.30358563580856546 5.7137614788299365 3.4095244364961474 0.11725747366328837 -1.545861377545441 -0.24112371089234602
Ni 0.8309369754605984 0.2824945668935533 4.504319983881818 -2.156134310143203 0.128179777002747 -1.176470215032548
Ni 1.878222565165637 6.865871810350603 4.77918089053169 1.5611039055268083 -0.007861919246580008 -0.9470432237518399
Ni 6.306873857758442 5.719075649270167 9.085418811096671 -0.9198892890448672 0.4044404408075422 0.6207540346347439
Ni 8.895056854289237 2.643281116420517 10.251027499519802 -1.4958197396070174 0.610171116912575 -0.6339936732534693
Ni 2.4726179886696102 5.559550440387141 6.895361816451118 -0.03796979437555396 -0.3085974282642879 0.5672419216492166
Ni 0.5367312144633173 9.053171624099942 9.051284365625106 0.5857968018332685 0.24931627400546738 0.007817953382522018
Ni 1.5402176661889666 1.439994595591873 11.063490453015065 0.9172716489163624 -1.18725547857351 0.9500102767999637
Ni 4.477270492356767 7.011802206497834 1.5315657599311385 -0.2784023927381463 0.8914266628288001 -0.5581435588923743
Ni 5.622401425371172 7.813441177563892 7.852433903169087 4.175172514630636 2.1034698898699515 0.7983015634373412
Ni 5.119229561222189 2.8684599892183815 4.690455173275748 1.141605284834563 0.5231428744474732 0.338611715238191
Ni 0.6548004341483917 7.7147923389636475 6.734518074525644 -0.14714217703786273 -0.5051024720059947 0.5288486665829989
Ni 5.294733679853581 4.572352285045075 7.159874650113609 0.5908495337658276 0.20858511483469241 -1.167892500665866
Ni 0.792357372009491 7.547587061841657 11.18029118749574 1.1506298569306765 -0.7107213051235115 0.4328408463271062
Ni 4.698045155406222 0.3826939785126596 10.142191650974627 0.5283221046555676 -0.6468954689168019 0.20333106552460464
Ni 8.410402690218799 7.230238270569309 4.429751435069216 -0.008263525560372865 1.0996394819257385 1.1005627650709564
Ni 7.53420154006498 5.978878526391796 6.8018815545804125 -0.3673201389164771 0.3990802049368934 -0.3882507184215572
Ni 2.3058494926796937 5.210880802102335 2.4795282301632935 0.0014027938847975842 -0.24648111854951746 0.6327621148392134
Ni 2.624262937961472 5.592017837871291 11.325725655065929 -0.7240025956134498 -1.0161475347486693 0.4492431989445296
Ni 1.232114075545513 3.2621544825344575 3.6848385035705467 -0.590676241412757 0.06416393627241852 0.31667506306609977
Ni 1.294564677825144 1.1247569131245478 2.1585732646692617 0.6842983350452925 0.5412856067947711 1.1510399478849016
Ni 1.6776763282953493 3.525360612643495 8.341597832428185 -2.662574012903382 -0.07699888325355772 -0.8305077158562407
Ni 3.8484330566673934 2.7823049109168307 7.001574248321773 -0.5686876529568077 0.11419477557756463 -1.4724880068596127
Ni 4.3469004240396645 7.043186750758717 6.1511277156285455 -0.8343774832242921 0.022700012700677032 -3.0679721896385033
Ni 0.7933201104214369 0.21432304174444786 -0.014182647342712029 -1.4888350807590682 0.3573455442022684 -1.608229141149385
P 0.35978480813539043 5.748703969395837 7.799840905063945 0.2465189137659884 -1.2813172308466254 -0.12334841705237468
P 8.886557821427635 1.768026325386192 8.199892383773077 -0.13492043816069021 0.9016789366844278 -0.9062380168100199
P 2.422051473025153 3.4470675947192717 10.507869364550247 -1.9233096060348553 0.4468705849472949 0.08829116833792536
P 3.99671115139952 6.416578718764304 3.7177872702606694 -0.8845384203493992 0.972652439679512 0.9152561611482302
P 7.2450797294528995 4.212026050298052 10.417278227876073 0.1941529985697624 -0.2691276523044397 -0.03414682108503797
P 6.467545617113162 8.023787691085085 10.145054387311095 -0.3596767634386064 -1.0959306656155834 -0.25441194336081996
P 2.2592504056515734 8.78725381112928 5.754272018869086 3.360202489398677 -0.7438813368152479 1.4782261948949704
P 6.809972925052079 4.000696779229693 1.5524084095772839 0.1876563351018252 0.3340019843803215 0.3810338889581438
Ni 5.3684313962841115 3.2239816315125935 -0.0795087254084952 -0.11171494657850436 -0.6259646323014059 0.8022831737929087
Ni 1.6645455955123816 1.373785855655024 6.981703436694492 -0.7758861718566186 -0.32775394658808066 0.16552453619979235
Ni 7.131380141009946 0.8452406475753226 9.198823572275474 -0.7037489875707363 0.10937370003983746 -1.266335926946445
Ni 2.9613123782117303 1.6563377500721619 9.023116532409807 -0.2896892785058753 -0.47100038811596295 0.8546508887613475
Ni 6.48209588857537 1.973859433875956 2.278876437852755 0.08771395567821667 0.03894449958399744 0.8344636151801951
Ni 4.267388058788402 6.855707549422971 10.192574354559337 0.356734907201463 0.9775699315857873 0.010108292078595494
Ni 8.46059612197961 7.472824691401697 0.16430523239715847 -0.48100866428158456 -0.13658728434015188 0.1714126195494532
Ni 7.683307699026663 3.9996685236479363 8.19488487008599 1.7337018036336143 -1.2560296599244303 -0.24099901238902366
Ni 3.084775844877916 8.57370423597288 12.428911949990875 0.5750614176936354 0.26438113875838987 -2.0678696241678387
Ni 0.6126619744315748 4.9604505201064555 9.981174106557017 -0.7282199761289072 0.23632011885611562 0.9005995875773201
Ni 8.664700305154915 2.637029686467711 5.845515597359297 0.9827455622494559 -0.9529230795713847 0.10383580094074375
Ni 4.1528604061158925 2.5027558867827002 11.179532280278762 -0.17143781636043376 0.35943148019701965 0.25739005215253735
Ni 0.9325459161913346 3.4380043862287413 12.456054257506493 0.7956831519778876 1.0356408675865907 -0.3002577980503409
Ni 3.439660514687854 8.359699680470568 8.177518270282599 -1.5485240119792685 1.1207143003181668 -0.7547295923836616
Ni 5.680811802179121 8.011785309559974 3.4943345928951883 -0.6485152639084121 -0.25778960158380115 0.3888035056012336
Ni 3.086759559186085 8.830995621585084 3.2352287456634934 -0.16256956733652647 -1.24613554073917 1.055016701010041
Ni 3.7517588327683993 4.165590756194459 8.889442396820705 0.3159947491696235 2.3900926136353613 1.5965447628329212
Ni 7.487083775442522 6.125127408781164 11.598456343736249 0.5410639777022681 0.5188321628872613 -1.2535670573165507
Ni 8.338452098316562 8.810821793047428 2.420541848237423 -0.8853490891761527 0.24257201330309833 -0.4686066910728059
Ni 4.322750067278752 0.6667254690146974 1.5141855107173698 1.1666789399737392 -0.10211573292584349 -1.4640077373027431
Ni 6.413002573245451 5.805840401235238 13.752500734042322 -1.0955403721557002 0.4842181723578177 -1.125142254182533
Ni 8.1484159074368 8.92817032386458 11.145331407676695 -0.5283627280855158 0.6612105999878936 0.9432027669598272
Ni 0.4715088719164016 5.020799113187982 5.549878468193782 -0.03824695929634058 -0.5087709219965173 0.31513728626533466
Ni 7.214668843132263 6.245961089047987 2.5970077953200685 0.5718357116674861 -0.6058861163839759 0.16469047033427123
P 8.59016542488791 1.7243664113926516 3.4264515252853895 -0.5770403957968772 0.59049472152957 0.11303340827961178
P 1.3438572485010527 3.1744251722360577 1.3592819921880994 3.7724503420657807 1.8105664753021529 0.1034547634522412
P 4.853539238424483 1.2443712460643335 8.02977887228003 0.1438164550987394 -1.9734885408820912 1.7366441740913896
P 8.545932235658523 1.7238659330121504 12.268880802963196 0.21168766501941608 0.18211072269324766 -0.5551384535174634
P 6.5284219873959435 7.9619740612897285 1.3380789981079935 0.18055777638383097 -0.41734994978035866 0.010425566208698174
P 1.9663249593476835 3.3728421010874854 6.1253976671066335 -0.6209391540623563 0.5252362666413921 -1.5012167422528726
P 6.967778308227565 3.899181564450214 5.916315088986379 -0.4926321074531258 1.5112435303612555 -0.46521926265781166
P 2.5313741505404503 8.659631824101474 10.199432728293587 -0.2781465679735984 0.316593559095887 -0.3490449947563731
