# total energy = -381175.327349038 ev
CRYSTAL
PRIMVEC
9.19028848537878 0.00000000000000 0.00000000000000

0.00000000000000 9.19028848537878 0.00000000000000

0.00000000000000 0.00000000000000 13.45091616695546

PRIMCOORD
 96 1
Ni 6.408323708050022 3.3646288830994564 9.202605136554576 -0.7296482239350015 -0.11416597922215822 0.23627281055794788
Ni 7.710403756116655 1.439658664099648 5.212256392750632 0.07764885813273079 0.3106393983949811 -0.7788488540293683
Ni 1.9806633661714894 0.8701162787608916 3.369495140760744 1.1218329873036421 -0.8080434733154535 -0.07551150007475382
Ni 1.6930073420009246 1.1289442065538773 12.661037454398572 0.8400027998308693 0.5123265005582596 -0.1647112962698776
Ni -0.006422173472536445 6.455120656135533 6.63751571312279 0.5246138025660448 0.676033523933339 -0.2663107516809349
Ni 0.32258647198741736 1.857449170770379 10.884091533127378 -0.3803389197736482 0.3190805871837989 0.5179644155703272
Ni 6.229333652882421 0.5713105968100158 6.626674849029767 -2.6282418152804157 0.20199177788789086 0.1714126195494532
Ni 3.1174560789439503 0.12754190216730613 10.65558696162036 -0.8703757556957719 2.1082745103474463 -0.09899055703330048
Ni 5.219624246890489 0.8890795196641996 8.850836742089562 -0.29531536644340106 -0.22450487138874237 0.651312109927259
Ni 2.5568209210373376 5.685397248839 9.956906321034475 0.9079745398851524 -0.5525861194092547 -1.3585485418259635
Ni 5.490921557865411 8.897393823650127 11.370180586418748 -1.269723355361439 0.7950223784654373 0.20022645845735193
Ni 3.5755184289985604 7.7852218932659385 8.618324285849612 -0.395448521721577 0.3674247828151414 -0.3431574256273445
Ni 8.483077245961391 1.7721632952335469 13.361682978625597 -0.9442787736328253 -1.2853605476780636 -0.41727153113393944
Ni 7.415009509187253 3.187725023378715 6.756757865915385 -1.0420549986430505 -0.46978142810719736 0.49065904288715495
Ni 1.329926621652474 5.239263893013572 4.901782720758639 -0.0832741747393082 -0.30487035712168786 -0.7916470342353011
Ni 5.342314595857807 2.0649199294173597 4.946036716068177 -0.0935740140034195 -0.22398576566047876 0.39243287482370476
Ni 3.076403061053538 5.778154828773617 2.9313444693632573 -0.6462892027913708 -0.2808999623490195 0.2848412063849546
Ni 6.585815746222741 5.525293236152885 10.3328460927893 1.9580107569614666 0.9183227158886959 -1.9223878655515343
Ni 6.934780183723716 6.71686006726581 0.729799875839685 -0.9858478553238635 0.1083923099631746 0.5159494420228276
Ni 4.69476688138311 4.583830911167044 10.765682939484696 -1.1996533380172307 -1.2126533498213243 0.9518642992895671
Ni 6.965034612847343 0.4159074165955696 1.865022887368429 0.701798805822901 0.05011697126104918 0.21660747091853663
Ni 4.601448693861451 6.204611777322714 4.563895337760309 -0.11117012981862788 1.8759185183454017 -0.5893917182733786
Ni 2.953933279005712 5.581997315038904 12.224085196596992 -0.1826588818872338 0.1961198924881461 0.3048351330083782
Ni 5.899696391701915 2.3325503153557308 0.20588359585547109 1.6977783502641275 -2.0897052319856915 0.6125334464971643
P 3.890975075313405 7.37617135078007 10.691419895749467 -0.09897538752464889 -1.207875983037339 0.5498640924924014
Ni 8.339194092146236 7.6021973015293 9.341230526426346 -0.310868997907284 0.4105439826021187 -1.566448200557857
P 0.11761639079017482 8.777056188490722 7.191505373550879 -0.47122998762826585 -0.5445437087207525 0.06566880295271917
Ni 4.803956696819867 5.547938106554044 8.535076816260416 0.05304880019586347 -0.7720256604599479 0.08216268684268431
P 0.8163898532880123 6.01896795341711 12.857179344643157 0.34905605049996663 -0.4085963719574447 1.8184088541647072
P 2.497157569314804 3.4150559950682706 7.2661847373466495 0.43312726721927336 -0.38604805434328354 -1.0064107670768798
P 3.3159846870632013 8.372527267854435 2.1126680723431797 0.5848094982193348 0.4338579747377108 0.1499631914264256
Ni 1.7482685456219347 7.238408928980812 1.2850063304403052 -0.5626021088843601 -0.8527881245209957 -0.4452795863110912
Ni 2.6681704542274516 8.019693718974041 12.544176505307657 -0.5190494211043899 -0.2615254144771496 0.29826853553445404
Ni 0.4247209030869298 8.881770333519457 11.23062697742745 0.2827056480991905 -1.0947993802246176 -0.09887074362598457
Ni 1.3608059903813272 7.273148218800772 3.8554362304102874 -0.40516677745060536 1.0403657838660856 -2.3568886160795666
Ni 1.8620075537732097 3.5770899682999393 2.9687921371488097 1.254015457707879 -1.2191284160227067 0.6132788093036212
Ni 4.868536852789405 0.6391045966023163 2.9012821172653553 0.9525813799612498 -0.09347734052455514 -0.3124234868785974
Ni 5.004975873071713 2.6969360566445086 7.20548104498718 0.36876304201059074 0.4605791927826391 -2.2488079238195398
Ni 7.458332528290768 7.671556407421161 11.301849873789017 -0.3324063577584276 0.7204423890660173 1.316750374843255
Ni 3.9972791402201437 3.102089916886021 9.035988885570466 -1.9019378252272985 0.31569084477595954 2.0006905552181804
Ni 3.4514127756311703 4.350994956778505 5.429126059254457 0.09605461433342813 -0.6350779074565838 -0.018273858608523364
Ni 5.965737803513087 7.639739629284468 9.1633019495588 -0.33773959704588286 -0.005233994705429696 0.36489533152506837
Ni 0.41036199662801315 5.263186213490121 2.5875661115568334 -1.1168771859602635 0.9254536705065223 -0.3849460795283564
Ni 0.6365974859507595 6.526317819689826 10.859233641300651 -0.8215664475025528 0.05933103366014943 -0.05990593232701296
Ni 1.2023010878615272 7.216673897122558 8.570963973090564 1.6259119031411287 2.179808513831691 -0.3896170026414644
Ni 8.394152016252944 4.037743979658578 4.519548520538819 -1.5721133692634344 0.9796494398226353 -1.20043572470921
Ni 1.3872372595670952 3.0510746264652284 9.06769262316092 -0.04009841068278256 0.26891553629363363 -0.34407479523529133
Ni 4.717200375153089 8.641297249543515 0.26003185556187847 0.591628063803065 0.3900497193035089 0.8977616039078926
Ni 5.387245915415949 6.6519674414936585 12.07015246251249 -0.3685231580856428 -1.141205478292983 0.9798916377404286
Ni 4.711134784867064 7.033437928754739 6.6927723215996435 0.7815698525049571 1.301281332673378 0.23751671026737803
Ni 0.2744155757992379 4.10425409617367 6.5160403202703385 1.1629102169599264 0.2531467034951511 1.6952494131946867
Ni 6.395438923836376 8.566120691150056 4.518552293285781 -0.7357800478643521 0.07933987268190852 -0.2363167764220059
Ni 2.4175237210899496 3.222887066461034 11.120450125025968 0.5080083327988799 0.01756603390822136 0.5584533768233092
Ni 6.485200469781229 2.572637407222563 3.0916396400462656 1.3700460009426019 -0.9434789034393493 -1.2858002063186436
Ni 4.00075306920214 3.315111609673546 12.956904082147222 -1.0382610788182571 0.0775706965966277 -1.1290976392858554
Ni 5.864534348619596 4.4964680304716635 4.005790266226033 0.7847868167803581 -0.1205250886709666 -0.32433360805262207
P 8.44934888785577 3.234448449157729 8.929727095989962 0.28980292126560414 -0.2718998157329382 -0.561746188641968
Ni 4.797330498946801 3.6630559251718715 1.7687821881635037 -0.4953420501851211 1.5706637813011015 0.6496203240471329
P 5.704825518330903 4.6257570064471105 13.367237588881466 0.531232336323827 1.1904775850552336 -0.1185139717782088
Ni 4.173824578696711 6.215180608881696 0.8927666633350377 0.5546787402722253 -0.1661140901546752 -0.824279989778974
P 4.662021884126889 2.0056885212454976 10.962509506208535 -0.015407592804321852 0.1604527781038398 -0.16186688484254702
P 1.2102874484047932 2.53967184304685 0.9671629662507929 1.614221354177078 1.2155790081085518 -0.659074013260865
P 7.396141847282391 6.14533441770929 2.9257494218388147 -0.7048373355389087 -1.5447452616631268 0.3895882062860581
Ni 0.5970277805939294 2.2912399693925782 4.631378705807658 0.6192465968512818 -0.1615732648615282 0.48507563526210656
Ni 1.5958935654063446 9.333748712711417 5.627688671440463 0.021923539545968696 -1.0732162547372033 0.19689405165000928
Ni 2.6952082824418224 0.9791333167773795 8.473350244811803 2.296937175226599 0.48139124443198383 -1.8237490354306978
Ni 0.15021893857755753 5.277376018644094 8.822186937305238 -0.6053119890480607 -1.2134912723415874 0.012498132467010734
Ni 1.0188077914209683 0.5301500525463511 1.4113911753091104 -1.4327773185335517 -2.144414964823745 -0.3192734199208953
Ni 8.633834735434041 8.164440759890539 4.904069264490704 0.6319483606886666 -0.029930211900529094 0.9081257207510359
Ni 0.5725071723482589 1.8224066014361182 6.945461136800107 -0.09944847050632549 -0.047319353911254 0.681807964523271
Ni 7.7163774435195585 5.571915568760466 12.297352013079182 1.0896975402216782 0.212989157439659 1.1913628158736642
Ni 2.3812404628335475 4.616217487179091 0.8965006774762677 -1.0173754936184993 -0.3992979773746543 -0.5698654753149928
Ni 5.452717529351768 7.518051021743175 2.4633198467782678 0.10348921623460242 -0.3801121484748228 0.7783426038169111
Ni 3.89964151719177 8.474741654462264 4.431431117173011 -0.46882549195183126 0.47229493855767046 0.38934060905162626
Ni 2.5712588639757388 5.61365785827429 7.459487747531607 -0.5072776252804425 -0.5571197456135502 -0.10937729958426325
Ni 6.841802036869607 3.4906644970124 11.767789219955977 -0.6576429372412932 -0.8894078326265585 -0.23788437801944196
Ni 7.1137334777380685 5.470390453776049 7.461034473054543 -0.1546243443475208 -0.220895042550297 0.9153960291602042
Ni 3.4322050730587588 1.575178655550739 1.3195186201389544 -1.2838942475451824 0.13237247492785587 -1.273926080588877
Ni 7.613005080584398 1.221168749766389 8.356610607526608 0.37555126857701776 -0.21628711146464039 0.2512571997819222
Ni 7.259721207576709 7.872272304158704 7.19625307649294 0.6424353762629195 -0.14032592544697767 -0.31670000276676424
Ni 7.141671954207031 1.104534800796784 10.780048279145433 0.7156750495843609 0.8085453526525366 0.1786145366145311
Ni 9.033024098560963 4.001791571781414 10.996944597485363 0.19289444357231297 1.722718822259549 -2.166226147161566
Ni 2.9479228304495604 2.010007956752212 5.170559135649536 0.28895522855332817 0.2984539120723828 1.5065317267078828
Ni 7.535117387138853 4.242650647866467 1.3180702307009582 -1.4036906855802405 0.6102168825488459 0.4498929167133865
Ni 7.128888263164819 6.2900355071842275 5.202074472329591 -0.15810484669695352 -0.29271958069176685 -0.7576123132480952
Ni 2.5069819875205015 7.145706490776068 5.630230705187605 0.668569611456126 -0.7810733724845128 2.3804491770083263
Ni 9.229530843251538 3.8530743263140628 13.176382871502868 1.473252652939779 1.5563031417040551 0.8761216570406137
Ni 0.6858225082083435 0.6049084528216053 9.033353110882539 -1.343407315309151 -1.3661991163926859 0.5918044414799292
P 3.89393434814992 2.4656808318456607 3.274248830751195 -0.5154267367501382 0.907503770896321 1.0822367130682589
Ni 8.814148192118594 2.53992917111959 2.4050240099565827 -0.1408638002283187 -0.35942736643196166 0.26800228045074487
P 7.038207688388749 0.1070356118563866 13.196680542269101 -0.7480627218864472 -0.5652937967839103 -1.566895829618237
Ni 8.612559217991395 7.715734123337707 2.266021818264015 0.5192587089017187 0.9181177989667414 0.7491253588230067
P 3.8085933308832147 0.04498002808619794 6.686316144060351 0.30677503034356846 0.018256632217342753 0.10683319300617085
P 5.4002409830893425 4.9663307107190855 6.175073271658605 1.0112156446646907 -0.8178825708930625 1.080559582476152
P 8.695290193377446 0.5708593536538888 3.503008892273291 0.44303295636875956 -0.0305606463956764 -1.2851700289338126
Ni 8.85385023762712 7.926752333273181 13.370977117195684 0.8239336621831487 0.2925997672844509 -0.32834530031517645
