# total energy = -381161.9976666616 ev
CRYSTAL
PRIMVEC
9.33271233043686 0.00000000000000 0.00000000000000
0.00000000000000 9.33271233043686 0.00000000000000
0.00000000000000 0.00000000000000 13.65936786061142
PRIMCOORD
 96 1
Ni 1.3618573513243428 7.888101614638185 4.0823065380007115 0.3586814894048726 -1.4508763421271076 0.7487054976767686
Ni 7.341354007544133 2.098581646422056 5.8685288425186135 0.7165865056550369 -0.6474932504018011 -2.1466050304965285
Ni 2.165441196081038 5.703687014808303 5.550442948454948 1.218752520740527 -4.722292982939629 -2.3546903228766674
Ni 7.924592519044468 0.6209445350252126 1.1978414686370393 -0.2665814888438183 -0.6549167965593817 1.7368668316251572
Ni 6.419972670353648 6.077844776586393 5.868364586785225 -0.3340071265866441 0.24937772337102213 1.4288494442340554
Ni 7.3258710381298044 8.839907593354114 12.918756361512745 -1.061295077819585 -2.4330457201581193 0.4034852759831245
Ni 8.329566896257226 0.7999095559933309 10.741399158591314 -0.7936324400964462 -1.0551308579904022 -1.3950322385742941
Ni 6.308176111815828 1.0270836347110912 9.64135518030554 -0.8518604705004038 0.8541407818941483 -0.24652251331041414
Ni 2.192758044469067 0.8085936446250566 5.39329220880633 -0.11998644255867721 -0.15604333618223448 0.6872481617022358
Ni 1.1918060037062097 8.559571586562308 11.277242424839253 0.12437737253752126 1.1903048069227953 -0.021844092458284965
Ni 0.12585162299712016 2.158740308775741 0.5438516665218599 1.5541485572548976 -0.9502933552580215 -2.6525513385600576
Ni 6.114345013704802 2.975595270173289 3.7763914338184352 0.3469829700210218 0.01979569456968849 -0.30350895799778693
Ni 4.526449374728235 3.1825668269554273 2.032541508887594 -0.7228877652827164 0.2064505849901928 -0.22486251183847725
Ni 6.727214886200011 2.638180396028841 1.4259693505339104 1.162143771107547 -0.3123496962178685 0.8757215933887175
Ni 0.19506208284023052 -0.03976202000587545 6.765198091274981 3.304993705437018 -1.3924421092496146 -3.3413362486217935
Ni 8.452674701889782 6.52397641426762 9.798301533558634 2.0583706835384676 2.2407500865120697 -2.1451829533380216
Ni 2.024937215048658 6.92069134125031 13.03308581812112 -0.9475294193596392 0.4745780781648924 0.46363160645571766
Ni 7.289706778647873 6.098974036835966 0.28440040292196817 0.22270484206552613 0.7874643636125211 -1.183154311920943
Ni 4.425245444451574 4.757480663366997 4.125866971841205 0.15622202785194386 2.0671234900304336 -0.7621215139723584
Ni 6.638106150836533 5.719739279662219 8.703394280026114 -0.512417260499853 -0.2796676326038151 -0.8433192657986122
Ni 6.012105152382337 7.001764611474707 12.034039517174058 -0.6692792359286408 0.3053575811707515 2.0419241079466706
Ni 1.8598602029928135 8.61098549765546 8.437828223442335 0.31910809798762463 -0.13075345126719415 0.3214192626193045
Ni 8.848428359523663 6.990014726910126 6.074279680554884 -0.2768419902295619 -1.0144274667337692 0.5165161131595749
Ni 4.9400098470954115 2.258264350870015 11.475385235951737 0.5703848381535724 0.09526682832481012 0.03664413358559496
P 5.793869012066084 3.469659717325276 5.80748543905554 -1.529229682526031 1.5121241331939956 0.7473063033363968
Ni 1.3819880113766074 4.193560865964106 1.1450593819464563 -0.7596949068087369 0.2383888284596862 -1.2248277804003294
P 8.59452259346807 5.1317037541299575 7.459340020762834 -0.4815917904785642 0.19231723091260428 0.2424843386852985
Ni 3.574428743633446 5.490154561402734 12.107007326918442 -0.8247250477361925 -0.12944321709620288 2.1747907489021254
P 0.40572379399634434 1.3419320109388144 12.029750202681699 2.1768558589612703 0.3643571996334112 1.6854450255097553
P 2.9681664313222913 1.6381242956299231 2.1962895427369284 -0.020002411263855872 -0.5640599243768092 -0.4441660415319382
P 2.3456838653389824 5.837098134626164 3.355082010574394 0.8061172028270182 0.3706723432181616 -0.946229726711609
Ni 3.7406536792805873 7.514737133390667 4.878511007280668 0.8931377319826361 -0.6760273532857518 1.1536745572942713
Ni 3.151339572187288 3.5947553906403225 10.461108882088919 0.48391401085383756 -0.7103181561478218 1.615958648583159
Ni 1.0183948797233036 6.017919432035818 8.34665229234331 0.771734097361458 0.5311557174496206 -0.2432361292496585
Ni 1.4709660887703444 3.846169322558707 9.069997211339528 -0.45733780302720584 -0.34949493780959806 -0.5955471963518131
Ni 4.282034976903127 6.976883600951139 8.102504810084959 -0.4783730264309503 -0.03226811600508637 0.07886524703833514
Ni 8.452553376632165 8.08919356278197 4.055001822138444 -0.3315805194230225 0.21857976415355904 -0.7719361860699352
Ni 5.854214328662257 3.970387720934063 13.500932810373328 -1.3734092609878799 0.6811664742845301 -1.201037877069583
Ni 0.33132994583935926 5.227214730010753 4.025114744831364 3.460848322647214 0.28495253515183827 -1.5494778912521057
Ni 8.01520382105997 0.9351377548618048 7.70441610787756 -3.7547259282028236 3.1037717158356157 3.178523712036526
Ni 2.669836955554702 1.4914047283227132 12.358039550910938 -1.1235975354032328 -0.2749900246224877 -3.0521390792609884
Ni 7.307382935411429 1.6404108101003938 12.86834011734569 -1.1159500461603038 1.1649298184931163 -0.44641395702585057
Ni 2.574951271386239 0.32240413996361245 0.4726766707765698 -0.497439299033782 -1.2745169200953403 1.714596707373047
Ni 8.50848432039351 4.671591713686427 1.5422792086550752 0.20305004394907614 -0.8622788376202505 0.32004423664864884
Ni 8.199926192137612 3.6819695854425536 13.092285077668418 0.3080011894411857 2.521180565423839 0.5346323631443114
Ni 6.668185482013375 0.48162487516141506 3.417614914892518 0.6929138446284454 1.2575052160286924 0.39116506385487476
Ni 4.3383205637251985 5.075184849504777 6.779950309329972 0.0056659400365257255 -1.6289118663097173 -0.1945270940797295
Ni 4.727634649993264 0.8538348999191492 5.048010791612252 0.5551376821865148 -0.8604605534645889 0.2753026707669
Ni 3.1684184353748837 9.075325256691329 3.3875775809202353 0.9655045157808211 1.591651439296362 -1.332432561465202
Ni 7.219711437715103 7.740495439679159 2.0948420286738214 -0.20086254937945408 0.09331921768013607 -1.4046198822627294
Ni 2.427139776760478 7.43336521637829 1.6503249501901112 1.6743900532471745 -0.1690592888259282 0.40391053644600117
Ni 3.5766872599675437 2.970415614944264 5.112127457177881 -0.5325543975693603 -0.8771542120701862 0.6047250061963391
Ni 5.19559550133339 3.49690190401631 8.86666447901468 -0.2693330834470265 1.1193647282688077 2.378859206813387
Ni 3.2358939440340735 3.337947151114052 13.308608945270388 0.3794135797459014 1.5100875623799412 0.20600552703297423
Ni 4.622025679593901 1.491880696641056 0.2318227026269088 0.988272405604956 0.9652335215076215 0.1391658437006055
Ni 2.1359591584801554 3.8120582597441373 6.870539212836375 0.6603107138814434 -0.41216532025562563 0.06791183335062498
P 5.345394863641642 8.245124516955933 6.582530783407125 -1.4630651708838156 -0.8754979074136857 -3.693964846964367
Ni 0.18404014982135034 8.712805386932327 0.018200655184945028 1.3425364826684234 0.1928517632598356 -0.050294634489494026
P 2.1133086661543112 1.6727206594749602 7.592969526044405 -0.03561363543855156 -0.16655760544999704 -0.11356099864830765
Ni 5.762240450676597 5.400084556690446 2.0465284445483864 -0.35897588071683983 -0.5709977891472231 -0.03361048896559373
P 3.5710503018444237 5.227494711374485 9.119457785785047 -2.5920975041493746 -0.6224923574820892 -2.775028665861389
P 0.3209753017373715 5.596174171135569 13.13191084007728 -0.6734773331703885 -0.7921111183559132 0.4751648039062978
P 5.138721953647484 8.811284165268672 2.4310119190208788 -0.013395961690931768 -0.5884339823457995 1.488938439106152
Ni 9.316622528666898 2.770088949194677 7.093678760102771 0.9141631851943676 0.6110041543368315 1.4044915842149812
Ni 5.995539588361582 7.105572368434067 3.930100269235585 -0.818161535586062 1.0851672564514925 -0.41809942635187347
Ni 3.0821748426335867 7.538554214732057 10.424406125117411 -0.6786244245889668 -3.4217474999910102 -2.719970291434664
Ni 1.8258611327237364 7.402483271958752 6.376165852913072 -0.4155015837177103 4.916849387595397 2.974511561284497
Ni 4.80488150824667 9.193132081837243 8.306028863008354 -0.9214476346709227 2.042134938405896 -0.504949234257582
Ni 4.561045738573272 2.2252265499497477 7.28766851431991 -0.7788305991969232 -1.4045098390474262 -1.271324638410288
Ni 3.555557999717971 0.40893424696712743 10.078987517055104 -0.36283870610635577 1.502928839847973 0.8998729938239405
Ni 8.138936918404859 4.560803088058038 5.321183941848603 -1.1312337117922517 -2.0739615959981896 2.9534192593905715
Ni 4.924620204802326 5.364153615011624 10.51358765563546 3.561156312940357 0.29010348322515844 0.2885194265674902
Ni 7.623285908109206 5.472954372957521 3.3859387566711963 -1.7930122684684735 1.4823672136465373 -0.1938984593567951
Ni 3.6288011244700216 8.432310724034409 12.239121199751011 1.0969781330434913 1.646236987851726 0.7774465743652029
Ni 0.9908167153957922 9.206636516281206 2.222324076479069 -1.3516919239154463 2.0137278480181124 0.25193134303081127
Ni 2.2401495566366143 3.412580849972633 3.122831869732189 0.3499533655032554 0.712491766760373 0.7280582537400622
Ni 1.1696594778350813 5.7171074548431475 11.017946084260625 0.0736541351510409 0.48757140510076674 -0.8207840608105735
Ni 9.39589458545129 2.5021747822404072 2.6256857610367352 -0.6766629299872218 0.22572871649351445 2.2513090929748394
Ni 8.70247407461065 7.285273740388798 11.996339093276458 -0.05475626980527344 -1.2486696200149334 0.2897083046692688
Ni 0.7716538367655904 2.8223708025153935 5.009217507124886 0.04245791205389462 -0.18231538250488602 -0.9453735493589008
Ni 4.990210505612394 8.575997159901197 0.3961353655597673 0.78462663705341 -1.5597736167511587 -0.19914299558518606
Ni 7.170285394304443 3.462174882201532 7.751636831413232 -0.13611522979973978 0.39507288354971315 0.020686067594441793
Ni 0.9084863288482434 3.607298555735474 11.956112304206789 2.4151331015437565 -1.0122325159649794 1.4801784335253347
Ni 7.315539725808128 5.410107889512019 11.160372603990625 -0.7377348575978779 -2.396084826663054 1.3027941697734788
Ni 8.880131582610145 3.5338874421651854 10.250727152296534 -2.190494789900944 -0.35827885464981524 -1.2230274939667969
Ni 3.3842933995236697 5.281344460332095 1.0966543372422024 -0.09163643066107444 -0.05198667747993628 1.113812945212643
Ni 1.1658423985762143 1.24418118414817 9.663319718290243 0.01577423211512122 0.9612745368598735 -0.2825017596185006
Ni 5.493738322858492 7.865273800781977 10.11168840706768 0.3402050278672399 0.29364749182267497 -1.3213295095735051
P 8.93860102406932 8.689706924424513 8.720318220192445 1.2276433954722534 -1.1676377043425825 2.4576210955046385
Ni 6.945889663986108 8.213113314369346 7.897067551176067 0.788703635336261 -1.6622310492871373 1.8385061391352142
P 9.023155395916104 0.951591326337068 4.147502998359131 0.0071684927239812025 -0.292132083619413 0.3610127086412105
Ni 7.13785421967226 9.13857304675818 5.741196118107357 0.04874451639355476 -0.6602865455117273 -0.7614903081462627
P 7.010462699174619 3.219776350195288 11.422141180010998 -1.2773423053592776 0.10379234929731801 -1.5792612931621253
P 5.7442656471250615 9.455623943047254 11.597772556208291 -0.634610738012178 0.1383279211803424 0.10258495925277818
P 4.97969253904823 6.179664665863264 13.808801251203237 0.9542819075921244 0.6462470366995257 -0.8573009247896848
Ni 0.29337007254469954 6.909734737216301 1.8739563313854612 -1.6078571025219472 -0.8300739707529317 0.1572890356638775
