# total energy = -340859.2393552123 ev
CRYSTAL
PRIMVEC
9.39339984669574 0.00000000000000 0.00000000000000

0.00000000000000 9.39339984669574 0.00000000000000

0.00000000000000 0.00000000000000 13.74819017504671

PRIMCOORD
 96 1
Ni 6.885859869982525 5.729382065849988 1.5877231508059366 1.3163431121025073 0.47801178643678965 -0.33410791383056654
Ni 7.638891154674109 1.4218977075859385 6.232453104403558 0.023075393762224776 0.769048837219811 -0.5190422220155383
Ni 4.488194582734482 7.341749740250926 4.240175952325653 -0.6395264301462406 0.9690474959370731 -0.9090595454192151
Ni 3.961196676327129 9.087635198757422 6.636292267954236 0.21436135519683727 -0.3966366284924072 -0.4814058997200032
Ni 4.82052367263673 2.436957878419673 12.767724054701736 -0.21730089744113543 -0.514160982663837 0.8358496968944443
Ni 7.964663651547955 6.057145963471716 6.908203949977734 1.689445919139032 0.0838048504317976 -0.5120889306261567
Ni 0.7710788236392411 1.6217704675548468 6.589287695584445 0.13848964356918728 -0.5582710856091739 -0.019910622880997965
Ni 0.5393596204838212 6.365700358596197 0.023157548413918122 -2.4916198210475864 0.522488785803242 1.7307296083791677
Ni 2.0667639941084275 9.227841083487938 9.074946594369509 -0.25198405064561763 0.3482104146702197 -0.34535289061676655
Ni 1.3960564648622582 0.647704971928195 11.634034638372778 -0.8412310158110157 -0.09940296198037074 -0.8452159686006927
Ni 6.330700551112216 5.082580738978144 8.134941566251424 -0.9339879332297786 -1.1939822557743822 0.8628581071624881
Ni 6.645417016475422 7.0318333021620925 5.271908468383038 -0.33559426856810587 0.6782397875560383 -0.6203339163781897
Ni 2.450174391873769 6.663696572397007 2.0467344478126432 0.056542672281734874 -0.15195811036926732 -1.5997331878632322
Ni 6.8275550377084855 3.410123486349877 10.465630973912365 0.43395439110625905 -1.9855853241456256 -2.7482585968563957
Ni 0.6039110635943739 5.537409155074324 11.592638864996193 0.03721774670087784 -0.06474577691781752 -0.8599303919927319
Ni 4.087678804016825 1.997609785118339 8.166012114618242 -1.1176847694632235 -1.0549439387905766 -0.527455385779898
Ni 0.9527067832656543 6.320480532179695 7.764001845999698 -0.3250470891798789 -0.6473904062753495 -0.14528892587920786
Ni 3.150809292736676 5.524023560424654 11.278891798487615 0.02237245415792921 -2.6901472945359606 2.2880622413344724
Ni 7.17959148029495 8.2489455017077 0.5461068995272308 -0.8169220067520061 -1.5139696710431667 3.1631665128541653
Ni 9.002953699973716 2.776097183143682 8.875473993230129 0.5741432767547402 0.8412505561950415 0.5841605517814262
Ni 8.664068017043068 3.7955440716626074 0.5180225129422584 -0.09783536038293474 0.9385251589784996 0.7844376609710554
Ni 4.66190672438807 6.659713770901246 0.19995636122672034 -0.31009123920099496 -1.2027967687422187 0.4535233143771221
Ni 9.345765824001598 2.3393698483737575 12.420170142477954 -0.7315878641598755 -0.4280943327810563 0.8596935933915776
Ni 8.381458192039563 8.130006274020591 11.253759757445374 1.1017611562544316 -0.7105356714752666 0.4327955949114675
P 1.233005831929637 3.0747885085263 0.4998171648787307 0.7331690926040664 -1.8967179715892557 -0.6843160756571053
P 7.0365018218399085 6.685489259826647 12.760354932594602 -0.26831569792610566 -0.6741280793805099 -0.09800299630905057
P 8.250532986266153 0.7238365982556697 1.3229044249368014 -0.08291344896577979 0.21119375610213306 2.1124075586792137
P 0.10109176815421524 6.040500859107354 5.191453999488701 -1.1290554731940103 -0.3424264609985909 1.5168847878074327
P 2.616014864533374 8.938233175667587 3.553797414269627 0.23590180037177438 -1.5337201141972165 -2.1038745815075384
P 5.091758090537953 6.493459988652457 2.3028764903288654 -0.9000169756009726 -0.02581413284962651 1.6741326858207297
P 4.65740728590583 3.245560516056837 1.2566161422117055 0.6612697353606031 -0.08017085322363612 -0.8084898168242528
P 1.139250308983417 7.60769567409056 11.460299013219807 -0.2960877258330514 1.9491710471826496 -0.6167791091473959
Ni 2.7393783835046905 3.337869455440917 11.983568679264735 -0.9576359116660217 -0.7230155491098321 -0.7248623725105839
Ni 8.114648065422548 5.1054348805800025 3.615774126507566 0.06872250217737842 -0.5356019261464323 0.6892865322885032
Ni 2.8887146527962457 4.424873674991724 0.5840261756548033 0.7198682617301021 0.9562364602153338 -0.5266529444832608
Ni 1.0750746018630304 7.394643974266572 3.852201301619768 1.1882124431701409 -0.8716127134266667 0.40037938336429113
Ni 8.492290915738838 7.984990968615947 3.0000752855617026 -1.2752609973502167 0.0742179780743109 -1.2732388247138653
Ni 1.9081940128585384 4.478303332793358 9.320723020257022 -1.2197282543902348 -0.3690718315002611 0.6448064475982573
Ni 6.092653014542422 1.179097110740542 1.226629592176517 0.5331871460573527 -1.2120141735754288 -2.440798367520345
Ni 4.421614165277033 6.412141326980739 6.326050818233909 2.0141001437558668 2.428773318035011 -0.44209450371489023
Ni 4.776844363779909 3.72270764996889 9.60788112942149 -1.5378511056464548 0.4532633758475162 0.0996886115415896
Ni 5.3647960411919735 4.820955769025421 11.799961530310123 -0.22903181272481846 -0.25025806909344644 0.8273002646625365
Ni 0.9389229084664075 4.185633176653153 2.316363533695881 1.6122202645866492 1.0075168556568648 1.031869059248984
Ni 4.896084180259152 7.348353300278097 11.808938802455168 0.4763526535668119 0.7081859402961674 -1.1357961343519536
Ni 4.919314057851177 2.1872907063539895 5.601040045008969 0.7982794519501543 -0.7576444520376112 0.321284279703337
Ni 5.2655359859898185 4.564985625724699 3.788547867525713 1.0892288281153757 0.09474695126559811 -0.44467640550945353
Ni 0.4869547825953664 0.2628075989817709 4.220776703153373 -0.32078420013846687 0.24734552343234179 0.2385574928270666
Ni 0.31346244649602667 2.0559615843911496 2.659848225146163 -0.889320672229391 -0.904492751984139 -0.3598372002758706
Ni 7.7687361194757925 4.423924941616555 11.984792639252703 2.8160992106494533 1.7261484167663883 3.080232237952779
Ni 6.962575765774709 6.166259695015979 10.614579295794075 1.306797120285285 0.5936335242688678 -1.4062440481297136
Ni 2.5964671996449775 0.9424022237353463 5.007902271592637 0.8713877419000541 1.8148015964294228 1.0998996775656606
Ni 3.528433356253458 5.617854230568907 8.142159454622517 0.16616268400442352 -0.9554854409819222 1.5642933589983834
Ni 4.2882372821677865 8.463105622702678 1.7001565098233187 -1.7921193243405587 1.3019338786557126 -0.6981321556045912
Ni 3.551888675439583 9.352219089632703 11.044361150785777 0.9366983901824062 -0.361253621007423 0.7724041268452891
Ni 3.804740210021925 4.3490313653766774 5.973340868885072 0.4304101253984265 -2.8790578137598613 0.05469610599129935
Ni 2.2098066855646987 5.872978967891755 5.672902371148181 -1.9643410700548685 1.4499959964046834 1.422776755677414
P 2.7120999506186245 7.54511684492838 7.697034420472377 0.5017273848861747 1.210307218186651 -0.4650621682546571
P 4.989717589008569 5.974991289221877 9.936477282261436 -1.4506102329499146 -0.1185381401479249 -1.2005529670133646
P 3.4634122431551977 1.917437118216627 10.386125238393198 -0.9479076286346643 1.1673733949376024 -0.277915940020031
P 6.995931728301713 2.2981234300532636 12.558779149250263 0.7185264029902271 -0.3248519424499373 -1.1918081309411992
P 8.439114879730566 5.239506875271055 8.972412939353031 0.08370483451882357 -0.7678908123559678 -0.2213647830978639
P -0.0335006208832181 6.034799065456582 2.136702551977988 -0.16493343958301274 1.845575901497802 -0.5284791990587221
P 4.79906914759824 9.299503330212387 13.281728071229166 -1.576193452870079 0.444573304272686 0.6851830516430909
P 2.627127256442539 2.935324702376362 3.607924062333019 0.7653672746031658 1.72174051750668 0.5806795352113612
Ni 9.111494434132975 9.095243852558287 13.49166210167475 1.3156257743205084 0.18243288191935678 -1.8954303631260843
Ni 2.910930043214822 7.195269064484634 10.125748651267804 -0.6617711004770538 2.3577404225569008 -2.6946544383776945
Ni 8.584073824736684 7.378731555083034 9.068182407206542 -0.2308182152012799 0.736463447084622 -0.8266325491715506
Ni 2.7177547772706263 1.407074922773882 13.740450051523446 -0.23415833531810643 0.1309686526017938 -0.9012241085351963
Ni 6.685536226825418 9.046285453039632 12.372381221228691 -1.1263352460493699 2.2101948394330324 -2.3507359662146095
Ni 6.914425198634911 3.105758547515749 2.3260284027029314 0.8383593506901756 0.7264556851396328 0.7400797036809706
Ni 0.9439803148940444 8.56661149459371 6.324442668195998 1.577113393581187 -0.39247504091554986 0.6286167252122723
Ni 6.073462298844683 8.80082652406381 3.0097946362873267 0.43838260208094176 -1.0793246816277864 0.1829167635343108
Ni 8.939369777037841 3.7590037466189448 6.71854839092142 0.4828958540019683 0.5430943778687357 -0.07957949949654038
Ni 1.524154257309669 8.80575805893474 1.1798110091218577 0.17298613468416013 0.40646287055420965 1.719480774938226
Ni 6.161027571352916 0.31156122238578576 7.669840528184098 0.2897833808815783 1.9361689784960268 -0.4776988831820612
Ni 5.4967451275385875 1.3947413888966764 10.61463377751265 1.6579151955206026 -0.6156092572090107 -0.28282520439619036
Ni 2.617874757684697 8.493145715116466 12.904353872145846 0.48611538938053056 -0.36075739809729485 1.3281197930224613
Ni 4.876658629567559 1.9228477164750202 2.870677446588317 0.28689937446556396 0.6536099048225001 2.989902184807954
Ni 1.3738316810439275 3.18717114318501 5.235104188806283 -0.05977274918325835 1.8938483633509449 -0.8162792309616844
Ni 3.1925253810448777 5.410851880186595 3.808165982912265 -0.4760760028666576 -1.555163114562341 -1.2608445648145705
Ni 4.5085406866019815 8.885498629447763 9.031226893893747 -0.16436419734310403 -0.5172972142999737 0.033759098728316055
Ni 6.201747959287177 7.480894170809223 8.001253761610315 0.046335649841746006 -1.131405975704058 0.3111646747708318
Ni 6.984988417588122 4.24318653694686 5.565061445270605 -1.335482146924803 -0.5649024748827626 0.25707637756686047
Ni 6.4292373145333 3.991424636736 0.09329994305814374 -1.578791038393926 -0.36045426503457917 0.4846089800383332
Ni 8.13118044898986 8.374121946831568 6.800322632481215 -0.4504133079932307 1.2343413763177193 0.030829326676030777
Ni 2.843391498982448 1.4326907239034623 2.2431823742311865 -1.6044889573806624 -2.0845108322689456 -0.23077090690311225
Ni 7.6200479947672735 0.9236623912258073 3.666876099850119 0.3039110785322121 0.9927484390984385 -0.27963112293892484
Ni 8.429054548593866 1.016910670585303 10.414748806124061 -0.3205119203136867 -0.07803786604103334 -0.37824681313130987
P 2.400210898581419 3.4722138587248406 7.4918008472637725 0.18749718381614158 -0.29102085283310525 -0.7686845119018568
P 6.692337048247426 8.942751400949337 9.750463544289806 0.40200740588601735 0.08229792686896795 0.13754707715025988
P 2.4278181004588806 6.428373121755919 13.155326726777357 2.8889976985813925 -1.9802567128438602 0.4197711576273416
P 0.24884149222729338 0.6892613724405763 8.279847908218919 -1.6310857340325846 -1.2043880244887386 1.9316536071241766
P 8.426067447472045 2.7768862287230314 4.544353962504673 0.28604679665728155 0.8015784344164001 0.17438455769358352
P 5.984797998565215 2.8906215129463386 7.66343329021179 0.3341940457864696 -0.22043892884948485 -0.892475930028921
P 0.6948513846342739 3.5216701084304662 10.895344257085863 -0.1761359931670515 -0.6144036669366839 -1.1736584566153658
P 6.03359671028805 9.44684819875606 5.060255445782444 -0.16744386470969227 -0.07693537700547395 1.2435857777341228
