# total energy = -381171.62414337223 ev
CRYSTAL
PRIMVEC
9.17790707276235 0.00000000000000 0.00000000000000

0.00000000000000 9.17790707276235 0.00000000000000

0.00000000000000 0.00000000000000 13.43279471804678

PRIMCOORD
 96 1
Ni 3.2105328791032504 2.590170600909523 3.306065714658981 -0.6268418927000365 -0.5241615455199746 0.09210514276737686
Ni 4.314873735196906 3.054425856337622 0.5709208923604369 0.7991243164489528 -0.03199249374619652 -0.14050281734447417
Ni 4.601857713964525 5.419884578512731 11.368335843456167 -1.8166849294950649 2.1528911206155565 0.2754278834908547
Ni 8.831376912638392 5.232976499341586 3.49149247961563 1.1338289833232538 0.5328680721550371 -0.34499165062260584
Ni 7.75307377913784 3.911945255365251 -0.14929701565809128 -0.7410297262990657 -0.05661492028056701 0.9643115239139843
Ni 7.022099363935979 6.10341839164066 0.600852800958564 -0.20772970881293257 0.44510423707549146 -0.6037441303403086
Ni 6.458098613568915 7.279099120034699 11.77885537029408 0.29243984466781897 -1.2538943587489826 0.42240936658113704
Ni 4.1049107532573865 0.8929901745926007 1.7495679203463306 -2.759125364367571 1.0224372244121231 1.0791930411459285
Ni 6.498738386442464 4.457333210026001 11.050300251417754 1.720259304975463 -1.4166351615560506 -0.4015410077725601
Ni 5.298038683149307 6.365429285044924 9.263241498142072 -1.3129384572963325 0.35322046629030135 0.2553853630176828
Ni 7.574554307104551 6.158779527587645 9.311814653958688 1.5568628708622672 -1.7170629095253527 1.1759937896167618
Ni 5.024013909281745 0.43751542293779067 13.395572166809806 -0.32516741680782707 -0.6724697178414806 -4.827663989577976
Ni 2.139728095746711 8.880129955435208 13.238072855529067 0.6159933800213069 0.3463599917250422 0.41990151255761876
Ni 1.6837513125706312 4.798696288675233 11.013428009430518 -0.28199165275130145 -0.13790086094525283 0.20295876978685043
Ni 1.5331785678182708 1.9607680841700759 10.57316747446326 0.6454376534243529 0.6004901421793852 -0.61693954598466
Ni 8.146099297151391 0.10362224292039798 2.1345783720431544 -0.005693193730035357 0.3530800840576951 1.7868688745748968
Ni 6.227953413799916 0.7544790354207324 7.917074719845776 -2.485614752504087 1.942000497576139 -0.5690005562115361
Ni 2.6122893571482884 6.4272333118133265 7.495929012106103 0.8000668828678802 0.6226821048953921 -2.2020287586824723
Ni 8.636970483323234 -0.07088189473344839 6.020928279940078 0.5461038541190208 0.40241852528150696 1.8012765653597949
Ni 5.628030334835953 5.559921085853431 5.128372220355815 -0.40002585667961427 -0.6454908752597914 -1.2447201484488823
Ni 6.291106592919812 1.9160533205205879 1.1126854092771765 1.6329382138602908 0.44594730180207715 0.06822165128155994
Ni 2.361815093035362 6.9161037142258115 12.186836288013469 0.2518326126694179 -0.9192377715037975 -0.681866071454716
Ni 0.8514748293766538 1.4623343025041495 3.608867816404821 -0.028985588599072663 -0.7890926432445635 1.6885920557791694
Ni 1.7338626856260917 8.723527325683316 5.926320577425371 1.3769224163474607 -0.5665603222011597 0.5528797393902737
P 8.432844650333033 6.813393755276422 7.13513813959537 1.0774925135150542 0.012060273598643744 1.2810526643313291
Ni 6.417559797674048 1.9489836513856047 5.78449713156198 -0.3079883339253792 -1.3385924104190106 -0.8549761333112501
P 3.9987131895898527 5.159314616531489 3.2678232111337993 -0.5467558858807229 -0.07378269030910518 -0.010187996276595357
Ni 0.9612297498566962 3.6928594337156357 4.4525551915621415 1.406882453044661 -0.06768763315496085 1.324978419180002
P 5.805026274281842 2.4829634674551575 12.234656855443538 -0.14280241201192825 -0.07664844189267445 0.43842476817278686
P 7.329485830304749 4.2279497765507035 2.09456269685601 0.9817569730839415 -0.6814459531981619 -1.2599572771136107
P 8.104495844026777 8.622184874899727 10.264911860287098 1.067824651407987 -0.8230929114494083 0.1756199727625814
Ni 2.8223991856022557 6.789411883885595 9.560912231998662 0.2944339922797123 -1.3056177552652029 2.0909187926778183
Ni 6.501978187667479 6.021138454013882 2.915413603435199 -0.5354661718995165 0.8172927598278633 0.8645406370712336
Ni 0.12344101562661808 6.361574564040659 12.998754337560628 -0.15038408101392808 0.34043951247554916 1.9251811120259557
Ni 7.591248920215884 2.4893421129265025 7.896952158412792 0.6931336739487354 0.7850724663415769 -0.5168485567983292
Ni 7.821504254870719 6.849325261780476 5.0134684939629315 0.41790993604888665 -1.706968758514144 0.4767018093761145
Ni 2.394736245993226 4.190237756058965 1.6561560991336615 0.20127135478209854 0.8753117595448087 2.2441657970618385
Ni 3.3174004299929547 4.187594518798897 9.43839176045949 0.6491058463045595 1.1945880076791815 -1.9139363923500714
Ni 0.24695545451046028 1.3485190758996135 8.452868090368765 1.5932936028854752 0.7849202570344288 -0.37655245614802246
Ni 3.8541060844869524 7.778634250558987 2.180263240478716 0.34103857951212874 -0.4998437947102166 -0.005728417843344973
Ni 8.898522481369849 3.883200050162009 9.60494507714668 -0.006049034407557324 -0.770106589060364 -0.6669053363798257
Ni 4.720372029031404 7.654172651656953 4.54494551170868 0.14167395483443987 0.1469503727420308 -1.591739371024478
Ni 0.5417966395917752 8.309062216560323 8.47688575559749 -0.6459205065980423 -1.973507567045485 -0.03393779039802543
Ni 3.0960568431836974 5.806439671983408 5.041261032403691 1.0295648365958396 -0.324623371378899 1.1225606094982858
Ni 2.1606170124269726 6.6822231062455355 1.1140088634886411 -0.7381071533356319 -0.7579139036489141 -0.33269046465774965
Ni 7.557648602128697 3.7778009644167874 4.473362424868741 -0.9470799905270464 0.9547218233430202 2.728476529133462
Ni 2.577844671603024 1.967761649420673 12.962055558018585 -1.0843301052621777 -0.17239143852295472 -0.3582405452127121
Ni 1.4347638694164933 8.966365571044934 2.0825267894155464 0.7149471702794009 -0.2961406905581739 -0.9593991742140315
Ni 8.73982728878707 2.6569123417262466 11.613537399909687 0.3812570607125434 -0.13555601486216007 1.364129635458167
Ni 7.435967909094027 2.1095419591204454 3.206703856239012 -0.12058833780873424 -2.2308456829141647 -0.8298184030986999
Ni 7.316287999818714 0.2924292310815026 12.418511444904874 -0.3467240599326803 0.8245255301308766 0.5084927286344663
Ni 4.469558182353817 4.90353552208412 7.090044328380463 -0.21157170826684207 0.24774944373897975 0.7821483507162464
Ni 0.365162309687714 0.09843672537894463 11.7337211762877 -0.3238337855980681 0.34976696052406214 0.3879648117500221
Ni 4.374952315420541 3.4640633862981307 5.008041597463353 0.33091280393203654 0.15632461486807914 2.1352099012857093
Ni 0.7736782993941239 5.636005936151923 8.521550040757635 -0.5311084091514531 0.24466000618037864 -0.33407937458547626
Ni 0.9389182575677172 6.402452962500187 5.847859566964964 -0.6192597094774044 -0.52557976602374 -0.15091347115483686
P 1.999333650027044 2.0016648384439097 1.6313326136569024 -0.15241319562881492 -0.7881202520289653 -0.580015162154485
Ni 3.09396428035281 4.8473024849575985 13.09383194892157 0.6870938955125586 1.0940061948993611 -1.1485135819186219
P 1.7032543652707874 3.0845110359852046 8.518003697433711 -0.6729201751153379 -0.5695541147221611 0.08935971881175578
Ni 3.7830507273083116 1.1204847947758083 10.820424882119054 0.15798811861343112 -0.8565892434346409 0.3822528489669094
P 8.890299076560748 2.015541834059268 5.581890242205602 -1.6713360969121989 1.3674723266781545 -0.8390751458102774
P 3.9171950182567756 1.3181677369445937 5.439422507260069 0.5823227272417391 0.704016125189194 0.7381372352426191
P 5.6709003391476855 4.150699332043778 8.910618045206808 -0.05252403804064503 0.5869759097430343 -0.893787449751493
Ni 2.1455836005103346 8.691478073904989 10.419858795588585 -0.615323864758108 1.0337953297374196 0.09376556118893528
Ni 5.300810411109518 0.774783319415347 3.5916335423528896 1.4558871650781378 0.10480819215634207 1.6003366257751857
Ni 4.423833848917497 7.714948752824217 6.739098596872768 -0.3722317172854815 0.3416258194741665 1.819948944958317
Ni 6.043817062588982 9.044230935331111 10.256476445822761 -1.7550069928692937 0.4237756508010444 0.06418476220802494
Ni 6.148151511104453 8.470483247567547 1.552965217849455 -0.4105275275418865 -1.485197998227113 0.5031000968639852
Ni 8.901707215151946 4.271434700641687 6.520708460585351 0.34070562165274226 -0.09834906679455965 0.35468265265812465
Ni 1.636687004689971 1.912914476274257 6.426114524931374 1.021577447514989 0.06205048947384152 -0.2562880773376102
Ni 2.5303765358076316 0.3645262807220101 8.127673730750999 0.6588819518547168 0.2952490319818399 -0.18598948892236356
Ni 6.400029995011791 6.210671414630791 7.121772353408434 0.552406399298281 0.780413627413327 -0.06295371801440125
Ni 7.052570015683989 8.111122292991253 8.374514461422047 1.62050718718579 -1.152078930672377 -0.6170210499548728
Ni 2.986582766662537 0.14820759807902845 3.9487853746774526 -0.7235112577993281 -0.6412115311581473 -0.03235373374035719
Ni 6.590526635879765 3.938717210530595 6.695160284168425 -1.475994220240658 2.032704903341248 -0.30795362403270193
Ni 3.7026063711121373 3.302963582041262 11.369235278357161 0.942158641966029 -0.6209077866037886 1.6347994354387458
Ni 1.7106976479718823 6.844203989589094 3.609324876181041 1.4677214387089046 -1.1733239560940825 -1.5391795946498912
Ni 6.468836764937943 8.708080907944792 5.974571588700916 -1.3094170744066354 -0.5738015771446053 -1.1831471128320914
Ni 5.411541860910641 2.1395445376036504 9.62358999552803 0.29783967552715157 1.4849414021316167 0.28467537023105166
Ni 1.0466026421940395 4.007661649064042 13.25742997950549 -1.582957768177106 -0.7567558787850709 -0.4723365904288833
Ni 3.856721788025561 2.542959446514415 7.59464658144393 0.3867718198831855 -0.7621022306986488 -0.6868079888410236
Ni 7.7465666429663536 1.6264628161215129 9.923906720016832 -0.8270845491073046 -1.1657577137110504 1.3228536595275153
Ni 2.278773389114885 4.214100314656803 6.752128471657904 -1.1475188221055204 0.36279679712482676 -0.32061322177824136
Ni 8.929415316846898 6.893259903321958 2.084863484576704 0.006885157155607498 1.3227721555573024 -1.4347982056183224
Ni 0.41890905176648385 6.8613850317795375 10.76471957465383 -0.14263709007865757 1.2122658845749186 -1.7583360572425264
Ni 0.32931248655732304 8.35740225353525 4.057604148627887 -1.7087572178731347 0.8799626280532588 0.28955326714864327
Ni 0.1970882137852698 3.0843458336564504 2.272721477138187 -0.6892536221680388 2.4218146273289904 -1.1258320811607063
Ni 5.442618254530749 3.5765661721797857 2.9109265246280907 0.42145882974240967 -0.314945996190135 -0.3154465899756374
P -0.12247366421269032 8.469060671958829 0.4276032832125347 0.5712790678330678 -0.3562371416294381 -1.4313722106559092
Ni 8.982500331819935 1.5975891202181283 0.5443407554545908 0.5610172808957434 0.029096146035007958 -1.3045450910263146
P 8.622542813278695 5.04798660276542 11.482634745767667 -0.5331989731318946 -0.9941671738228361 -0.42982134277449197
Ni 4.811407690082158 5.378271947480963 1.290654206881286 -0.688246521059763 0.8137682916143727 -0.702498402993087
P 4.169348839378704 8.507204054086758 9.029806936449434 0.7902264997386906 -0.1331414918833965 0.1579976316951279
P 6.872270029663013 8.10179753932379 3.7070218622434528 -0.9844790000007949 1.8563683641276159 -1.0038057253538648
P 4.748217799333651 7.288745100452518 0.008769490284705615 0.4224229934278918 -0.17364382287281707 0.21626911374251143
Ni 4.205161033089767 8.125852833971841 11.46533347299352 0.12567577963397064 -1.0572175653161018 0.27339208400774856
