# total energy = -340863.8045394223 ev
CRYSTAL
PRIMVEC
9.31014832447867 0.00000000000000 0.00000000000000
0.00000000000000 9.31014832447867 0.00000000000000
0.00000000000000 0.00000000000000 13.62634315709107
PRIMCOORD
 96 1
Ni 1.976786598348239 7.584074928997253 10.526390963741509 2.0584079645343065 -1.8020568951692448 1.376465017095068
Ni 5.95926780625329 3.894127898285292 10.687099954749241 -0.02787924290877134 -2.2952045088062083 2.23211580787584
Ni 1.103392253907866 5.011122279206274 1.6548100074205314 -0.09985958990181512 0.05203887087411037 -0.4813773604749129
Ni 3.0241410682096013 0.031141515842690135 6.884423783516947 -0.6057413632759955 -0.8149353153392803 -0.06413102615195407
Ni 3.033013639765726 1.1637499468757155 10.508417721990092 -1.6614787445021448 1.194073529936608 -0.08161838430344008
Ni 3.8416559011286058 0.9574929161785477 0.8483463208153997 0.4932082916715699 -0.970061024803252 2.2789960173671457
Ni 6.794108825600363 1.8362871467706026 12.294204761064226 2.969799757631124 1.1339238570299053 -1.6476171560287043
Ni 1.4013635578467871 4.262968052890768 5.733243468181551 0.3588650661705884 -2.8586519964099995 -0.7710941497846139
Ni 6.202271993227506 4.214369077525632 3.691499032473142 0.11838593084077678 -2.3503603280427456 -0.33553950407077054
Ni 2.3022042201753634 8.537434139225203 4.282446745660679 1.0170880442850678 -1.1034107760427125 -0.18166797872887422
Ni 3.327307435032382 9.081770593760334 12.382816892813322 0.35408975626913214 -0.10865687647847094 -0.1820569866371768
Ni 4.146637746916175 5.237917497576907 3.864008636752007 -1.3737442757297953 0.7951337072323209 -0.5068863033792949
Ni 2.814234459285779 3.3947873916313287 1.470882436975421 2.4126291041749806 -0.43543534652715976 -1.0909545525572308
Ni 4.026434419150032 4.884746322959847 13.271745220088318 -0.014387121959607481 -0.24550667045139007 3.2471099457463564
Ni 0.5428244864126613 0.6563840921825285 7.479840368002428 -0.7599797850390073 -1.8786364314971968 -1.2658471602354844
Ni 8.502902798300052 2.9416066014257067 10.544037419279263 -0.3969623872629422 -1.1808446899511598 0.44983249578909623
Ni 5.298256570247682 7.4972671040347 13.297226165620279 -3.066725718825912 0.17241612111330304 -1.2323148328059939
Ni 1.861843504505717 3.5117973384491497 3.5504940398299256 1.117227884431463 -0.3348558477401846 0.2040507172994486
Ni 8.749267948896263 5.102678279922892 11.535013353657652 -0.3132387836910412 0.9579387876184213 1.1471431839336566
Ni 6.5073748709460615 6.429365136351335 6.835218717482028 -0.43307687359731223 0.624919221756027 -0.2571085163563766
Ni 0.9142798617422876 7.456553824480727 2.07184507694462 1.0012683036439918 -0.22004220763169846 1.1469930315090375
Ni 9.191034496995055 8.942164916442287 3.670977603067044 0.6761656786358291 1.1078631553871114 0.8717127293396407
Ni 5.787365223659063 2.5257967474491374 5.64236897033787 0.6967787269004903 0.8375196283976994 -0.09467110372234018
Ni 6.983821722346602 6.302114026142394 3.731001992717255 1.1903747409287821 -0.15042856109861835 -0.5537004355193561
P 1.2917365588191105 2.456817856935672 10.840083384500653 -0.29472324138535694 -0.7819637455092663 -0.5269470786849119
P 4.034618039714392 -0.1543641247795064 3.0447248756108998 -0.11266445497596726 1.4734017769231333 0.1947834330649097
P 6.984222058733709 4.63189199883308 5.733856075955311 1.4459328820789032 -0.7578763655427594 -0.36463205056135267
P 4.13307286049721 8.912726226767084 9.711536040259633 0.22528648674977328 -1.574987862597752 -1.7089166262691344
P 8.426177864203483 6.036849274015297 1.9216956564079868 -0.6112100997000506 0.8394150456481995 1.1208238293128374
P 4.295358059652321 3.3106888198931546 11.86641926302402 -0.7394096741971394 -1.2095261170462523 0.7806152019011717
P 4.673387330864193 4.500460631930854 1.837089681574525 0.7779317415317376 -0.2857608899857466 -0.5757795268065826
P 3.868543610104566 3.134857354616152 4.567782316004665 0.7858175720377176 0.3695883661253635 -2.6753372261063215
Ni 1.3804343439347517 7.92335536199654 8.273602218958008 0.10494368929294184 -1.017242567585061 -1.2231848454802676
Ni 0.7052148902462452 9.234540821110242 10.113976520936523 1.1926828202366686 2.826390822383448 -1.2496731215787833
Ni 7.23101547616264 8.383649105684722 13.03523299968922 2.4042442225453953 1.09215268663039 -0.824515759938864
Ni 8.311150979024125 7.944796634078131 6.683271507262827 0.7374067848344978 -0.15152385104532615 0.7783721715032659
Ni 1.7550002398907176 5.446390343625973 12.41444346739481 0.24617412883205994 0.4734321374859072 -0.3106306566442327
Ni 4.819147016365451 0.3110604417676271 5.272495389244745 -0.6983769246255457 1.1687427644813033 -0.07946508540586314
Ni 3.2992466473407114 7.441601725929691 1.8978495729591895 0.5602847736050931 -0.46589134902417184 -0.24065319901383073
Ni 8.044340742239823 0.2702726810253551 10.786681303505082 -3.449194283348053 -0.3221507414686903 -0.35995804212445104
Ni 0.7375108645075706 2.585372387939847 1.5520268985826844 -2.2050333498367505 -0.32511959428902715 -0.0460883097176303
Ni 3.4425577637766374 2.480707698082595 6.366677113204579 -1.4522169153154023 0.527861362969065 2.1498176238965554
Ni 5.99049404444767 8.35623071824213 8.397452331906244 0.3012630993864037 0.7463087153098179 0.24969962548681515
Ni 7.572232420057703 4.090655823760896 1.5898400668672625 -0.2565392741164679 1.668542593327462 -0.5409853019455328
Ni 3.740398725636035 3.3850675965583017 9.623196695862683 0.012877884403932663 0.0685533235893658 0.8769387536252703
Ni 5.2998299853505 1.860158367620451 2.796085255727006 -1.278924562244733 1.0495271386503795 0.33755036385321224
Ni 6.9857675433909145 5.719820096020354 13.43113217000374 0.1262301094755439 -0.3530564299086113 -0.9128794333859375
Ni 9.070030496454695 4.474913584344276 3.9529615199375727 -1.295038951308092 0.3890408184230203 -0.23313632181149527
Ni 7.52917298307231 4.8961698752152145 9.515874889612862 2.3924911957745247 -0.8147663938615839 -0.550636966102684
Ni 5.71051925763151 7.9122297344943675 10.967053328223765 -0.3212449418249694 1.9794162192204363 -1.2631205053329408
Ni 2.7294283162587636 4.505171567090769 7.783326072920041 -0.15368640591428367 0.7019299320841266 0.14344467358161747
Ni 0.20592745143894464 0.9715046897273081 12.50740250749601 -0.3903029729648955 -0.9937835652311723 -0.6774139492206334
Ni 7.059224615350862 0.48782199088351413 6.248672842522966 -0.7038428328361234 0.173163797912605 0.5982674234964535
Ni 0.24731944082129273 3.9565989949711278 8.611808260816082 1.953414395840036 -0.7760445518113539 0.09440268055230194
Ni 5.980290121650699 8.91415998964184 2.1387906310175215 0.08103088723108626 -0.4421947767381804 -1.0141467022685566
Ni 0.30421003447382117 5.725257222766185 7.033155268431337 -2.359836128743665 0.8095984765073994 1.367265095763355
P 5.645273736681534 0.623185033513077 -0.1591076454593027 0.08250078690839341 -1.5036058113103394 0.7965660688034734
P 2.083862616676673 5.899962160070164 3.4117914469200037 -0.6035312429985541 0.5383794888915696 0.31925953596382434
P 8.08350853713659 2.7716684601728674 3.1309796777503323 0.02515875865381474 -1.694336157351798 0.2301654121086294
P 7.175657332959364 8.302334268359225 4.181966036556127 0.15700621431613607 -1.5153089586798805 1.1852849851107008
P 9.271632452883173 7.821316134026829 11.708599211107439 -0.19272269388113905 -0.3149891907232446 0.1992959762232826
P 4.209676762662792 7.135279218752738 6.300126309429662 -0.28074183950460035 0.20191695878589744 1.0040571792430386
P 5.240142623077341 3.422485083530041 7.982979415259644 0.30123353170004896 0.3126530863909003 -0.2156589909623383
P 2.516244535049783 5.53673602503273 9.794029542389962 -0.7810648878440807 -0.4590578710421062 -0.628718026676827
Ni 8.511887091638625 2.2672911631601798 5.387801578880226 -1.3864812636804895 0.2990169836647044 -1.8460492415897949
Ni 1.9496288950646952 1.9847560854962385 8.542981125723776 0.6318642856152924 1.100168614956331 0.12000701138396751
Ni 5.577291032061567 6.484555696880938 1.521394647864989 0.04688355192541603 -1.7103050219762286 2.8143539458235725
Ni 7.632301498420894 3.1545948695154022 7.693937474782925 -1.2337356244129205 -0.5441883822638628 -0.717858430388925
Ni 7.138323637324461 0.934003411418732 3.9041651694234445 0.11560708254405898 2.5969440336083984 -0.7881207662495975
Ni 4.882446716271113 4.9375814159094915 6.136433415815699 -1.8290228822351273 -1.016310285578779 0.6151467157502954
Ni 6.337622932663971 1.713253533849095 9.422426135698593 0.8923715432405728 0.7382534491055093 0.2593294352670953
Ni 5.4792924085570816 5.356491549349009 9.140782970264533 -2.499513879083682 1.3579651585186676 -2.074284269444931
Ni 1.7039247650146379 1.5542734374247547 5.102125257099771 -0.6261327824481538 -0.3202213856564614 0.48043273717345647
Ni 0.6464669219605089 3.2317760008903016 12.756232985424921 0.3073414443699997 1.7150733898991495 0.33920641139939645
Ni 2.5414191766948653 1.9291465682824538 13.02538100050696 -0.5936618064036421 0.9986987431446027 -1.388003870972603
Ni 0.03775265231908532 6.539597295033943 0.09234177725317284 -0.3327817388199753 1.0427628233433526 -2.128578254901805
Ni 4.098774273285493 5.857656845116299 11.359764703679089 -0.6302452619546307 1.035040000777798 -2.358051526039416
Ni 7.534414596698856 1.8461465940716903 1.117860224734958 0.4804728463827725 -1.9428283927940735 0.181463576027552
Ni 1.9406352915775835 0.9017754012417294 2.725405401075761 0.4522961268382404 0.21084100074840462 -0.882562270459635
Ni 5.604113569997766 2.959100370527448 0.2547582495026612 -1.8193015411823055 1.2294866193285794 0.892164055215457
Ni 3.83118198402405 6.8385368544207505 8.533851594068018 -0.9010772985446869 1.6721441946357913 -0.35095712417742136
Ni 5.134286234207305 0.8192213831459065 11.175141665138236 0.3671404188055032 0.6521903987671541 0.6736917631740398
Ni 4.849432929557556 1.3560883055094972 7.664709194464668 0.5506181970496066 -1.5521448965613074 0.8675280018343318
Ni 1.974635954036104 6.331264101212938 5.802642246394053 3.8565706668554673 2.175995053622872 -0.8894829088388682
Ni 0.16163348875749453 6.08581134517339 9.459598765763799 1.7879585080946496 1.7702382079967511 0.7479439369203957
Ni 9.295782978189143 6.734458703921354 4.624563049904452 -0.22128353623796726 0.09383986607029646 -0.30997425400715645
Ni 5.023011338888511 7.576477847790749 4.389767620895647 -0.008665903205114107 -1.2070935963453597 -1.2312120866601184
Ni 8.440282739237619 8.681508687841195 1.430983795418469 -0.5989083995145621 0.5264418569137191 -0.5177764679292374
P 7.5834139084510985 6.821294459329519 8.654567911018571 0.22423490555680736 0.6885247144218142 -0.6273931372178163
P 3.007708656041121 7.199193388461868 13.10115723046757 -0.04848097831952296 -2.2085290216948352 0.7754179739709484
P 6.247686897792857 6.058635021592771 11.281998894976041 2.172727181504878 -2.7082054375892524 0.9224508791244566
P 1.0065387786734779 8.29655266611751 5.899239692543663 -0.3939367130627409 0.7936712637541815 1.427141203293697
P 7.917955475844858 3.6320192865123677 13.033161491639651 -1.177973796161268 -0.14593555832427124 0.30381337661208324
P 0.9994165150423803 0.5397502753656178 0.7652169355399667 0.1664298216228811 -0.23593908136761302 1.1106324906021325
P 0.5306114335613233 2.6635310849111713 6.799068341726227 1.7215327723712481 1.3500225066328233 2.3247457127984346
P 7.884289978733682 0.7564747060633646 8.274106829008735 -0.9176670845825678 -0.2331854298818758 0.8428700940763355
