# total energy = -340872.99525126285 ev
CRYSTAL
PRIMVEC
9.20666705786439 0.00000000000000 0.00000000000000

0.00000000000000 9.20666705786439 0.00000000000000

0.00000000000000 0.00000000000000 13.47488786334863

PRIMCOORD
 96 1
Ni 2.33400973971875 1.6539961175953617 5.066180201821034 0.6086287121261196 -0.3802988105643322 0.8036522862262935
Ni 3.2604858341109018 6.471495040430533 6.3977818620883635 -0.35545449782714267 0.021233455457479563 0.4492902501323811
Ni 0.912304272070026 2.3759737273392587 10.579268585800298 -0.13421595589449786 0.5512452891106442 -0.08957646280825217
Ni 1.4929070672671378 0.9722884687668011 8.353325781204578 1.0533812222891472 -0.456182349266524 0.9578436568014537
Ni 4.804489902539475 0.7416771148583342 4.702088750211895 0.30070568422103694 0.3939770793823731 1.9441648522173096
Ni 0.2583031665379023 6.4463055998579755 3.4137280422607668 -0.6369057046939417 -0.27893589664411317 1.010876001937085
Ni 8.9325475763703 4.925769325296159 9.694049407012583 0.48046539018360485 -0.6414059065571405 -0.3154792429857857
Ni 5.514130578669621 5.047923381406057 2.0732327417912844 0.4468777840361465 -0.24548790139831267 1.4521603510458538
Ni 6.610911596932806 4.780092235318249 8.67615663454253 0.0729401398031518 -0.4912072020811411 0.936720244559277
Ni 6.5406371086687995 3.4253219978576306 12.800712092293749 -0.4328796699848416 1.1413731142190988 -0.23331578481215304
Ni 5.3366260413016064 7.671482794372943 6.088695641729495 -0.31290556872133857 -0.6826008927382116 -0.6348020280873776
Ni 7.466082056370846 8.917651189365039 0.2085724347408552 0.3745536805504388 1.056420009115471 -0.4580212022474757
Ni 3.8795789415162325 8.924022202843187 1.672004358004689 0.9215952159923805 -0.044482141572775004 -0.8462372107763555
Ni 1.4876316471472275 7.956917087527535 0.0536997258872624 -0.6453548639025595 -0.9314826503094217 -0.16993114990792027
Ni 8.609135782352478 6.097354511926311 7.464898999677288 0.9506800491734788 -1.7987728251013344 1.3916589512266873
Ni 3.953223069856832 7.8786972457495965 8.278337479500093 0.2444005818714049 -0.1423619820404 0.15175242211636444
Ni 0.38140827133608357 9.080710466404712 4.105232505312009 1.272990456148485 0.6149186588998893 0.3904999194670501
Ni 7.215743577347315 2.2141113169934568 1.1612856883960447 0.8696717876502118 -1.2307729422401708 1.0063022665234735
Ni 5.906748887593841 5.970330129039045 13.395062282470008 -1.1579379605563154 -1.2171224413362716 -1.327270300537972
Ni 2.919167073019387 3.038964222409045 3.212615769689481 1.0709652539194974 -0.13209222468327575 -0.7475168766853062
Ni 5.3543028417034 6.543113702058426 9.937217733873137 -0.4625982800951969 -0.7517142025961054 -0.9209431842306784
Ni 4.865576137261299 3.175038758835355 7.090674690504496 0.6189200667497986 0.04096230134497462 0.7942852431890965
Ni 1.5962334896157493 4.682888246442134 4.152920277729287 -1.12627945311077 0.14345187267046908 0.9585242278082459
Ni 0.3880794221543856 1.9508282643423616 6.683139739907888 -0.825179875885424 0.30193132909802195 -2.107565400095564
P 8.721024404895708 7.495801177046363 1.6288444243569964 -0.6961251524768914 0.774435298342705 -0.9214232091908906
P 2.6506178069152573 6.01531390339486 2.7673776769025444 1.4423711328695739 0.9179103109416257 1.4319193414086306
P 0.3730182358120446 8.820631333826443 9.770546681418036 -0.2762400949795049 -0.9286904322762651 0.1364211910759328
P 3.071307243144202 6.904364896936339 10.328541585434603 -0.5300845958726291 -0.31672751357059 -0.6493809543428171
P 1.0766092111380134 6.2828688494763885 6.015217233392662 0.24056989527140502 0.04968142638552734 -0.6957448863193373
P 7.417341961929649 1.0463008637824374 11.855758217481599 -1.183504239061194 0.42656401217945894 1.5047831194478924
P 3.149757251594039 2.5258950907469746 10.535435644803975 0.2893704617138758 -0.46157292415447604 -0.9655536238512017
P 6.927759037468088 7.467352576399726 7.7588669523591856 -1.8591204729514563 -0.5069233272648173 -1.4967419943109705
Ni 5.425553236656256 1.2217799344377465 -0.17970677208473818 0.5289054879628633 -1.743820637235171 -0.5039637304158612
Ni 8.442559558566197 9.122149674013293 7.840148010873372 1.2280781690168268 -0.49935322822704326 0.549323389497583
Ni 7.692022868173152 3.2422566336965515 10.80548559760888 -0.3717493783324243 -0.397363993576735 -0.503217853388772
Ni 5.560716313061849 1.6082942232232234 10.662044807015135 0.5437456382994894 0.6748996674392118 0.022455500790038746
Ni 7.970008967825113 5.429226696739754 1.6987386772790274 0.012971472559003468 -0.6177684696438587 -0.687414512076771
Ni 6.483472914036123 7.8465475650188345 11.388368884191163 1.3367499578936333 0.6702040617357554 2.177008325378735
Ni 6.640842470946469 2.75878693604061 5.326919452414308 -0.20189047642333616 -0.5130703207028197 0.7672943164225495
Ni 9.004138617997567 2.3721345472519944 12.8788122474023 -1.9498112518698096 0.20634439842963173 0.08330502797724362
Ni 2.2307293507045185 0.2874652838674244 10.57273369365176 0.3053460112065257 0.31927496258279203 -0.027457581990320452
Ni 8.141437105055012 3.837974013903885 7.140746989642641 -0.08961117270092954 -0.7982964212310187 -0.3181066533063038
Ni 3.423996237827496 4.46464420814811 1.1080564231861425 1.1257467205357514 -1.817511024940786 -0.4207193804732238
Ni 6.443083266451398 0.27128364616628214 6.9096532063898755 -1.6336205846392962 2.2013299328432345 -0.3361190307233244
Ni 8.76832825930426 4.759855981524946 12.549648127920396 1.1710541862232995 -1.5621981670322516 -0.32209674830230334
Ni 7.932749586978208 6.724135186173047 12.892219916373724 1.459550215752022 2.0320590422271323 0.5982810503432083
Ni 1.841176861849983 3.7872821060849904 12.745222590365806 0.346783452415706 -1.5592156873651597 0.7255223746920859
Ni 1.266911015463577 4.813981976088564 1.6709805766480854 -1.2412715277786495 0.7066031691900798 -0.847126041139212
Ni 9.526690616541849 0.66537225979059 1.56074270947571 -0.21938837609778344 0.8493467029396147 -0.7106706543912341
Ni 5.298694573772757 2.2949274388304084 2.9602306486194294 0.2644407883517317 0.6435232100104594 0.4111674751187306
Ni 8.217254006778331 7.221654257481665 5.703543018974969 -0.8032511941331327 1.653992720537745 -2.0506738291148423
Ni 8.141197731716238 7.111082188301692 9.428284236971736 -0.2832296389234606 0.9042397554330684 2.2542314088279563
Ni 2.9792405743848587 8.507917686718455 4.570062385210933 -1.0754597993557413 -0.47959018666750314 0.5099734269450508
Ni 4.327455665029811 8.561933201279562 10.834254590262802 0.13937538860825027 -0.2630721901389792 -0.19136206608818657
Ni 2.780680389871582 3.218669153160408 8.516870249588614 1.159616376700003 -0.2360720074010515 0.3503020070919257
Ni 1.5323852548311445 8.074541463534473 2.3944340150921946 2.3426133371074753 -1.0639394574209675 -0.25442402754567794
P 4.8504035502497596 7.971408381190256 12.954312439785088 1.1315425012819222 -0.5086529083614143 0.7375633650170201
P 6.504418081178873 5.617668754356378 4.378974331534166 0.319852689463133 0.7565579038416519 -1.9488545443834953
P 2.500144043494986 0.8116965784498779 2.8359783931285065 -1.662770723840691 0.9184026771970117 1.2140736272076187
P 1.6774823247958701 5.876099893563857 12.789527833372865 0.5484764681162555 0.34670554798991904 1.466626662982829
P 6.484301514054956 2.2350656908030837 8.452877470134057 -0.30108440771669437 0.03222003637597031 0.1065539712028552
P 4.421566213835613 3.060848469573141 4.914561129041396 -0.10982415731369474 -0.1274953493412127 0.01904416111564462
P 1.636954577208007 1.5491321818784691 13.001407302855554 -0.040838888393232894 -1.4578064935880377 -0.6287949026613493
P 5.705960689696589 0.19186141369434673 2.8644509311090216 1.4888800750643907 -1.8020563809486125 -0.2906405866755511
Ni 4.232995262882725 2.9793786743879975 12.220994978450102 -0.6003091365168306 0.11768813344280377 1.404633251999168
Ni 4.301538897774057 5.448091157168544 4.4666291655265615 -0.35683852265886284 -1.2164927781720727 -0.14198660097885227
Ni 3.213412146374249 9.326998012002832 12.710376276907082 0.07743365679813116 0.34525493158632153 0.36406897896903107
Ni 6.1415649262645475 8.829617040697354 9.342179805681248 0.29088612702745387 0.1967518696451902 -1.549348821873409
Ni 1.6914672517804143 5.185194784526238 7.87153077625337 -0.07394698380111137 -1.409871617579972 0.3325549675211499
Ni 0.1990591858579522 0.032807957412392126 12.042264113054214 -0.4158538248508064 0.3163852997398228 -0.7959909130262937
Ni 1.064898330871825 8.64640436986626 6.4056784202678525 1.1352302345461545 -0.6184451839959091 -0.6503014092745576
Ni 3.179945912280228 1.8340877283555137 0.8734392485199566 0.6433761429096339 1.6035787868615674 1.4485178691972602
Ni 2.797933683597083 4.055260558842812 5.982876974657568 0.4365028685597257 -0.49685771549869906 0.6962274823827106
Ni 4.058317172245623 0.9549431083725407 8.9093799198437 -0.3577679764516677 1.2294238844114438 -0.7127673890192627
Ni 3.8836759082760235 5.3332840212256425 12.2577949466199 -1.0116542748640063 0.9797558834935126 -0.2160361717960989
Ni 0.6690871498750296 2.3545682268527113 3.423537745817075 -0.7061167164719645 0.5031785155104043 -0.2595893737967013
Ni 6.232278214993129 5.301373713833653 6.4207027799426895 -0.45687706134070355 0.38502038440971753 0.4182701476017829
Ni 1.615484630053328 7.324529553153356 8.389667257363953 -0.862229986660186 1.5438314915996056 1.310736564549007
Ni 7.9804125013949205 1.135034719132693 9.833420850847167 0.46894607669009564 -0.1366327928661066 -0.8529333918496085
Ni 7.444409562544897 3.411843437551263 3.194087352601663 0.9243259846599823 2.88312632740228 0.011199468260245229
Ni 7.737338082536501 1.2132913875781353 3.5553891841473937 -1.3938212489853286 -0.8051679515398714 0.07380994400261483
Ni 6.315819510225357 7.430424635560352 1.566414936937973 -0.2267936674229191 0.7972530675681689 0.42395742779454726
Ni 1.9379113107154258 4.821476202925574 10.627873342238418 1.2172340272134714 0.1963183816521974 -0.9121361274620098
Ni 7.586891939116858 8.041728902788643 3.567974697766796 -1.5545738177177741 -0.646867443892344 -0.8033704933198165
Ni 3.6127973554522823 6.685522425295378 0.8844264847696967 0.04733760874369912 0.871465389215525 -0.45476181476991356
Ni 4.681682173081387 7.411155081789023 3.324955518909632 0.3981191265752047 -0.3676189011038185 0.20002719796235227
Ni 0.8133500958207956 6.865687689390538 11.177352079394748 -0.36994549235446605 1.3193196782323278 -1.0453280129673672
Ni 4.966168179547759 4.323450764938781 10.39372018358278 -0.3034328533442129 -1.4175828701813007 -0.1853063468124099
P 4.378534252857496 5.199373051515177 8.202783888449424 -0.16302208149291278 -0.21173034533189342 -0.5761585074125561
P 9.150533827991799 3.2494102138591527 1.4479168482445093 -1.6118837071828371 -0.6924736717672332 0.44111157097633064
P 7.046893306842678 5.3144103541299765 11.195004021795977 -0.45689840149694216 0.7124372593733537 -0.4090841102271406
P 0.6266361295767838 3.161661471864622 8.504244226634958 -0.7527213037043811 0.8700361129681661 -0.13463453148915525
P 8.735847138565962 3.809516206590372 4.976127951774144 0.5251303371911472 -0.7112648363318073 -0.0011821932335592544
P 3.1380187513272224 0.28399989445532275 6.830676576594735 0.08691511392600516 -0.4217475646274221 -0.3059890441071633
P 5.190000664635475 3.036828275693828 1.0265976760012503 -0.7159007924419218 1.6853622359879619 -1.3971559697855165
P 8.167059258970738 0.3735954938251656 5.635050020751455 0.044922828654619405 0.33287481275441383 -0.4134884099424234
