# total energy = -340853.96695951687 ev
CRYSTAL
PRIMVEC
9.41464178145662 0.00000000000000 0.00000000000000

0.00000000000000 9.41464178145662 0.00000000000000

0.00000000000000 0.00000000000000 13.77927989373137

PRIMCOORD
 96 1
Ni 3.742856823890109 2.2229193631584034 1.9678738873744777 -1.4486232844268727 0.15787756117749585 -0.7677424597035616
Ni 3.4095031804621203 4.242312995870968 11.538259471003181 -1.1683663549784908 1.2393321446640915 1.3649143361429912
Ni 9.24353086756341 0.7003420368139205 10.277964655736994 2.160717558638511 1.1507208739825858 -0.42035711203779863
Ni 8.678379323806666 7.954798184715362 3.199921010826911 -0.8488502229191703 -2.6583219224952472 1.116170389701226
Ni 7.20292604645717 3.4880212946224636 6.455881736609221 -1.595660303345439 1.5311132727019887 -1.2927079891820705
Ni 8.16096942955917 3.3700652451842217 2.2630681039062193 -0.03890619014689429 -0.23636691293365097 -0.4422793660321867
Ni 6.147610582359408 1.5555436367214444 5.465138477498455 -0.7671917294064142 1.2646312855505124 -0.20686504681979212
Ni 1.1162941002388342 3.504412186319485 8.440002471658339 0.10512932294118667 -0.2922470119307225 1.555765009812398
Ni 8.225553873580747 0.06497797605657743 12.256670088715966 -2.348709165592568 -0.5795629051084148 -0.9942098541353136
Ni 2.930297903392401 7.3284514680518775 6.568513806004577 1.2059245157379233 0.12571254640917706 1.0044371882902765
Ni 4.047241613928245 8.13530511550628 11.57233576767025 -1.6611645556958359 0.9672502948273342 -1.5833709444551245
Ni 6.056853433617717 7.544969404437917 3.1252233583843463 1.508963476077827 -0.5616952807993746 1.413652938999275
Ni 5.970332873769569 7.927194454413428 12.875166876891813 2.5268853291181 0.5081032065055313 -2.4912290133670707
Ni 8.569178891415083 8.100922842974677 9.706207799163119 0.3673432788449287 -0.6669513591264127 -0.6475043061453946
Ni 5.476007681670891 6.3307818568322665 11.049550112848944 0.3739872665240075 -3.670646483953401 -1.9688986075185637
Ni 1.7307595387164256 7.641987290100067 3.413127817626597 -0.7191303551228131 -0.009470401384280463 -1.2301425077450234
Ni 1.9404706889468384 8.713938426586477 13.461171852646778 -1.993913641505663 -0.6532985442296685 -0.399973406175124
Ni 6.4306523790160695 1.9745328636509296 12.40131099939834 -0.4073074779426921 0.945149606273553 1.0463471982605013
Ni 5.618507702765729 1.1988134372430799 1.1452667194854818 0.7735081585427452 1.2009363184947124 -0.20258698826972854
Ni 7.768407102683411 6.916749174019286 11.563378677285101 1.260489238357681 -0.059400196335188025 0.7272414142657218
Ni 6.256246136231853 5.238344459385075 13.019380362828041 0.6189110678887341 -0.2626623562950702 -1.6763266081482548
Ni 3.025687055991033 2.1047467769544914 7.729212065168742 0.9666250025385095 0.16080939011231013 1.2357660245793878
Ni 0.9480732772391929 6.1590493723719755 12.516560339265709 -0.10641024653613933 -0.26747186186857164 1.176416221866161
Ni 7.86367386493623 6.0303982896380335 8.832174090891694 -0.8238277327329039 -0.8967537314686685 -0.2172322489867291
P 1.2382325432370074 7.953602525183184 11.227026470384681 0.37624855175435845 0.5913912652019105 -1.0955293164121067
P 7.68616079029675 6.096159563907816 1.499916283085017 1.9538499407155576 -1.68816962352977 2.0068349775530216
P 6.1579384446176695 4.584685866321212 9.127215790223268 -0.6007151137059976 1.1293709475519 -0.293741594198378
P 4.265058770908305 3.0002392787038143 6.077847143781524 3.643243152239784 1.051617702630821 0.25611427076390725
P 4.034833115791155 6.269520781431624 12.467657864399632 -1.30532773482861 -1.959638779483193 2.4325091309283593
P 3.189162899429906 8.370134530554415 4.767714038235889 0.3664994427873946 1.0506152295082358 0.07920437554530875
P 2.530938205003001 2.5647085258055373 9.944602539131218 0.479108104824762 -0.2801350591585369 0.22592052078934638
P 6.260143798013914 0.4154097800465402 3.2312002173600436 -2.251619425126406 -0.3219165139706972 0.07769950886500812
Ni 4.051817129933272 0.8492063558910602 3.9116340522311033 2.010607814331892 -0.4199701610120251 0.919562758943384
Ni 0.3688082436817582 6.753536940556012 1.2931274377269508 0.36828070305753347 -0.33451543368163034 -0.5326173895968117
Ni 0.280644828807114 0.05133333542677106 1.9645260406843794 0.2989830451029754 -0.39715187756592896 -2.305584823599268
Ni 4.232945427095244 5.146099797209651 7.042245410223838 -0.5955302270709486 -0.5710101304423972 0.016502111420081258
Ni 1.225023800531137 7.354699489907876 8.114466746935236 -1.21616753362217 -0.5269748465990537 0.17046825335831287
Ni 8.61169541462229 3.4014819054903445 12.595377839041195 0.07627254661049446 -0.3192225120783018 2.031025715866612
Ni 2.053069807095244 3.021940028480744 13.02271502901936 -1.2240219966695822 -1.447133587255224 -1.1792416071300982
Ni 8.225130214691392 2.540776505878008 8.093618022258008 1.3300928575884319 -1.4378686170135302 1.7941440680800713
Ni 0.8640758414431999 2.2103978893174854 1.3875732431986212 0.5331208115957915 1.4571477769581163 0.8605322872427889
Ni 5.997202261996621 6.836837692845067 0.870343168613049 -3.2357428415599947 -0.4769234384686173 1.9851307531067102
Ni 8.842391801838723 0.8074665406476691 5.949713866356791 -0.8301181937273059 1.1106008660332485 1.2342465026110678
Ni 0.78245842714118 8.039125132980853 5.537741372099212 0.25501281016961247 -0.07887398878908351 -0.6094136699212601
Ni 3.520916053720334 4.422565731328274 0.4309759491056183 -0.9806457422976338 0.029256582872272195 -0.2730023047684976
Ni 1.571294332763441 0.4913303944830418 6.7407415006333125 1.695713497315299 0.1918660023077986 -1.1059859929690565
Ni 8.202789269259439 0.6850620728712062 3.7941251982871793 0.9582149240979433 1.5369753879097205 -0.21577469060459614
Ni 5.936458991905191 2.587209520151247 8.355466518340767 -1.290613568546887 0.7509955792625259 -1.1731676330218763
Ni 8.62633518290998 5.410848944488189 6.0720326608911845 0.23967952224665173 1.1403305318871975 0.39044181253560495
Ni 8.414308030751096 2.860497747710772 10.386904302545577 -1.1738872847967203 1.1901014326627375 -0.3279791752250093
Ni 7.189773791603214 8.882272225289947 1.430798688947348 1.030521286971838 0.22677901213489976 -0.8262319712990221
Ni 8.200802779800465 8.064177495304675 6.647469701017252 1.5664456294546958 0.7137282102706353 6.018643453970292
Ni 6.797540977196953 1.1797111286541906 10.158292317064769 0.7981596385428382 -0.559218537124108 -1.40407326573064
Ni 1.0162258705733322 3.692705026032538 10.960012160244395 0.5744230127786881 0.25090495864882595 0.08687191939289556
Ni 4.80090253416371 9.262040053707203 7.176387112163814 -0.2334425401980044 0.4045571688910645 0.6270704637710749
Ni 2.39929326611762 2.5477245116634197 5.631067776638789 -2.826698326321538 -0.6143992960613096 -2.401629153520051
P 7.636620944168245 4.817152206230947 11.320229543114246 0.027514660480501 -0.24309163325199423 -0.6162422628073194
P 8.955565213148253 7.929359822070128 13.407969710785855 0.5423916953747562 -0.9087566694668155 0.23349679047470756
P 0.09977920015654244 9.331190599091823 8.069877119562788 -0.24985929099313095 0.026976014368211607 1.10829227250473
P 1.6936281907250117 5.616700091504484 2.8391378079737235 1.1135918303407726 0.8783878273669711 -0.8973340294521707
P 7.63964304424564 7.1633563061914725 5.059117919904207 0.3368939612161359 -4.824467851238182 -4.056762415420143
P 4.333832730613497 8.019241409107154 8.931164344049838 -0.3261115258886513 0.05712477003745 -0.9431893972233886
P 1.7457853073255272 2.81567463721708 3.53353073251691 -0.37226745561942337 -0.5261942596792873 -1.1512250673125142
P 7.836032476066354 1.3556707873660387 0.2042308871305643 0.4236057008820833 0.5915231627940845 1.0825519303158324
Ni 6.457681816156877 8.689272064584069 5.451785690770204 -2.908630385210655 1.971261708434102 -1.2103079895175994
Ni 6.036517806928707 6.937706167079349 7.102019913654945 -0.570481768742753 -0.3807513247207185 0.23049682730611915
Ni 2.9665160311112064 6.7183732527396005 0.6094643806548126 -0.22857209947958054 0.1292706960740806 -0.35746612894053276
Ni 3.5449892932776477 3.895844756156965 3.701101003755343 0.5844896529860709 1.1142474616469003 0.44917300782822644
Ni 4.288981376193848 9.07547950811951 13.601458491410789 -1.0630184882685951 1.810044798470728 1.892319071190612
Ni 4.380727062344033 1.4894905085501051 9.611985120706507 -0.8935473087162289 -1.866789816571256 1.156153357852067
Ni 2.1568003324931646 0.06126201686484034 8.988320635544737 1.0809727587541706 -0.09140297449402968 1.2944599388761706
Ni 3.818221032985259 6.18918564136805 4.523159298016575 -0.9773953536811362 1.5612250044857048 -1.4390274132083216
Ni 0.1307769088943038 3.2003757380348183 6.438699073521207 1.040620580189369 0.28551509252352764 -2.1098565101225857
Ni 5.8577431702631495 3.4095690829560197 3.350803829145775 0.6188354774557923 -1.0151962265789936 0.03808086603212151
Ni 2.909830471715592 6.834446373780711 10.05066224695639 -0.851934518271449 0.17220091977870342 -0.3948540826706877
Ni 5.6441249436086895 4.109321763181638 1.0239910672830987 1.3841970956320033 -1.3386831703606041 1.717623410014513
Ni 1.5906037634760146 5.721795739990325 5.318595809134978 0.9897021960729471 0.9288272149644454 0.3004030653789536
Ni 5.532053045411481 5.045156005839483 5.107428213789384 1.590661564579267 -1.1455958940511948 0.5635107367415585
Ni 0.4382581746815207 4.478516948649007 3.982336130614957 -1.632236045586944 -2.5548869565373487 0.07163093407342501
Ni 1.8032052087960229 0.7310638965415023 3.4909671360997745 -0.21057951955690185 -0.5879472725173681 0.6163039692831902
Ni 0.5362636562879661 5.9879100103567815 10.159615074263751 -0.2640260694118162 0.06535101460198423 -0.20808837770393193
Ni 3.811903808212886 4.843164862037306 9.390358799579055 0.7125110500340825 -0.8624981527199082 -1.338653088453617
Ni 0.5156794830505352 1.2662316885023384 13.028557755835655 0.419130181609233 0.1974021016346794 -0.19037347692267212
Ni 5.240538070967733 3.364623582116514 10.774584196087577 2.165572572737967 -0.03058301499317959 -0.4398399033527586
Ni 3.9220739487289933 7.858288689720436 2.45495827832199 0.6015121556859963 -0.19704754650873804 0.9371092524675797
Ni 6.1596236655331005 8.114216317458418 10.130526654920683 0.8729627996966578 2.143521763585515 -1.3842531456809193
Ni 7.613093753846099 5.168139474098063 3.7660149602464177 -0.8569085744472726 1.4884491581745591 -0.3211634378547566
Ni 2.7002511264729785 0.6691720401278217 11.661018870782502 -0.7228350576679099 1.368283252615224 -0.6092252080595378
P 3.9482372388071223 2.393437358802544 13.342132177915985 2.879764095798266 -0.7329528628282023 0.7579061903394302
P 2.831557138246876 -0.07555626779165675 1.5104569162521537 -0.9804084294758469 1.5859186505776428 0.45046704404930155
P 1.397424724572408 5.251572031374917 7.352775137086009 -0.2359514226627872 0.8541844906478901 0.2999636638486899
P 7.010434276418517 0.7222574404281228 7.903656907985098 -0.7958430745945198 -0.9786901612331597 -0.8717983470749116
P 5.415311484789388 0.32869527857348796 11.481433633441979 -0.4549122243048488 0.3078114420278828 0.5935759315580551
P 8.034869714803337 3.0059822103150626 4.535836113450257 -0.2315386383070722 -0.45838321357258477 -0.585787802972204
P 0.7910521123456838 4.285733324708798 0.19268947752035273 -1.1290079077855266 1.2526985386686682 0.8905146925374923
P 4.412275527637955 5.555156576844273 2.123538402357854 -0.1592343323157064 0.12379090390643195 0.8731803150241026
