# total energy = -381170.78666527773 ev
CRYSTAL
PRIMVEC
9.20181048043989 0.00000000000000 0.00000000000000
0.00000000000000 9.20181048043989 0.00000000000000
0.00000000000000 0.00000000000000 13.46777977138600
PRIMCOORD
 96 1
Ni 7.1538740494632815 0.4235814270318732 11.512905164844845 -0.4837201496754766 -0.09405532451521222 0.1551334227734554
Ni 2.1472057001629175 4.7371381145267994 7.3763296614839655 2.0276827675363083 0.04846683725213589 -0.13621781681587508
Ni 3.314694623966498 3.249996693520527 2.347434338638979 2.754437214863282 0.6625912823855041 -0.2393995291123877
Ni 5.221788277897421 2.5399757845258546 4.813505781196862 -1.3955706275762674 -0.3734668752441633 -1.4786956783322212
Ni 8.538948987109192 6.333771880061107 0.3925740857968017 -1.1951803898475417 0.6661679439931688 0.1085666307575098
Ni 8.166717344042715 8.097556535447648 9.573288631470282 -0.15213114561202185 -0.7383449803780511 1.8280875149050517
Ni 5.651669264477482 7.422125232561125 3.767584737993601 -0.3519837656697229 -1.1775431363817528 3.1573283089058335
Ni 1.5524926800060288 4.377862620808626 9.769366333177155 -1.0043744533731414 0.33826924429710775 -0.4907554592557032
Ni 5.22512853515128 1.4517788628063204 1.9578922494403777 -1.4178919167812871 -1.9352330969453186 0.0059245930145510875
Ni 3.625172915984347 0.04253536957566483 8.410359204827273 0.3160705967128815 -0.1712393271963825 0.039180783964519614
Ni 5.214969736230451 7.357031624258637 8.239844133013577 -0.5501263450148526 3.1999057772567276 1.8357797413429866
Ni 1.1818069411231553 6.915418329142291 4.060764546233128 1.0300829138828387 1.2186936424781334 2.2292559698295418
Ni 3.855954326251015 -0.19092468776152283 11.080319766124537 1.068912742265843 0.36204963454615713 0.47671775021571455
Ni 6.544410526887833 5.120062261529876 0.7581270547176836 -1.1537899998262129 -0.24147569491512608 -0.4498484366286962
Ni 0.9014286918135718 0.1844374112767541 11.163779268236885 -0.5430175018842132 0.03082212758717917 -1.7687353981989795
Ni 8.645450743186801 7.820609641317028 11.916049370497044 -1.0142222927014983 -0.856705457297531 0.8362415330162242
Ni 3.0487162880909775 6.9326349168061245 7.214864570411787 0.08682281132251499 -0.4476768828986742 0.7855830874294083
Ni 4.818960614530437 5.392592286564482 2.7482486458430295 -0.07006358958630515 0.02965561808290377 -0.10142924838178015
Ni 1.924291837973522 1.2830728669598654 2.0547928363205283 0.8637497657388222 -0.9369166768407994 -0.6971006290162832
Ni 5.700475667988424 1.818526226745249 9.364026575511813 -0.35801017436946087 -0.6992251315584539 -0.6905096060623269
Ni 2.1090733969673403 0.44485877372085314 12.96706177551452 0.4270831179077225 1.698566393383062 -0.10761635102909854
Ni 3.3554862504302996 6.718729627210472 12.71827150168992 0.1192847885059623 2.4302285624242987 -1.2303885623175586
Ni 3.646097833326708 6.1876931365211005 4.996815970673071 -0.34335051547475703 0.2684789629768473 -0.4192227413230393
Ni 3.2708848036204214 8.999177545103109 3.5843822097016074 0.8707717055826101 -0.25840255257745176 -0.5922564414156832
P 9.504182113557853 2.6432753105088542 8.155413839881168 -0.1403187263581261 -0.1777539883864487 0.10313954620466755
Ni 8.433238586744618 1.6792936303040624 10.011516580460746 0.537610471936029 -0.21697179623649082 -0.4802825847488373
P 5.58438562524822 4.794170936729065 5.124786471100486 0.3182732607911551 1.522177917885572 -2.1632200133453905
Ni 0.13259809098655062 4.877704973507408 8.028817169778826 -3.1672645941829387 -0.20788526055419035 -1.3164757810256293
P 2.74207515110029 5.398205391040665 3.251539837160947 -2.039020046925998 -0.9982416010025259 -0.7743869616032728
P 7.301977191338961 6.377489682301017 2.4459240782126326 0.0802217610662296 -0.13823201903242646 0.6043568242236431
P 5.436834592009543 0.400381822105066 3.9571033890928935 -1.0879124232967974 0.12591772044144767 0.5963192986311472
Ni 5.276124969588994 7.498095381012544 1.6326588540986608 -0.8604878071580987 -0.2953927566485558 -2.8370801837764947
Ni 1.1936864786293064 3.544988338270482 2.4778295161638932 -1.4688051586913866 0.8971504526864549 0.4698469912378102
Ni 5.478914471959682 6.65834734594373 6.296308548497363 0.9524301990953662 -1.0671520508209942 -2.3456526381544314
Ni 1.8706636856994334 8.671694307065609 6.333586923667712 -1.6683633874371202 0.48802597613968207 -0.014864832926974401
Ni 5.495652565471446 2.12849841917918 11.631568954014538 -0.9508826521025882 -0.07117173504881937 -0.275324525143771
Ni 6.460664848465307 8.691975097664802 5.754189397101246 -1.1791706446828465 -0.47730781839122954 0.6202989493751963
Ni 7.701805064444901 3.1108101061324245 11.840818127438144 -0.5700336254617409 0.389010222295401 -0.21676790775580085
Ni 7.871891331883861 5.8494713854939215 4.855848832930637 -0.36410754551645036 -0.0031843112652525803 0.29457000363694436
Ni 1.216350538178222 7.581031300100802 13.586565393653842 0.067841899344638 0.38622340357888324 -0.263085816985734
Ni 6.073195007017586 3.9969628721412236 9.78989097175769 -1.6717988954812304 2.704788698598219 3.1485711315384934
Ni 5.9743123501305995 3.4602028552482693 2.3933725377806967 0.3625831384521239 -0.013165076627048295 -0.13905220094087664
Ni 0.8713534939939714 2.681858502424649 11.31966898225641 0.6659146903317822 -0.36134489516964863 -0.3816272995677686
Ni 6.752021778021668 1.8745100425372112 0.22539835105590267 0.3028733812963171 -0.12895830703998434 0.30839071157012055
Ni 1.0314033465933032 0.1497208201820935 4.2458387228045575 -0.3650143736014359 0.8688652325885166 0.17946402909901996
Ni 3.8061633290040877 3.6028493234282495 9.887532304392483 0.022101202774413548 -0.6413151466155471 0.9650116353048026
Ni 2.6237398665696143 4.593424236315284 11.711567655153944 -0.6193563829562688 -0.413219729662069 1.018220615227614
Ni 8.217327302434528 8.209993459373022 4.416691501067887 0.9380451340182877 -2.266952713049367 -0.5438235427252763
Ni 0.6797892803945884 6.937751123509006 8.757073306872599 2.3304970134599157 -0.20821693286199627 0.2204085898321817
Ni 4.615941066894333 3.249518199368459 -0.044829380962406476 0.8081121217698599 0.5292890965545272 2.9437717089984785
Ni 7.078041928171112 1.816759479106844 3.8686463836346205 1.4894382615607058 -0.027635759439397563 -0.9762337292728672
Ni 7.559305825234788 3.399783766739061 8.630772935072113 2.6543441687944225 -1.2006046461869067 -3.0381738753301484
Ni 8.435916313634078 5.301613984997235 10.24871165272725 -0.21667251982851715 0.16709573734165414 -0.33619436404595004
Ni 2.4897983112330264 1.985732327461183 4.4691749481012595 0.7897251346222399 0.9458887984324225 -1.32367486987723
Ni 0.28956993793459845 5.869236874698578 2.432348647009825 -0.2838808993542143 -0.7285483060026033 -1.0365011587043569
Ni 0.1877997528760938 8.686536827590336 2.181780583374081 0.3511234745519566 -2.2185264992271794 -1.041976065775999
P 7.803521879001829 -0.5319566717510403 0.3181967707631314 -0.04932918525243117 0.9824277738987208 -0.008989605093120002
Ni -0.16007561766905853 1.4053097191920192 13.224498070594562 0.18630213506677593 -1.0032315980179496 -0.7482784374416791
P 0.7941217773070028 6.5517351681387215 6.350394950940164 0.8953941321169806 -0.5540853296626005 -0.20848587025266674
Ni 8.334033866486049 7.713822629110303 7.102328266931751 -0.100693141546704 -0.5508547385404449 -1.0777359969844278
P 3.325147880827062 2.4543069276844403 12.07103638689507 -1.3626245116675502 -1.0524288856782067 -1.8668250406845655
P 7.06722059888588 5.473273762051648 11.971227107678983 1.1808482894955858 -0.8584363239457087 0.05308633830201825
P 6.162986275015279 8.989469634902497 9.457034796501102 -1.3610471398781012 -1.819380216939041 1.3622581294670668
Ni 1.4620112762120834 4.574689349899697 5.005394818711014 -0.3541789735488287 0.012230737738237001 -0.38809028158429293
Ni 3.473232619081507 1.5949314305702185 6.589461671486102 -0.31124180786567046 0.27164501940965474 0.14902499588287238
Ni 6.177681566570138 7.41220568071633 12.037892385234802 -0.421705398535577 0.5072249176656362 1.5902712711193836
Ni 8.726463483856168 1.6189757617116378 2.031143262854565 -0.9857511818449991 0.6254882068856196 0.6766706432967056
Ni 3.451553153268578 6.002147827246097 9.891585701969134 -0.4908133090768322 1.6839332168509191 0.2785759422015331
Ni 0.8197129328130885 0.20843113245978187 8.50177827312306 0.2181966697825274 0.14777441130522292 -0.3206615585176736
Ni 1.2377355460514172 6.603927837956606 11.156493274590586 1.1513055428414622 0.23996234359439322 -0.35223419111763205
Ni 8.582234304250118 3.598294427172986 0.8390523781861929 -0.4148356679989371 0.6638045859673148 -0.26872090378432434
Ni 3.732806494767809 3.9000217972943596 5.859103840847476 -1.055550462026324 0.12416577074734746 0.6497491363155133
Ni 1.7558803000668008 3.0320150018216796 0.01805211206782894 0.25943150806259835 -1.3849558281748986 0.9752366554669204
Ni 6.9242428655237 5.747119646004442 7.967404285723013 1.5375245755449714 -0.7469394069152813 -0.3617393023945899
Ni 8.210048670236723 0.8014353763851507 5.591607206220201 1.6348611419146168 2.0154260616561417 1.7211897872095325
Ni 0.10919236550192951 4.727908698478257 12.447770475896295 0.4750179939157884 0.361861429794751 -1.304718126269069
Ni 5.986642776356969 1.5548391417132856 6.773862275520389 -0.4605398549042714 -3.261554403306461 0.5427148830421298
Ni 8.096645556196595 4.0091184639658755 3.2046179644643042 0.0986722544619333 -0.03623327130042146 0.44761697619501617
Ni 4.8997433099343874 5.002518332712236 11.6837165349604 1.2742945196718893 0.43044894905616193 0.43036615953436846
Ni 7.570145558141253 0.4445376305303305 8.11849893623018 0.05396462714191351 2.157015941417208 -2.3204126326407195
Ni 5.211785909757074 -0.06157023501735662 13.2486187767641 2.1135234174512116 1.00338432154573 -1.0428525548436816
Ni 7.011880909837087 -0.42505555709266746 2.598769833280155 0.9209508975401621 1.2496306983766219 -2.3933376029352202
Ni 4.609601019379431 5.1741505043348 8.09324732753585 -0.5198685745715756 -1.390907417772643 -0.6105971487064
Ni 4.063473559278683 8.706274711363143 5.847009901153956 1.3121092765268176 -0.5868165013470347 -0.24771499095661853
Ni 6.251415675041701 6.537131894690029 10.02261396406448 -0.0613524349655524 -0.7472880485039517 0.2925653145020897
Ni 6.135472861271366 3.5889821948288922 6.697540617903411 1.322369263691929 3.6346690374175274 1.212808901562582
Ni 8.543246232667189 3.3842879176605494 5.9997479950372625 -1.1551130895130106 0.5887605124472828 -0.3747619399065029
Ni 2.2199368112772615 2.16183657904346 8.881434857176147 0.4977576016051492 -0.1522815551469571 -0.21196765815368013
P 2.309001136236236 8.347680151630605 9.856933523548792 -1.2404027520204508 -1.315974930129811 -0.4734218530732621
Ni 1.8781907667838884 5.237320934218398 0.46133921653535087 0.007224799883213364 0.7163736183132823 1.6068564291715746
P 4.1633040026591885 5.299663201146496 0.4209690329977939 0.7964470267271058 -0.4609897979574964 1.5118220285725448
Ni 2.7927403203558034 7.250778317067679 1.8320492076275416 -0.016678746207261598 -0.30480196577759766 0.4577792614399987
P 3.5706429862698226 9.221134418988367 0.8576888052281819 -1.2455557569763 -0.6765770551416348 3.5362623779121547
P 0.22311906256614772 2.2497598794859646 3.990085438886307 -0.05159561268910468 0.33338620517319356 1.6568471592674048
P 4.430607399263513 2.9262861978358736 7.962178577473794 -0.6019240464124342 -0.2009409680258733 -0.4267028517501683
Ni 1.096331322304691 1.989707509647595 6.268416940337104 0.7750955576345232 -0.831198314165362 0.8329512923007267
