# total energy = -340894.2506821232 ev
CRYSTAL
PRIMVEC
9.03184201452279 0.00000000000000 0.00000000000000

0.00000000000000 9.03184201452279 0.00000000000000

0.00000000000000 0.00000000000000 13.21901374084112

PRIMCOORD
 96 1
Ni 6.1125429822552615 1.9103068530562446 11.299467564743466 0.9810887433723233 0.4840284249445148 0.16659308667362277
Ni 4.446267470154096 0.3686030227391159 6.193808787670395 1.108605947090407 -0.14524701689767888 -1.534770924059234
Ni 2.6972422209852946 1.6499911008445687 4.874788636385943 0.7217719065107183 -0.9395931952316978 -1.0057656772937131
Ni 3.482461538920582 4.639467603925518 4.828601602395932 -0.04998661633077198 -0.4968618292637572 0.18237863164265364
Ni 5.406704524294592 4.397052962701406 2.6897521143546257 -0.6868172448124042 0.7341062597063551 0.159087522325197
Ni 7.360725492981413 6.237868822852348 2.7654841101319794 0.13293888895428715 -0.6223254928869218 -0.24543030868749993
Ni 5.164172469123537 4.381238207232576 11.562948977601529 -0.49899173112256634 0.5302329485250352 0.34048527811182006
Ni 5.773090229804925 7.844913514642497 12.462608960068208 -0.7281603265355653 0.1920665483543789 -0.568986158033833
Ni 1.8386753135797753 6.466338299916623 0.49194547081709544 0.9413312609687272 -0.5577090424581169 -1.4412087371303566
Ni 2.5802437387789925 1.6064034310030053 0.4754018456930192 -0.09574453929217704 -1.0839315842721784 -0.23952474183634231
Ni 0.7308539509486893 8.722447290400126 4.481258632711117 -0.01997952844572043 0.8483491149130358 1.202255551526768
Ni 8.674397890574781 2.277758315931125 1.1425045393734374 -0.27765008795315405 0.634902558220984 1.3611080750230236
Ni 6.833265915951303 0.753630450286952 4.781436419909477 -0.9566293247783783 -0.29633532306748317 -0.012150519319604881
Ni 0.6927106755083886 7.233484901864972 2.3333149828870776 -0.8843476444948317 0.8581894980422252 1.0013963445814238
Ni 7.543737708895132 3.7716430583957554 3.931572595524955 0.06920689801296467 0.05979614622202605 -1.3938153354480576
Ni 7.432429287194463 3.7948548925219088 12.497479999125664 0.8668114353832815 -0.9791051372833912 -0.661751560093028
Ni 8.030716569756596 8.84973304072693 6.929829855468724 -0.5151038061930806 -0.1802101632364251 -0.12459771607844347
Ni 7.017750322122828 0.8305203282179919 0.25052704177357227 -0.9245951791609689 -1.0275033260811206 -0.26774439880366796
Ni 1.8199884323319104 6.411063426433332 9.231392494365954 0.5175083018695151 0.47598909957980606 -0.6313966019502545
Ni -0.08406025735234494 4.859257480758186 1.329211681878988 0.4164672900650892 -0.3541751168940868 0.844084683209727
Ni 6.366256457911989 1.899938298357091 6.880655088121154 0.019431626362050407 1.0085728077252047 0.43887496833632805
Ni 3.676492602162669 4.442591510430615 0.8454355122164084 -0.7146460940992144 0.7478778595691508 -0.9524831638204887
Ni 5.94465910181287 5.574209067369941 4.9462639249945575 0.35604610866455455 1.0991175479839974 -1.084380498884139
Ni 5.19435688532961 2.9723521305116156 9.188681816389625 0.7706094968387115 0.35169323101249755 -0.012903081214913261
P 9.266760284737398 5.5110764912836325 12.42740645240669 -0.30297982496719433 0.8392031867477094 -0.8581450179575351
P 3.949028436698347 6.0360342480596785 12.529907021718323 0.2790762788767194 0.09188917010182884 0.4450116773616852
P 2.336600767033029 8.351048912539591 1.534727635500381 1.2337618496651654 0.8950367487775618 -0.24127746286139093
P 6.3504146069169405 7.799663985859604 5.940994883484083 -0.561680111290723 -0.19204649374972088 -0.667877727595424
P 4.442871497534861 1.1937656622397406 12.434677085275 0.012453909492636616 -0.736781492545673 0.00020645958385125734
P 3.8089535979969775 6.045445427499155 8.216450079686739 0.7772059191093066 0.4188612442185625 0.1583719843154111
P 4.675739481688411 1.120129053823191 3.5129792300991274 0.22250558157052647 -0.21687049477193618 1.9776359873915617
P 0.3158155185625716 5.63949122186949 3.673775824067281 -1.485437882152061 -1.7854961625970862 -0.3487912268743541
Ni 1.223372040553177 0.9565533620493495 2.632117220537806 1.2255716005448891 0.8550393824490177 -0.8207303247545027
Ni 1.851654070637862 6.54816678909287 4.732592217981757 0.7822427102022658 0.6098610418713238 0.9818158513463349
Ni 5.9428798289246005 5.5403125640720985 9.136691823868075 -0.620364512505809 0.5479627617046304 0.5326109618389085
Ni 8.594321578760585 2.311727073965547 10.206916337504243 -0.6058889445974532 0.5640241860428673 -0.13606175085398503
Ni 2.2348841616132837 5.3562436226359065 6.858394306965227 -0.049681683495843475 -0.13822841948800066 -0.10220135066111431
Ni 0.4244658691413237 -0.07483152112273249 9.277963381644044 1.002702464987357 0.8081128931008084 -0.8895291886957712
Ni 1.4024283096391692 0.8412998317314412 11.304107222016075 0.5641848799904478 1.3156566275584438 0.35001892863386813
Ni 4.277489437346532 6.931731058224972 1.3288278285909096 -0.2197969243901118 -0.02287973281165092 0.728777391294274
Ni 5.453913962807201 7.897957523133898 7.988131434385073 0.9498022745542157 -0.5668444291004818 0.7253498536699636
Ni 5.142225092887524 3.0708804956797917 4.759162090990443 0.6557922571857996 -1.55432570626271 0.23576861722801976
Ni 1.0029679984595847 7.691056084938593 7.062046991567078 -0.43331084398498926 -0.49842351732392226 0.3104406521206137
Ni 5.070629680779345 4.567583172871021 7.046712730096499 -0.510485847805095 -0.4627648875800482 0.008020813421947477
Ni 8.182090242890581 7.031722581808882 9.130769645021182 0.056041050054968 -0.09490353144812043 0.03442424311614071
Ni 4.520861453830323 0.2689131626804249 10.353686480733908 -0.017707444582092086 -0.42435029235759175 -0.18827057164705638
Ni 8.20035262756104 7.068789261674149 4.902495618311546 -0.578317719847404 0.13646849937410044 0.8097452864979087
Ni 7.131930869602531 5.999635924507772 7.214382555881776 0.5799218311097303 0.6567057701390046 -1.816131113874124
Ni 2.292904715086596 5.268056716640666 2.7384111635198605 0.003037501274743156 -0.7860515424253947 -1.0831396844985024
Ni 2.2339267863536056 5.151220807591668 11.45961567245082 0.23776507883275824 1.0959185814307255 0.3399965114008596
Ni 1.103691101251362 3.1753789084578465 3.7093874741746786 -0.4340819178230589 0.8708377829338552 0.050884445554693014
Ni 3.6281993426013677 2.6689183642461436 2.4549422841555018 -0.8389118807595359 0.31424177103425877 0.9791159359166685
Ni 1.1069877236078 3.550579691830875 8.09962049292719 0.12999214762113742 -0.27570093464658324 0.17072407812286083
Ni 3.659630153013436 2.6352476570001118 6.977286766454118 0.21384122102730913 0.7065725730624606 0.142390007064858
Ni 4.157393033309385 6.7716055301228 6.098710716121331 -0.0371059037133619 0.8938779525827703 -0.3471038118696022
Ni 0.812314844152588 7.4136430556838 11.320353699535968 0.19065784093231034 -0.9420059184382488 0.6405343025854645
P 0.24555862544952664 5.736068709150021 7.645123748895026 -0.4479568760329382 -0.6942238216891204 1.1818499912872225
P 8.460587093194064 1.6266889482976905 8.033340319878638 0.8305429399695503 0.30745534424004467 -0.13774119543893695
P 1.6398483421972263 3.038826488164726 10.374123732975411 0.1696994935130884 1.0872231105392565 0.10806218031726549
P 4.193457178704612 6.208569527169375 3.5523589647191445 0.10109269097796782 0.3179169058930008 -0.061272987877868675
P 6.886869898651195 4.067706841530122 10.320983083773834 0.8330387098082105 -1.2464898387547951 -0.3424532004714682
P 6.335105634604166 7.710817755393077 10.127536380713835 -0.5336373462208939 -0.17937275493679433 0.22922875922697294
P 2.534091025788858 8.466412631330783 5.873393351940334 -0.7628738187573507 0.7737390436066288 -0.28494507895267057
P 6.961888378904827 3.833529240276069 1.3716179867774771 0.20708307636786918 -0.14604071644356784 1.14043131913112
Ni 5.237619408856566 2.6911818549546918 0.55422453782756 -0.3191731468976052 0.2962599897448575 -1.0930813690922465
Ni 1.5473351838492908 1.2600051919989668 7.0973145284915145 -0.9521286086945474 -0.47754770231617755 -0.4157039295365034
Ni 6.753939247029121 0.7288181737455628 9.136519315684493 0.10360105922211833 -0.2760729732740213 0.2694094452109167
Ni 2.7413988968774214 1.728929400557637 9.123776289704498 0.46374164967102066 -0.5381288063333443 0.5316367708510973
Ni 6.4086609564420645 1.9671532670601404 2.424830122686009 0.8098424741974054 -0.31702190488255727 1.212404981255944
Ni 4.236593256442554 6.735640734990371 10.414547548539 -0.2563083890525844 0.1664910138781197 0.1593358908905772
Ni 8.25810222577218 7.073269055342076 0.2699789200449721 0.34559534564487576 1.302846877388285 -0.04353751827131857
Ni 7.737344275559814 3.8047628232753685 8.179237987164106 -0.5988158398007557 -0.3608712979673398 0.1922061592560367
Ni 3.1789013268660957 8.323185679746134 12.5186569592329 0.16008896700651784 0.05390934842394587 -0.08789804666456474
Ni 0.16834631075650072 4.933806305224051 10.196671519041482 -0.7064237061894222 -1.1728894396598253 -0.3451865402422313
Ni 8.541358856847836 2.201881810680612 5.768354835006348 0.9003687025134365 0.12836489643035956 0.5094391517081355
Ni 3.2559610034280975 3.021169236913119 11.888110646340655 0.22880247032283177 -0.7139464969290286 -0.5013671733332784
Ni 0.8827270849492788 3.4944106659824117 12.605982227494428 0.6816588405399163 -1.1173908923718885 -0.6829829586679785
Ni 3.1695804658473445 8.498439543319632 8.061589212328588 -0.8474913948984307 -0.4513561315224743 1.1107708159522096
Ni 5.835364780894353 7.959446303963023 3.5880636427998884 -1.121976711970358 -0.293355671613869 -0.043118428456028965
Ni 3.260233064728358 8.355600960944098 3.8443800953418905 0.693548907109283 0.10374684077136326 -1.4280775990650374
Ni 3.284086159641655 4.281508607068766 9.480782427222609 0.22261999566120366 0.13634508642235874 -0.6256787256298709
Ni 7.2857973311485065 5.998913377141977 11.37445894947088 -0.1321156217220434 0.6179325060255487 -0.19070026413447155
Ni 0.5843448279549182 -0.03113727554471416 0.38455957812848396 -0.03517371968765555 0.23271363245177984 -0.7154066264143227
Ni 4.5689469810239585 0.35542556515543555 1.462220910527093 0.045287925303522006 -0.4485019499031308 -0.45707683605633537
Ni 6.428901314526387 5.702867657691756 0.5115978559825033 -1.7398153727305197 -0.4049986273038573 -0.2210894179492902
Ni 7.941138760082201 8.702243059684092 11.199822863895136 -0.6655033138259765 0.9935819907433276 0.8930793679408748
Ni -0.08402051724722623 4.578340096779289 5.640248993419367 1.8979361602670735 1.575433948996235 1.1762562992495291
Ni 7.988113370700927 9.014546094864695 2.4336334591540094 -0.15707923364591656 -0.8013688895087554 0.0055522972767968895
P 8.404589672344978 1.7126088619327497 3.647099375322142 0.2968755118416694 -0.3982721072133012 -0.30921269325078354
P 1.5841850995048192 3.205798152557802 1.4730871197244375 1.6343890873742046 0.8970476085600034 1.3228258916133733
P 4.7613613445350795 1.1505844252914363 8.20491009507079 -0.189593404223538 -0.9129293127872664 0.3119198077693015
P 8.646363052781947 1.654768945300886 12.30380840319806 -1.1156677390331946 -1.323078373943812 -0.1998734459933074
P 6.440100798696204 7.7848517648608135 1.3700717354146768 -0.10643415779553929 0.41757389286570673 0.0295525168461362
P 1.9488818505476075 3.3944552697667913 5.849122985923291 -1.129816776840067 -0.4708687476341052 0.3703319291596074
P 6.9336548405864 3.998396485466268 6.032364610625649 -1.2184514445603403 -1.2675929392819976 0.4097284286793588
P 2.5298550918568865 8.264442578907028 10.288966106811266 -0.5593460638409076 0.3392151531501448 -0.6195577003337975
