# total energy = -340894.43995512143 ev
CRYSTAL
PRIMVEC
9.01756524644587 0.00000000000000 0.00000000000000
0.00000000000000 9.01756524644587 0.00000000000000
0.00000000000000 0.00000000000000 13.19811824764284
PRIMCOORD
 96 1
Ni 6.1080930118754795 2.1864890826663235 11.48983285357335 0.5601845005818029 -0.31622923377793277 0.29480217425240846
Ni 4.476815430919741 0.3585068388461405 6.195935821711655 0.20537740653067213 -0.5437237839226186 -1.25377763066546
Ni 2.603362113567389 1.446651946945303 4.614088927255458 0.28054463589212975 -0.08284994271769602 1.823701212911898
Ni 3.3727047232789413 4.366025622408839 4.654950221354876 0.8396078783852959 -0.41580523100105804 -0.2371536705010045
Ni 4.991970907121176 4.477158098404961 2.391789288870552 -0.2915106479853302 0.22205512429666918 1.4395393198477338
Ni 7.124390667645925 5.9516923575687 2.642580407250831 0.67819916412609 0.1241482872458507 -0.17359908567781068
Ni 4.9098479390185545 4.703453902131242 11.321464988223527 0.8701137602836369 0.26756262181016505 0.9291108076431354
Ni 5.466114495881002 7.835533910262462 12.163821923226626 0.730371218143955 0.1970251779112349 1.2051629549815501
Ni 1.9585791347333474 6.5910738147278245 0.3230434593954792 -0.40080850048190975 -0.32713019696115275 0.3436366792566082
Ni 2.6250313232248614 1.5136614754366358 0.34929629754603997 0.7682577087770833 -0.3594337941898648 0.45866372092748103
Ni 0.7085092117630418 -0.18733360890021447 4.471271431711496 -0.0806328804617192 0.8895759827733066 0.8836807003347942
Ni 8.758535834399032 2.393270874865859 1.5615754074358077 -2.2554115451789865 1.112707113742974 -0.9754513425808877
Ni 6.799298417391445 0.8259747239399559 4.9583218618291 -0.2609849685926473 -0.8770009743217735 -0.33966972418906016
Ni 0.6888076348759655 7.435487656398783 2.5691061861238587 0.3376051283505476 -0.816354307173994 -0.5013103519534141
Ni 7.703606928452719 3.8817282550080154 3.6715315107912994 0.3336857386914834 -0.7869473147667866 1.089935367264097
Ni 7.697826669030979 4.013592113859954 12.797106604418452 -0.1083473156578521 -0.6766151074684218 -0.7265274189178327
Ni 8.148777079580645 8.75236781966507 6.666673476019702 0.37940663776736594 0.14843544192798952 0.9869056071644164
Ni 6.815493964850796 0.6294368860354211 0.5449486105282426 -0.3529990943081146 0.18149005839011323 -1.012922085832836
Ni 1.8972777251405497 6.43474530094425 9.239435383156936 0.1788276810666017 -0.0646835562213144 0.030879463187675846
Ni 9.257522815837318 5.188842394945529 1.3256190858959396 -0.5669722129275977 -1.5581324816033102 0.2546124894074002
Ni 6.575473426584909 2.1371539823600276 7.0147866689851925 -0.3703517266539493 -0.3731516579965896 -0.03287026836545952
Ni 3.460824372372913 4.326222088730902 0.5467178568598264 -0.16352704615378935 0.08026084183428113 -0.7713610302927555
Ni 6.02291308910208 5.706116999016087 4.7980707070962945 0.1514570023631327 -0.4519580267725313 -0.1818307295589836
Ni 5.260532039879736 2.940898604074599 9.13761173992378 -0.12869451185563643 -0.6715083823694759 -0.417026762112985
P 0.3053509960796408 5.62351609994724 12.381062287777695 -0.26078596520796377 -0.8290277888766047 -0.6181091408127289
P 3.9172484451207006 6.273917022025811 12.673770657165795 1.0985490770750372 0.02560818748640751 -0.3601421331107991
P 2.2086903286824264 8.446437895886715 1.4290397399615293 0.5456323137992409 1.2862614622257784 0.0716522742296637
P 6.4953253053050055 7.739018907780597 5.711604187562309 -1.9697357587078785 0.24709046999874223 1.2280953954080074
P 4.69695223747746 0.9259596855879438 12.740222900115375 0.014928339175058161 0.2914643681284271 -0.44877577238980776
P 3.944454439934097 6.195148588252188 8.041389598495364 -0.16260144901572643 -0.30448186343401756 0.561028336639337
P 4.814135499857337 1.0931904359407585 4.0927501064588805 -1.4353327379655538 -1.6482648169150325 -0.8619600208282509
P 0.18302952493454186 5.532961708195125 3.533479798561517 0.8338123547494415 -0.22012499715349185 0.6340618074872435
Ni 1.4003738013097868 1.2250362596618964 2.5185437951665515 0.7653256227319529 -1.961421068194596 0.1770309941774951
Ni 1.941427725341541 6.3392132130910435 4.769984597899807 -0.8061855941711085 0.6276391917903514 -0.2217980139805406
Ni 5.9380577986831 5.625445858942953 9.137730771787066 -0.8380317921474276 0.5827042789508738 -0.2727097132287432
Ni 8.131742898539045 2.2710197407308845 10.05484152044747 0.22351062579627315 0.5309011782366534 0.030327190228631642
Ni 2.4903630015333578 5.00824761266913 6.797070176980975 -1.0666136618190212 0.2509702646691226 1.245513590884455
Ni 0.47145455075738935 -0.17631594749384785 8.958249658837634 0.13813200311945242 0.07275373482395858 0.30967266360633766
Ni 1.089484216561141 1.0456047433221658 11.28639747989395 1.3041301149760829 0.5324047593653735 -1.448547693993931
Ni 3.972868788511165 7.071944507276447 1.5810948295017933 1.1654358115952572 -0.30937878651500267 -0.14211772724007782
Ni 5.651443499992679 7.71486986763798 7.82170637547729 -0.6299963791686182 0.4491449828037684 0.1923509123640171
Ni 5.386281989390117 2.9692047418668603 4.797621632339348 -0.27426548775163734 1.688144426718789 1.0028076231066536
Ni 1.024738096985341 7.1920584784114965 7.027324691918088 -0.8227344996687249 -0.25752323529629195 -0.03324924897143306
Ni 4.860621049497066 4.639853013361309 6.811628134563589 0.8214517763015595 0.3260984132625287 0.4694875510158624
Ni 8.374216214593877 6.8654783298659305 9.469768350913034 -0.2049979117040663 -0.14252113332608357 -0.4597037321562212
Ni 4.65231528874484 0.34502648032888933 10.431436693730532 -0.5606005050732991 -0.004645469191811354 -0.5656007865013678
Ni 8.213523199156445 7.109015718638023 4.790006298358603 0.8680057128016987 -0.6914709415343318 -0.7586150434809966
Ni 7.36608847307631 6.213896106719889 7.1957457609037725 0.6838401644619513 -0.5007776193783956 -1.1162606354221871
Ni 2.4043444451777094 5.266195070951269 2.536651968247354 -0.17712226833972078 0.06747705980605154 0.040147518753163115
Ni 2.520337388924717 5.135954373871425 11.495125262706921 -2.2698071517790264 -0.17100509969838937 -0.10059184008214934
Ni 1.215486657902736 3.4031029362441254 3.653068045633716 -0.5468186207978583 0.13709276322166067 0.51714603343409
Ni 3.640273923843445 2.4468893187374063 2.803095776649872 -0.212299330461486 1.4282015262374113 -0.9643629459772101
Ni 1.1059142207209052 3.22341892807318 8.207857462815292 -0.6019559280916342 0.7170793861310554 -0.4727317689847729
Ni 3.852430185021696 2.5255315065954216 6.889457839779017 -0.8469913153335606 0.46509096461006355 0.2632328840865596
Ni 4.162968084719721 7.013519701046418 5.733276102489401 -0.049777328533443306 -0.3479821007094975 0.6785015258578573
Ni 0.9019098386647324 7.471530865304699 11.50313646780875 -0.33807564022906295 0.3758690569277527 -1.1201234608117032
P 0.2956679343525525 5.351447134247872 8.128997951631124 0.241295717693836 0.23046366007533858 -0.5007120562477828
P 8.54245693227155 1.5322827479887284 8.038327233285344 -0.34280364183235157 0.5363339192164506 -0.9564082099065077
P 1.8164713215864075 3.2717530786200166 10.374024560094982 0.7372028963538079 -1.3645577241345208 0.5567767604518348
P 4.184024099929958 6.162387773152066 3.603271245978913 -1.2011255516873829 -0.1810848525318946 0.4478728009595642
P 6.668949509526795 4.020274129821747 10.354201246075 1.7329181313900541 0.0297872585647616 0.8529611597637504
P 6.389819790118814 7.5563320503312745 10.127655655787125 -0.691663517161112 0.959411772619522 -0.3102200514693754
P 2.350716983740762 8.44498606785723 5.88897428845148 0.9149933944051468 -0.7077442247730584 -1.2033778380566695
P 6.9075903602864015 3.923425477420063 1.590135840572364 0.3203322002027128 0.088372415197822 0.15780299918581855
Ni 5.264571909179174 2.7817656274514597 0.6473674130778334 -0.012398116554036713 -0.35003306970125525 -0.3753445518828504
Ni 1.4206092180685745 1.0180200107619468 6.943253027932415 0.531966129166058 0.6539953131863769 0.1953876423078119
Ni 6.81367241663989 0.521952015243813 9.020636783304653 -0.22173039396739877 -0.40566865678768843 0.08368066614910749
Ni 2.647250604371765 1.6007801747711488 9.091867434159976 0.9657932506658335 -0.27283132640827207 0.6744055014116127
Ni 6.296776550316153 2.063363244687497 2.874207395641905 1.1570501586347235 -0.3785484035321287 -2.0786993677934906
Ni 4.039977510221903 6.830598386896682 10.447511405813517 -0.04486677860570337 0.6713646577027599 -0.815188569000667
Ni 8.16589241871085 7.179884765120782 0.30153115537597663 -0.35646931224490225 0.20823081681906716 0.1649421813337611
Ni 7.520306876556161 4.001210996565028 8.25654510192583 0.8497840475873494 -0.464629965813245 -0.179700056369226
Ni 2.9257761468979115 8.554233872684641 12.337878068831099 0.8470645917736573 -0.6226923893080373 -0.7465408859252821
Ni 0.08944342769476937 4.5523645938453745 10.35673518195255 -0.25609910125525576 0.5048204219892015 0.23736064430548798
Ni 8.755983863390682 2.1077116313273 5.6288788460909345 0.331399513760468 1.4725623117409736 0.8970902888724808
Ni 3.7046232705416213 2.7993949678094943 11.675834568063905 -1.158099425834844 -1.0080760705944445 -0.3099642267048275
Ni 1.0039616263025217 3.0732674465889676 12.637686869215576 -0.016990621020725575 1.1276385382418257 -1.0006368407075799
Ni 3.19461682418389 8.311805644456813 8.087951797440995 0.31404842407653005 0.03706065229772327 -0.9700715663262132
Ni 5.617050505555061 7.823161810532935 3.630089485480087 -0.1863918665671048 1.090637021316812 0.07901565657327038
Ni 3.0271245644344598 8.266744870150369 3.6598510583279937 0.6668032635843225 -0.10778218718300148 -0.5811212507344702
Ni 3.4405889556141256 4.377829615518132 9.38772924616864 -0.07102492505830994 0.28911412272869563 -1.2129919641076656
Ni 7.235369845030238 6.0033269370521305 11.443666525748801 -0.1160112599610131 -0.27907447910450645 0.08898716596368546
Ni 0.40290301858256605 9.160133109511602 0.1214855428324699 0.32369134648293285 0.2713621980619133 1.2770957365661102
Ni 4.5243289830151285 0.4240537182295074 1.8428269599825342 0.39143348702491293 -0.10217332563665629 -0.5174743633077862
Ni 5.9496904580497825 5.688731132923867 0.41303605682314076 -0.39700146803099373 0.3363432309189885 -0.18862358411110094
Ni 7.872244419008016 8.898317115672635 11.204463880664742 -0.4343308006090713 -0.6873741457571388 0.21688926382501353
Ni 0.13116770280301812 4.887646693002452 5.70632530477684 -0.4481273401725315 -0.8152675018677185 0.6874013994506485
Ni 7.821962474334665 8.792324651954816 2.5813141661630956 0.925893072036786 0.884354072252735 0.9841748384968148
P 8.45045071248995 1.5503810017475907 3.6518669059223656 0.1418647306890073 0.6846546899434466 -0.9657251164320594
P 1.8316839544171002 3.1734796508850494 1.4494041079055444 0.2370379708587466 1.0338691203981485 1.2962759090389868
P 4.789481476052291 1.0009587770241455 8.207052194225026 0.30028916550890866 0.1281512377576567 0.603520958585909
P 8.221819359324932 1.7824841175918127 12.199799303905117 -0.2012818963050598 -0.2938894326301519 1.7113545462866655
P 6.4526271331335 7.651548523395464 1.5688471721747943 -2.3086989437482175 0.014483024107523444 -2.0216064794352406
P 1.9202454642156976 3.103070500237717 5.87177688947613 -0.7375517950527942 -0.03634202896414386 0.31896334487964423
P 6.810236724222287 4.143508178585379 6.023436107895311 1.7469926072052493 -0.7304984877504386 0.3440064038912011
P 2.3584270021582143 8.563440806958582 9.997007364751177 -0.19660891630942268 -0.05985091071936143 2.485653319051506
