# total energy = -340868.28652904386 ev
CRYSTAL
PRIMVEC
9.28990171175956 0.00000000000000 0.00000000000000

0.00000000000000 9.28990171175956 0.00000000000000

0.00000000000000 0.00000000000000 13.59671019281499

PRIMCOORD
 96 1
Ni 8.346893057744643 3.942838654314954 5.433081949590398 -1.3564991154961026 -0.5104174564610049 0.9904676134840619
Ni 2.4393145155860383 7.819635397528397 7.068507828449245 0.9533234003335969 -0.3404747365888588 -0.5845734709491287
Ni 4.178848606704017 7.970354762517974 13.45478757268014 0.28663223684710637 0.0185412533372971 -0.8602250404150154
Ni 1.9030084911254725 9.038609847547333 9.06579674483789 0.028265936824228736 0.12079402606163712 -1.4952435553885732
Ni 0.7899277724701452 2.379775535666278 9.212899551100245 1.0417716630746767 -0.9511978693501618 0.6940975805239014
Ni 5.5207005863529535 6.832369675416882 10.100873874977964 -1.2946586851505382 -0.4501356288518119 -0.10549519092103767
Ni 6.67237898854247 1.66490831085656 8.20829329849751 -1.0048627058634694 0.03850869759815948 0.2597698652386236
Ni 0.6641675863462925 9.427578031232832 10.891277290414545 0.5456886209584731 0.4953219955804631 -0.0658750054262543
Ni 1.1482225587615014 5.579979449025443 7.383366750407189 1.5153385263662356 0.8003332491553894 -0.14503901465193086
Ni 7.360825732950908 4.846541710740987 10.783306337033451 0.22077728602551008 0.32456629288871847 -0.27181368377703513
Ni 6.3312073490428284 5.161692335611942 13.468765158760228 -1.1903032642608984 -0.6528838252897531 -1.9987401163600285
Ni 7.703195769768329 7.27189350408964 10.427806882160079 1.8712293403998481 0.8861533302450029 1.1327630039525847
Ni 3.801455640522032 6.050132083564241 8.39581925397579 -0.24300087331040085 -0.4047829117486254 -0.8461415657387558
Ni 6.877388538997965 3.985544332375671 2.958861557401067 1.8708760708254875 0.4332787051954732 0.7493230766561095
Ni 2.3802771903574413 4.6935463198377985 4.9582174769153395 -1.6780767580701423 0.19119288750017394 -0.10186067949224392
Ni 8.793635140029142 5.64067966665623 3.1751444035552097 -0.2985459575655568 -0.5234622054601049 1.714674354688518
Ni 1.6949332731128663 2.252708260374894 12.244870776807213 -0.8510233193110891 -0.30958267499569264 -1.366667571388672
Ni 3.7037444545654026 0.527178696051896 1.2779002964272739 0.49814686662376784 0.10481719101740657 0.442665802837328
Ni 8.31164717073956 0.27701743642117627 1.0608315245903082 -0.3045975630762754 -0.5269979865275054 3.247601283560478
Ni 7.569857810837401 7.201392440177789 5.158224415311732 2.1843315985130256 2.2011615255861705 -0.5807893213163481
Ni 1.1726921598082558 1.1573824018260799 4.980176017535769 1.8782998740933847 1.3845812184442992 1.120804803149444
Ni 0.9805769928960003 7.443069232596663 3.857019471509406 -0.9045444311576809 -1.291017488853525 0.9777627643228838
Ni 0.22331623072228923 8.565763141518953 12.89197931668344 0.9462644366042865 -2.8014922593695557 1.383142943335876
Ni 4.975708503813907 2.8657767424851674 2.7294037726726996 -1.0355220826205391 -1.468847839003864 -0.21882144785071994
P 2.502039931784856 0.7238180450863113 6.9575046511571195 -0.558476773862077 0.03204777246416416 -0.8688024976713812
P 8.00021250654389 0.7116649956977905 10.582061054742022 -0.33246240780734354 0.6628278238763423 -0.09010482450789645
P 1.0174021631880787 6.311308379626675 0.17408532571577057 -0.5043735642597701 0.8166574402367097 0.5984281174440339
P 8.493478416482963 2.6897423953952098 7.437713604273408 -0.9121428123302292 -0.1712141303854019 0.3887096603358467
P 3.181540500867545 8.794053185605112 3.41802238026237 0.13621216038892026 0.8720019784452853 0.1134740953614562
P 2.5835309493938645 0.24822617310906495 12.820609646963739 -0.29916662186869125 -0.3812591175950724 0.43023863281756874
P 6.493771338684877 5.424094898697221 8.706789423087047 1.9080411099115593 0.8467599160490449 -0.8017347574886062
P 4.88370131749384 3.7181159324770685 12.539919912405212 -0.22382121505815644 0.42400859274745684 -0.5892706193144819
Ni 7.290436147859315 8.562010021236915 3.0781048774906377 0.37887004853760553 0.3440033185674075 -0.14136413690350494
Ni 3.111420322924909 6.971931868478914 4.622106046865269 0.9356221263990918 0.5993999944389999 0.02473555507346708
Ni 3.594002845922536 0.09461300374361048 10.81440149596424 -1.249966484449486 2.1564251019107443 1.767539835228982
Ni 3.417912759422449 2.6500930949899146 5.598704174868207 0.4136033382537329 -0.898558388777575 0.06488667337105598
Ni 6.16661816083275 2.8915376398665833 0.72113140551808 0.9262818228347725 -0.5636824864327326 -0.5661301766422766
Ni 4.60394521805498 4.644059013544686 4.152626001208698 -0.1357053959558308 0.33260587536374325 1.0086905642499917
Ni 7.867190404270362 6.649516540487777 12.722904034948122 1.9897384270820504 0.3294092228033165 0.3947957186289265
Ni -0.011577075483851673 1.7348426907654315 2.8500470809466845 -0.4562288862337433 1.4250190147443718 0.856163468751132
Ni 4.336488948451312 0.32831627354349124 5.698843741126136 -0.8885400853096245 -0.24487546462529441 1.1346504507832844
Ni 8.636663671203399 0.4567463774125365 8.263700130146352 2.1168427116324318 -0.16244898259826218 2.962581899726446
Ni 4.595965192504804 1.5497599794311538 12.721530987478603 -0.09507091026392014 -0.370823009863413 -0.292957921954818
Ni 1.6469973804016846 4.782041923319721 12.487680937232051 1.0446117036266334 0.0005070215434055784 -0.16679440405115145
Ni 8.302970402562769 5.014596032280769 1.0436944429460606 -0.05125854106466011 0.26068080708866714 1.0168597303243456
Ni 3.344541115888939 3.0509244831312627 10.730265643344596 0.3202203572151969 -0.5764061046469879 0.18586170509524766
Ni 8.186354266670627 5.8449831845834215 7.000878273149219 -1.3349144473467913 -0.02092003798211881 0.5666456828261145
Ni 5.106036534597855 5.209934795078835 1.8288388450369448 -1.72637081718984 -0.41128060365782715 -1.0861257637100197
Ni 0.5901345018125814 5.844936735074981 10.470650050765784 -0.051168038233382854 1.6092251865140674 0.020806395222389973
Ni 1.2644763884878054 2.7217461067111053 6.78901370423799 0.5941204912076156 0.7421810662946895 0.17550864399569774
Ni 1.1282864297385953 4.022137255125544 2.0475695802859315 -0.1110099500916798 -0.756272254280433 0.08927512951774948
Ni 6.2354656222441 7.407349560605482 1.0116944475908405 1.5788884832037389 -0.8224884450961899 -0.24057066660235346
Ni 3.3589311736039815 2.001193462068201 8.479561214763851 -0.5677373732283963 0.6806126586635892 -0.45863698145460363
Ni 3.0585236227122214 3.2851321945928134 0.15811505572356271 0.719078161728639 -0.05520261331407266 1.9219003843921543
Ni 6.225283889993818 3.793800761530944 7.118870243481388 0.4601084237938076 0.12631444165923406 -0.673610516314143
Ni 7.267099914818522 1.7118223143820384 4.483256389262722 1.4827297391922787 0.7509850377395647 -2.926904758039811
P 2.6109175795707182 4.1537101327357115 8.309194636693872 0.15214220135561538 -0.6892592785949936 0.8250058122014049
P 0.1423324417454568 7.549624404960472 8.795045347105413 0.6065324917187231 -0.36317063552447776 -0.08105994069680877
P 8.442318927885973 2.592690792458443 1.050385030141912 -0.018023176050297993 1.1660065964970627 -0.021421917319201816
P 3.27105799353517 4.156933728621522 2.5348212078720547 -1.2910244308320604 -0.1721350995377745 -0.7225044138013687
P 3.3729496352514956 7.5600662544580235 9.952152767841522 -0.5766827553471423 -1.7323931121245195 -0.7622698666247646
P 6.015982404958368 0.906882989773909 1.8180021747176436 0.6439695535192588 -0.3691998724376932 -2.5458035061788413
P 0.6664194585155154 3.413518635923924 4.300040948167776 1.4921682588973593 -1.3707088313375813 -1.3989099763621455
P 5.993380074150945 7.435637311246092 12.194644923329886 -0.22677001327383525 -0.6790031480846241 0.8270238710726983
Ni 2.290703958279687 7.211230446065606 12.071539791108526 -0.6545357590708792 1.1336826875533765 -0.0861286134689678
Ni 9.032469222531423 4.377243747157506 8.77796772083197 -1.363318452410781 -0.0861044450992517 0.4351334990160248
Ni 6.511552210516117 0.013331008922586384 13.301253367479037 -0.6430899791277829 0.9988545519961763 -0.5247744965136253
Ni 3.2425287054506664 5.461143026629816 10.77414184901803 0.26631666521820585 0.26519052203356264 -0.7003541029565745
Ni 1.2561619264768542 9.170015506927111 2.536302947191325 0.4641663959132651 -0.5563954658530159 -0.608385742877378
Ni 5.0628292018459735 4.171258757024748 9.492965004265322 -0.3203715380810805 -1.5615605334482525 0.19023463735196267
Ni 2.6114006544585053 1.9139705751175642 2.921919334347717 -0.041816164704837656 0.6035970632394831 0.479414066100955
Ni 5.226340761460221 0.7683055262908282 3.673695338564707 -1.2096778121327683 -0.2489043832790294 0.05014551050613944
Ni 1.3166206066637476 1.2869393707699053 0.7399100127906348 0.39294709545596196 0.6636451775713151 0.10828380940976835
Ni 7.9153306748186845 0.613926869026265 6.207578266366252 -0.9653260812214279 -0.2496823990956345 0.13975385499359158
Ni 7.08256530768385 2.547950625928007 11.52255955377473 -1.2342657858847774 -0.599879762288896 -0.1195994915329037
Ni 2.4277114283774597 6.213838731113939 1.9404272861354277 -0.031678047829571246 -0.06272771804652422 0.0379134872163218
Ni 5.03185666961747 9.04933039409553 8.981048687696994 -1.0806223173932872 -1.1837814039819807 -2.7226676357611694
Ni 8.750390647670509 1.3440165267422892 12.869095501854863 -0.5362539579081345 2.336279167359331 -3.040595083177131
Ni 8.806083608291349 3.9262283100964277 12.828101952675283 -0.7908865019201927 -1.332670388507621 -1.4947925838940836
Ni 4.507711126466776 7.4799222725938055 2.385977474033329 -1.109180074426322 0.28530040540956025 -0.1248100891995657
Ni 7.293854831680577 7.790743803278053 8.250972964833501 0.037307478201206716 -0.05486194214520229 -0.3153352612087537
Ni 5.462610831096554 7.92819718865686 4.4635144191851 -0.29849659238486015 -1.687903257242261 0.9181445384396187
Ni 3.7159606752854035 5.586723917651087 13.321418028083471 0.7551342840212479 0.032058313987125435 0.21777835129818623
Ni 6.413478718393647 5.425265426309935 5.262729306372952 -0.8831489962010404 -1.5983383643982345 -0.4653735288474888
Ni 5.967516987850958 9.218536663444652 10.94851980663698 1.3726212178689456 0.7394919494983007 1.3530481808330244
Ni 8.919634076626382 7.287463379319086 1.5528535166933288 0.42259705711191087 0.7644488765539544 -0.44573261468810976
Ni 0.10036809783945873 8.198524037882185 6.497528174927591 1.222858058268468 -1.3828763199380507 0.1723515864239548
Ni 5.68706414578548 7.026249923649899 6.855447649190743 -1.4194422919875427 -1.1782859280850482 -0.4721555847663288
P 5.574386928209139 2.461173654258405 5.208383381496903 -2.1728205125496323 1.6072418375354514 0.8500118473274393
P 5.950284220219323 9.112083679999413 7.075129670372603 1.013677218831306 0.7866688642944194 -1.2725952775925953
P 3.935666850211653 5.6828744001240965 6.154578448244826 0.7458875686119992 0.4387595258043862 0.4162706006732508
P 0.5941523842927336 3.7705295578019693 10.924535138458348 -0.8002615153771895 -0.9945245571622551 -1.0882309829784806
P 6.551712455514265 6.211664894118897 2.890674607999749 1.4618271847116566 1.146382137397916 1.6087791001155844
P 0.347807416275532 5.845122533108745 5.25223264645544 0.004361619402805392 0.5272299000326532 0.6139372688232265
P 5.075667845979084 1.712844203567742 9.741485667257903 -0.0058955395488285555 1.8573412695638463 1.8438450348496245
P 9.05312996388601 9.193556117805045 4.3650200945161535 -2.566791678394734 -1.5420108934510992 -0.96410660699203
