# total energy = -340861.0948679129 ev
CRYSTAL
PRIMVEC
9.36500112416607 0.00000000000000 0.00000000000000

0.00000000000000 9.36500112416607 0.00000000000000

0.00000000000000 0.00000000000000 13.70662577404027

PRIMCOORD
 96 1
Ni 2.9872667266824204 0.48611284927862725 2.9001712815324776 -0.8977415493032345 -0.1929386665466871 -0.30862699595064264
Ni 1.892207802925901 1.5963767885452431 7.720242673741136 0.2495780123072863 -0.3412167569612059 0.8746550997974163
Ni 0.6987938934011894 3.170062179836875 0.4401400597128085 -0.037532963948451493 -0.5457855515476535 0.5781606254442494
Ni 6.322508792924247 9.237992787477518 5.15665139863633 -0.5532556346724536 -1.3092640937685387 0.8044290164913178
Ni 4.130574135230771 4.136174405786965 8.384246525187129 0.41717845719950086 1.1580413189033991 -0.6349102715304679
Ni 7.478683712750544 1.7989230286612605 5.98291419269718 -2.0035843318262074 -0.8388514598352458 -1.1035174768239058
Ni 4.191062676238231 4.5449754263873166 3.1371179795649993 -1.1703219360429653 0.516546195066562 -0.18195748494483502
Ni 8.967428545606246 0.5169864478448596 8.42965647819705 -0.1397402281468368 0.31908495805917303 0.46604278700037155
Ni 5.015032918071395 4.255924672680045 10.644319056647765 -0.8008886074382272 2.153433623382588 1.4738959429507326
Ni 2.049670928564458 6.031828529055141 9.019438951271695 -0.5289340272079535 0.5612211693764334 0.4573442307851091
Ni 1.5901303329248722 3.9976004870244033 5.003343523910454 0.6773465863178078 0.8143583597898878 0.7894487410324016
Ni 7.858940210515976 3.423310534988407 0.3336983956414824 1.833275486863894 -0.51265123088753 -2.715382414953665
Ni 4.194743121603757 1.632806642163299 8.850381954481685 0.696802123939258 -0.6773658695915172 -0.6341677369374885
Ni 9.270376960693774 4.142046261370133 12.040064747767195 0.24356728733683217 0.18825308814555966 0.15824085805418553
Ni 4.199959427121819 6.465821402157437 9.967581613437126 -0.5034325405027393 -0.30745662979162536 0.8187765434622415
Ni 9.216855980378302 0.07791212523789555 6.182770804546074 0.8105089041368106 0.22934008799385663 -1.677140876519434
Ni 3.1001430828928127 4.362067593221701 0.8897659288677066 0.8439000780027467 -0.5170437035282709 0.6512979688598718
Ni 6.285058154204812 0.21056174441208242 12.730069587795493 -0.926626607768701 1.790018218837156 -0.2576625890876336
Ni 6.1743638432111325 2.6243261156367277 9.931162997820186 0.8674920063900736 -1.5796006787794152 -1.8745350077343137
Ni 0.5613025687461453 8.286134092943026 9.839630415229568 -1.491402327265612 -0.8846116967894958 -1.0954061605706813
Ni 6.5438693199088185 3.932176590526784 1.9028492534827637 -0.11130665539649218 1.4696734202289528 4.22016810550472
Ni 3.6827210607519394 8.633425787434536 9.226134823299835 -0.6779934758731871 0.45662175079678774 0.5064587289235729
Ni 8.526187161784058 5.9217054831181954 10.699899400667764 0.8472072879991086 0.8348742203550524 1.1452778485901438
Ni 2.659585344138522 3.1164943745167517 9.882983814035239 -0.2931679810830951 1.0166854095300102 0.8222279923459517
P 3.4961140522189376 2.9304586310404863 6.592283565217112 -0.45391052251321184 0.10452871324271032 0.6836658436676161
P 7.894789434076366 5.875873168566328 1.825626392313323 -1.333298251899607 -0.5220180168144106 -0.1891825419383645
P 6.760940676467408 0.3668355149325179 1.077987463561056 -0.5406168628625206 0.13606869283252052 1.5298650021171845
P 6.747314600114124 4.339966191026685 8.588612384983863 -1.716064550167825 1.100416726411395 0.6542876476158151
P 4.274710864545808 6.267676712478563 1.3298441795743765 -1.3727199482303392 -2.093355427143769 -0.8015925754837873
P 3.889209966259525 8.326253756927539 4.015150498767395 -0.9464225594487055 -0.4491778929242329 2.2708109104531924
P 7.614607336249891 7.459073400802932 5.035691173623083 -0.1048452160418646 -0.5895637250748685 -0.3897509571161675
P 7.795155189181123 7.927847887359588 9.112178682482204 0.41513905817196883 0.5619811874709095 0.8115946810018215
Ni 6.537426199268915 6.324672108139098 9.680496573425081 -0.6762695512035449 -1.114392986085829 0.42589449691626
Ni 2.6204209102488796 6.267620522472981 4.352045169226317 0.5697742011527671 -0.4125147331752444 -1.010616577628111
Ni 2.4237558907169596 0.5356115616946254 12.656752868513992 0.5664842175475857 0.7212808258069127 2.6941831551682314
Ni 1.6536344042318223 4.074384129650222 7.594375188240521 0.5731590584646 -0.6575213240617644 0.7385295855850313
Ni 5.843479630349142 7.034857588671652 0.18166603404228535 1.3567667673351924 -0.0372812529489616 -0.9128902320192149
Ni 8.538005792957835 1.7275429915721034 2.052361493331673 0.290184472974739 -0.21159767640877106 0.05744872903577203
Ni 7.449127769815175 4.394526686445397 5.523797831599727 2.687326537257714 -0.18545264258228705 -0.47011824262132584
Ni 2.3466912980632375 2.6439457925852694 2.900445676059729 -0.46922349872119834 1.2983513035107768 -0.5461167096348272
Ni 6.196418420401497 5.54618767582339 3.538050526383887 1.252075817483005 1.7819094736870924 1.2506547687657623
Ni 4.491239051050451 2.497851778075843 12.403879113399665 -0.24233084382656975 -1.3593664097415685 -0.8347184115034786
Ni 8.401932329443607 7.432645368178214 7.0885049964996805 0.16185711465053415 -1.2050755374740665 -0.03195495564004174
Ni 4.157929302947568 8.089047648369252 12.433252438816897 0.3573540288427007 -0.2978797847364676 0.570931711795978
Ni 8.007328650253275 9.02110873093753 3.52711220529754 1.0049534658050627 0.6083826575535846 0.3599721831918381
Ni 5.753631811425845 7.889207893522031 7.910162083103111 0.25143100635562504 0.6012455322881709 0.06896572853643607
Ni 8.716418425677006 2.20557009904769 10.707300560902816 -4.654114783301495 -2.5389954821180725 4.181455005205238
Ni 6.09220469005144 5.769252632977238 6.664174931357052 1.6175447621233563 -0.33683405451247794 2.0327912924074667
Ni 0.8714414315477966 9.033835767201525 2.0897671800466444 -1.401292103441077 1.3323052918587184 -0.47178586013173585
Ni 6.7726188326272325 0.3108627773735475 9.978163127988037 -0.6273306594109971 0.25460451898760017 -0.7574415919981858
Ni 8.741479168165931 5.144157550895495 8.580649324693006 0.442835752756289 0.13248226103284283 -0.4198500904943931
Ni 1.8820936019214023 6.3173486774117675 6.669136508849815 0.8304418956153118 0.4375783610120916 0.044551818468445845
Ni 0.4374682249474534 6.778649893226211 2.2665690326058403 -1.098496883680863 -2.557171124585835 0.6056099799044538
Ni 9.205168459217546 3.9405114413545657 3.3092176651571963 -1.345628491330186 0.6432344751254471 -0.7472433113089454
Ni 1.9355115672266436 8.327752157076352 5.4291261006973395 0.6229011628847336 0.7087263861806697 -0.25828762426614227
Ni 4.674277994229088 1.513899225353928 5.313784876242148 -0.45172097106106074 -0.1335248433647442 0.2630361946947212
P 9.42268933582078 5.106538342159317 6.568736206878491 -0.2839212656738465 -1.0959144676656676 -0.39486025331827485
P 4.552401872124879 2.5290653261758376 2.5442104056799812 -0.5325217445592119 0.9442330079965544 -0.22712688239262177
P 5.91819360776941 0.5971611573074652 7.3497388879443015 -0.35854727781985346 1.522761558303184 -0.1592106781666226
P 6.3284274735120665 5.748172015883601 12.017557841031905 0.21861678803908155 1.2963509852512962 -0.8207974305470122
P 0.6330534598721336 2.66348118452544 9.488767845883412 4.05581419257426 1.2077993641631328 -5.22772969835659
P 1.6828625721346373 4.720232053793047 2.8857791481031128 2.177327142170734 2.0958180297516487 -0.44159493837065233
P 0.9239228967600289 0.4675757664376043 4.102310562423756 -1.0121443271265473 -0.3908321059954882 0.12452546807961135
P 4.131885235360984 6.377940233429459 7.775672241246161 -0.8415328633221507 -0.2361306285531288 -0.018914063295683552
Ni 7.589668338773057 8.23034678240247 11.69615100911117 1.8251335744830506 -1.3358729546053187 -1.37171773221807
Ni 8.011290045646703 2.7154194796837268 8.250689437422816 -0.02945378648474282 -0.6971294253716896 1.2567395415072613
Ni 2.243264227791308 3.297220162465656 12.327588069822768 -0.0679228890942185 0.821988879751952 -0.2469662857160521
Ni 0.003036133301535638 2.639141547108132 6.512059221249577 2.251203934855542 0.8913754978758905 -0.9970018150581538
Ni 5.736053704680063 2.2965417180825978 0.6938828869134493 -0.3094304656885445 -3.1823649401594873 0.5200596075364592
Ni 8.741563453174301 0.7255525105587396 13.716083377222121 0.5929185004797144 -0.30078744530156587 -1.460454472733846
Ni 5.829441493954935 4.243806361476507 13.518337636582869 -1.461240201859935 2.8116180349496482 -2.7133646131926885
Ni 0.20198434006021168 6.120533817864966 4.760023006244912 -1.086328109528813 0.9969987297343603 -0.6419743774661009
Ni 4.498712321792665 0.2924952010493592 0.7862779860897313 -0.9072644011920052 -0.9462114718791639 -0.5732058525421354
Ni 5.268009688195955 0.6547465480265974 3.021831072115202 2.2239862367901697 -0.404194129124691 0.7717788345564643
Ni 2.12463776100984 7.860579085678742 11.278441999626114 0.8832726662630981 -1.6831510872692559 1.616925126261486
Ni 5.833281144336272 3.229492475739235 4.464248181869835 -0.19139240510548974 -0.6162121809003324 -2.3598618397752777
Ni 8.022893281799087 8.085273552994424 1.3594460110143023 -0.2627981105419861 -0.9640819244016816 -0.707045398933821
Ni 5.8909882800674955 3.2335662511438246 6.961087603345136 -0.8031108119005265 -0.6987790451599707 0.5083652019176664
Ni 3.774910129907759 0.001664160665277245 6.839675048786964 -0.21728289971900647 -0.6088927644207837 0.7079774238297871
Ni 2.490041367300147 7.478627522744963 2.1103271030885673 3.374441772926511 -0.22013939533119506 -0.562979803938753
Ni 5.150169881492614 7.661572815914299 2.564783439723206 1.7659897171330425 0.03461759007386941 -0.44307023736459816
Ni 2.1998761784821945 1.727795846597216 5.273144518205923 -0.4553287430169772 -1.0043826809032572 0.11250993167597396
Ni 3.885510790892139 5.682916689402724 12.55426791733563 -0.20680154057170835 -0.2035570654924817 -0.2867548784678997
Ni 4.417396018716681 4.622124304049409 5.554966427695257 -1.56499424172015 0.44223771416097385 0.30026216892571517
Ni 1.2044046746162669 5.273937733784702 13.782559899824282 -0.08404190614326816 1.4946558012059035 -0.794121978138355
Ni 4.686461860439137 7.048352555011913 5.647924363427438 -1.6216523565338266 1.8992679917046194 -1.1746249342936932
Ni 8.56725269086251 6.6165042671226075 12.97273174589565 0.2223222619151268 -0.8680555922030275 1.6119811519926497
Ni 2.06112432470196 0.8303543629672065 10.484595219784683 -0.05999129295196765 0.8488864754737444 -2.21337015183722
P 1.559591064891844 8.668909775958653 7.7913529988035055 0.13868170497533536 0.07213924116841124 -0.42650487680674937
P 1.6072589196260094 1.4779750817860973 1.0771951844823702 0.9290218474737548 -1.6282063556022603 -0.4624941504171648
P 0.43902843410240666 0.14785744418456234 11.819086312820572 -0.8179486482443074 -0.3379000338831471 -0.6666870497214324
P 7.702797550008562 2.5704773602887023 3.7630446737293335 -0.7667366441468666 -0.7221238905334982 1.6909340736487848
P 2.2132213048075746 5.24094483550799 11.003966933366437 0.5866586356129315 -0.44897657554670417 0.861916054964193
P 4.6795411247518 0.30390458168248957 11.212348505561994 -0.6068032288816065 0.9643518902336164 -1.4564828896806077
P 6.696500105067448 2.643430717534114 11.925216122360926 0.601947443451202 0.15933383400804815 2.1321942543878376
P 1.291583468274488 7.384012918348249 0.11317322673987576 -0.2150180149442297 0.5667233301415853 -0.053068083469573125
