# total energy = -381162.62843919295 ev
CRYSTAL
PRIMVEC
9.35000082971164 0.00000000000000 0.00000000000000

0.00000000000000 9.35000082971164 0.00000000000000

0.00000000000000 0.00000000000000 13.68467132686030

PRIMCOORD
 96 1
Ni 7.758761624380679 4.3897412598390835 7.316892738126507 -0.7136153388418549 1.6747944877744445 -0.07104215144949055
Ni 5.2279781880993355 2.4210798760390984 11.91740545764383 1.5526891991005516 0.5742162960845207 -0.8263715822006801
Ni 8.858714427075489 4.860841053822338 9.818751946707401 0.27679031105602003 -0.18278126639771103 -0.9799839403439187
Ni 7.0387087071544325 7.814431529578184 2.73304826516538 0.3468482442153704 0.2866962573158224 -0.12966176086491218
Ni 3.568315633148384 2.092315145344662 0.13364797747776608 0.03794202646141207 0.49441388194389685 0.25139706779389603
Ni 8.855834626806622 2.6239374949784793 2.1284865587217308 -0.45689223084935504 -0.6807301580780599 1.26011539995803
Ni 1.0280325959801302 4.521258372117906 1.6938068881387653 0.0970372899616716 -0.09903735111083589 0.09897153086990695
Ni 9.028837692958696 6.177152876717059 5.094515340638853 -1.4962450000698941 -3.000653509787187 0.39152193297366117
Ni 1.404229881103009 2.6022548429541237 10.962229003465763 -0.5758520319157308 -0.1839454619091413 -0.5634467162728426
Ni 8.358321080357303 1.9384889309829965 4.624446851751884 0.4298177432300662 1.2922583032391617 1.060121626336774
Ni 3.040339783855015 4.751670443629851 0.11605221083497384 -1.089317016953808 -0.41105126125584046 1.3197009728311466
Ni 9.238642362546674 1.0359894467230049 12.362787139225967 0.6318138919933312 1.1795095160795042 -0.10199720507010819
Ni 0.9740550409406277 0.3586192834817452 0.7885837486244853 -0.21000410666940608 1.8834325673342596 -0.2543818614538329
Ni 2.3209881166942394 0.9751957410471267 12.356943388680378 0.5319612440700516 -0.46006445792974954 0.5278395085921942
Ni 4.127922535394922 0.7028956656243953 10.457373836331008 -0.8229221901994989 0.7592922720536794 0.5512031230187991
Ni 7.693919368326816 2.353320419712878 13.460912951750204 -0.6313068704499257 0.42359284536627695 1.108830404396387
Ni 6.528965359563303 3.836800908214955 9.298145768102085 -0.1888040755530232 -1.7536936733745088 0.13149367186732838
Ni 1.6169798009659637 0.033998473174196894 10.485619253968084 -2.709953016407978 2.390060731956161 -2.7550666209171646
Ni 2.4268207765750858 8.874572028556 2.340516528517469 0.1123312400062646 0.9679429500189846 4.350923613654443
Ni 0.06077594067421958 7.920432489474743 6.467170268793932 -0.28838650053405174 0.855545632661475 1.672375851030623
Ni 6.036098763547836 3.009279080955097 2.377930557010552 0.9482056194910573 0.00787811719649611 0.2382121936725059
Ni 3.887777112974242 0.11454218569399348 4.3116023675438075 1.0119957173638248 0.907895864128417 -1.4834244512664583
Ni 6.520999158819555 0.9606845396923186 3.5811139143432693 -0.9793797311010165 -0.8457227330337821 -2.4457942780730395
Ni 7.731805571863982 4.513301521375031 1.24324811107328 -0.7540071123953401 -0.7429701378548882 -1.858592625472444
P 3.3904599165432545 7.019653405375374 6.701917000710574 0.47087029029600197 0.11930689999314936 0.4042879743900779
Ni 2.423501526265191 1.5609639457361597 8.721734109286606 0.7012177365084504 0.026462050846270558 -0.32780099777593225
P 4.165472138900662 5.050290771509918 3.088931738391702 0.4832452669215871 3.5860908713985076 3.4258898042941577
Ni 3.136785042859426 6.904657744639042 4.2803733646281765 0.23248403293947703 0.4122522235424771 0.4393909887407982
P 6.000774460249855 1.3413324252307184 0.8527930096192498 0.14687709630193416 1.1182082460668614 0.01701710338328682
P 8.11851225796805 3.9219700661665966 3.912187160253236 -0.045779777338276 0.7031236952819117 -0.7712430166576524
P 1.7859156167383057 2.1695648525569204 2.5043631388146674 -0.40966826486538477 -0.46410777476118786 -0.7930362012733438
Ni 4.513310871375904 8.927969883541381 6.3328144962500845 -0.7032280820702599 -0.008341944206792086 2.534956279051692
Ni 3.467672223752021 3.631353339033769 2.042409515685326 -1.8361304398141862 -3.248001347212374 -1.5405890734029082
Ni -0.0030546452851906184 0.3980603921640825 3.154029249469396 1.8102993376836953 1.4455037649612845 1.1309722306007488
Ni 2.676914599924577 6.296402787850581 8.87853268892578 -0.46245095588405516 -0.0103844285581176 -0.22908991965626352
Ni 8.139596509936538 3.0099522810179486 11.213342911910493 -0.09185831686389341 -0.2880064914868137 -0.37062117826525204
Ni 2.2621953112051707 6.566720663088248 2.106823541699208 0.8756719710977048 -1.457959217115818 -0.43775396735800737
Ni 0.8827644374174699 1.2687483684540588 6.514464443209454 -0.4357788459095076 -0.699549347667092 1.0199591951852756
Ni 5.751783937003372 0.45632305260365486 8.513274904824245 0.6074665734972182 1.3933882752129683 -0.05521803993304039
Ni 5.342422198784162 3.5154694282145083 7.275331984246274 -0.8217770208514621 -0.8753492976509635 0.6707416794067803
Ni 4.906955258127696 6.716582477079785 10.353575736640114 -1.1000552293069183 -0.5608175061801116 -0.8350014899615362
Ni 0.7864930884292951 8.294544724402957 12.527317234586977 -0.38245905144044456 -0.32188360385023274 -0.7411953053426525
Ni 4.084744231363669 1.2038032623905937 2.2949053542590763 0.27070450987325634 0.9096580982351624 -0.10785314963025296
Ni 3.4098237683511203 3.6268372886121374 11.672299859760056 -0.6603261405004112 -1.2527065090884684 -0.3740865111060332
Ni 2.64614374705172 7.753039423846437 11.05729700734159 2.0590769655768733 -2.5061020738241613 0.6966447724257873
Ni 1.6445062035359093 4.8283498007888594 4.09468608729187 0.14429570872800312 0.30903785823581614 -0.8854370209042687
Ni 7.5620469560148225 2.038907940358409 7.193716761626438 0.5878408288464909 -0.654131581653925 0.8271863647924916
Ni 4.971788164180685 0.4051476928257736 12.739511764398081 -1.019867663912734 -1.1086995352454778 -0.48423745563152737
Ni 1.795929467673228 2.5810770909769065 4.6796240119033845 0.6265071350684371 -0.898854322751439 -0.12898864605728752
Ni 3.935134867395701 4.26002869772874 8.976665623087758 0.6386771947720679 0.30619653213227915 1.906947362626748
Ni 1.1156421041596098 4.912780308671539 11.616726259571541 0.20526530643284005 0.4050744748471153 0.3180125509306007
Ni 2.087312894877637 8.643196906954143 7.662417345385695 -0.8408702900374874 -0.11897239947186607 1.4087506166016512
Ni 5.349705849464185 3.701702745601795 0.28467854157842126 -1.6957160684184602 -1.0758259244459085 1.7362415393363322
Ni 6.02991841297082 6.249746283494592 0.8901602881079682 0.7604952912228451 -0.328028540405706 0.8346322795475756
Ni 5.213018186702625 8.76818771862365 1.1725331194711217 -0.1789904318967111 -1.5797058368987118 0.8216366386188559
Ni 5.61178637393279 6.24735268327112 7.837280126711396 -1.0509764695023964 -0.5940047915653577 -1.003976189493458
P 3.5817235344001856 1.9276055299668904 5.952531260745729 0.2688947103580272 -0.4224656737403692 0.2521210904441142
Ni 0.8748337666770393 6.347930642661372 13.69863017894418 -0.7232353784301221 -0.9051373275466733 0.1702697641942616
P 6.622325118279642 5.879130948892861 5.648731032382051 -0.056880001016495596 1.0725868486833205 0.8535319446655559
Ni 3.499359376710427 5.746706886529363 11.975866338101909 0.5731839981652646 2.551031587347 -1.044151476160763
P 8.766794568493584 4.53235682315409 12.97394433628539 0.01974195851361761 -0.19958162578450145 -0.1260691584176474
P 7.322387733639537 1.4771972879154593 9.749316035224659 0.5013072666296206 -0.3723697855252426 -0.44484301299430484
P 7.957383692924616 7.5173446018412795 0.6637574969703414 -0.5379807107912541 -1.6124586058497004 -0.686600757926224
Ni 1.7773790659413085 5.605232023320856 6.264801654900206 -0.9875566104848541 1.5669325963934435 0.5302871988017384
Ni 6.0372862136586996 8.68317751068685 10.628870617342448 0.39700583890636787 0.6440258606784908 0.3710767777454319
Ni 8.736453815660882 9.307776269001216 8.514670859954576 0.11325040938642432 0.845868514583027 -0.3070285411152712
Ni 6.00609461074656 1.4396570344105917 5.664974788898616 -1.5167145807781557 -0.5076118686914096 0.9031287817570768
Ni 6.801798385035792 8.625029855258015 6.827624957447036 0.6871789990271971 -0.5914077202621427 0.5227795775707835
Ni 2.671519649420888 8.426052486680906 0.3580302334267498 2.1100102620916306 -1.5405145114112309 -3.6867711574294053
Ni 8.18614081428205 0.19507093821239332 1.2798879594940833 -2.02866287206139 1.8827005742642413 0.9389797300174151
Ni 5.609252523696222 7.189159571200965 12.562870612906346 -0.5904579547543637 0.5431540274620775 -0.3744256396130068
Ni 2.9215667227660145 3.8888149630711393 6.959229959734064 -0.31429704975222644 -2.5767955836849814 0.0038800517806965437
Ni 7.189299821214059 9.099476949553782 13.08168346134423 -0.5218154138853014 -0.5774965094976894 -2.29749561883323
Ni 5.737384935659039 7.684513267448635 4.745077758014338 0.09577333564758345 -0.401950841616469 -0.08887146632142759
Ni 0.08841547825472765 7.2584898276738405 9.708781911440276 4.416133474692872 0.4103676049252546 0.299302119005291
Ni 4.397408260554897 5.1837526839703125 5.544221397624725 -0.49827027957550957 1.0098922978675768 -0.1919855586047984
Ni 0.24983202332504845 2.4959920830331215 8.642006651843017 -1.4765071553213345 -0.01330083087396419 0.10495191682305796
Ni 3.9723852708735077 8.396067033881376 8.903178356226771 0.24244860035135668 -0.7996855882690614 -0.03364005665194852
Ni 0.9701373905748644 2.660495998391688 0.2942192824691727 0.6707175110370642 0.3276109932523132 -1.5335321665561268
Ni 6.2400222825867315 5.536079416864567 3.16036574506099 0.30234090583161477 -0.45511431301332583 1.2404857986525604
Ni 8.366427531114145 8.937656484445752 10.902359077876133 -0.31853808441676756 0.8081308908229372 -0.7849644800088029
Ni 0.20963543457217734 7.730393721732168 2.0997072560348107 0.9800114511477445 0.12032942772039275 -1.4904193945270525
Ni 7.920853239514026 9.026958342783233 4.864408079155367 0.09983619286304742 -1.1189685212716536 0.6217009719290455
Ni 4.50853302092983 2.929579673514127 4.165791908930517 -1.5759201446040345 -0.539266262371897 0.19893396489817353
Ni 7.448014345368404 7.092873262211394 8.98863923420565 -2.0700890004166608 1.7806354920706753 -1.187589207763845
Ni 8.227140568109908 6.690365074632052 11.624020195252525 -0.6542984462490925 -1.0154962743179157 1.2414034253708233
Ni 0.21145587974213942 3.4500381221056498 6.324056350432398 0.3776246061662787 0.9449621728530951 -0.7000717958294652
Ni 6.225866381265096 3.8160813062805126 5.329905352615554 3.3867401306778895 -0.5368512251725012 -1.7643835489881874
P 9.042077294194783 6.113264320752237 7.894440422048048 1.0575402387628432 0.014365781803368807 -1.1578155760458382
Ni 8.658755308406722 5.788996940477687 2.7405740808680124 0.2729943343486976 -0.26324496827141763 1.7258928491121566
P 0.3678524093437769 7.860368083866955 4.1936539765318015 1.2781246920512568 1.1181822779249322 0.5793423044571764
Ni 2.0797393941705526 8.883248829366094 5.47152888083794 -1.082311275059936 -0.5765565141819232 -1.8969406291230235
P 3.9366495675371183 6.7120851266598995 0.5817570543145402 0.20647655313212182 -0.0723680693497657 -0.9497199992530548
P 6.683109473954648 5.639696126538526 10.232685835353479 0.22586884161580453 -0.3519475131151487 1.9960630837484976
P 1.8192577198512219 3.85314470974086 9.13778857813067 0.4134686124480815 0.17757118295168128 0.4575020965192121
Ni 6.364311844190769 4.733596891942451 12.50383470739458 2.311053817133639 1.6124907446392165 -2.8643971264238925
