# total energy = -340896.2015164375 ev
CRYSTAL
PRIMVEC
9.02860543191621 0.00000000000000 0.00000000000000
0.00000000000000 9.02860543191621 0.00000000000000
0.00000000000000 0.00000000000000 13.21427667503883
PRIMCOORD
 96 1
Ni 6.500298105745909 1.876848480036235 11.404159067805812 -0.8878096349015032 0.7519507440869437 -0.21543196255319672
Ni 4.428485915851476 0.39254390962641267 5.95123428901096 0.7373376221594593 -0.5814151278258051 0.441412132935885
Ni 2.57114825257006 1.4524408154393882 4.855030651399672 0.06953445655571251 0.8675539699762608 -0.5273836520016981
Ni 3.397942812645288 4.182745327960375 5.000084229364932 -0.4641869647385554 0.36831001363357213 -0.9162493782994348
Ni 5.019191467448329 4.599433534748166 2.5003522472856714 -0.042744075835745736 0.1599385574715826 0.3906001924903402
Ni 7.120590397974666 6.04993319997826 2.6147880178566956 0.8031293238432878 -0.5280117725040003 -0.7384653080059992
Ni 5.111996504663872 4.486955165876561 11.668827224528384 1.02254701051711 -0.34344873161551814 -1.1509162778228437
Ni 5.736107897071845 7.893827269484605 12.327070357639696 -0.7733649480966617 0.42953595032358927 0.6677422304588242
Ni 1.7849824178056541 6.5377668190881115 0.36753918634900795 -0.26585335242854213 -0.8414840123620861 -0.12056365521838591
Ni 2.6009697369482034 1.531287628359257 0.3416514654415146 0.3881874692837895 -0.06552404984473877 0.7753637236942452
Ni 0.8383791639521869 8.813815096817235 4.5937455132046505 -1.4185796868769311 0.32800462914630607 -0.27023914020106365
Ni 8.471802487150734 2.3337049532479917 1.5199856198383488 0.637098023210406 0.33206902902366686 -0.23560920883202005
Ni 6.637532911240241 1.0471467089498772 4.776907932650898 0.310399257359717 -1.2893164470020182 0.004002693401489881
Ni 0.9317340432502689 7.316222224649086 2.657642294453988 0.03675546235247863 1.8749101316855452 -1.5950612363088594
Ni 7.547571215174531 3.715370529195928 3.75890646551788 -0.2944370776035058 0.16158149239164432 0.33136428964715836
Ni 7.3965858433138925 3.95043930523872 12.68684223456984 1.0474188340581252 -0.8263803239514285 0.10748342499566003
Ni 8.07412852380841 8.779199422852415 6.783351212101906 -0.8378446158372861 1.3798532168410107 0.18557142754833847
Ni 6.731421381130738 0.8611339587079346 0.40624481866178436 1.177971225058107 -1.0580320907975973 -0.6657647950174792
Ni 2.0243217243088942 6.3847319537506815 9.254407439856788 0.07717654648200258 0.5683361831546598 0.04323644209113199
Ni 0.11172357744138575 4.837075463393975 1.3242156554978715 -0.2979872568486094 -0.29001992237241664 0.9495639332911647
Ni 6.21214112863031 2.228909927762945 7.04857462807039 1.4863940754177434 -0.6973615959871537 -1.4219791994767832
Ni 3.3572960301232166 4.34340033644499 0.5847132660437885 -0.07670860570664854 -0.7058254104837909 -0.07459695868028443
Ni 5.933671845349936 5.590611917430979 4.811212119721668 0.5139992602749922 0.32161080980482026 -0.14396377930988108
Ni 5.375713046353605 2.84475111741876 9.12802592118382 -0.24381617012284465 0.7442785722536666 1.6449311245561091
P 0.25178704507791355 5.441233637371524 12.423799226859703 -0.6319900125598793 0.4654871716072177 -0.6945958603165586
P 3.9454464863283008 5.959927030506352 12.647965961610756 0.03875218106753327 1.9587129252348139 -1.2016400294299563
P 2.4371186020724704 8.335921972500095 1.343178435891276 -1.0545780708107257 2.2338752137691076 1.196944937947132
P 6.323066577334479 7.930041006644984 5.693846799864091 -0.8837938288738908 0.0765805647692165 1.0421277608625148
P 4.620939673346028 1.17019757500792 12.58255551958146 0.2821919416875656 -1.4290461336258937 -0.8735605811816568
P 3.9845854917110595 6.036832693216925 8.274264721828956 0.18423291124257304 0.667834018841682 -0.9351732117871313
P 4.523800905430665 1.05579611313827 3.725448258794137 0.7694920954048167 0.17962292327438742 0.25475647118443223
P 0.24947752775913395 5.685105303898327 3.5651724517457564 -1.104271581381111 -2.2782532256638506 1.2075934187999138
Ni 1.4802940637913629 1.187830441792817 2.5186938596121013 -0.18572955039275757 -0.3544677084338411 0.4581633842522948
Ni 2.094356618139127 6.379639820178392 4.679875702281906 -0.4033798607535118 0.2533223098410669 1.1444319556500806
Ni 5.854156915613845 5.284506072333622 9.147860864880563 0.5863953546492159 0.8944237977839112 0.016405695051533033
Ni 8.582745993066153 2.2291356429035605 10.211808003176746 0.7782796117894597 0.7732914145462488 -0.7525140727895815
Ni 2.3489903825704856 5.205144628893149 6.91335320163035 -0.06372556318341929 0.15395842862874776 0.9211475869320007
Ni 0.5919189961928034 8.930419538459294 9.204417856234352 0.5547270770116575 0.6566638611574754 0.09348556805467126
Ni 1.4524137296225146 1.0905291589762105 11.496169587726389 0.019351922164050545 -0.1484279857288218 -1.0108680315172849
Ni 3.9789696990125414 6.800490214159136 1.422041500301269 0.8905656003800857 0.6160723128883584 1.003680255519594
Ni 5.577123180627786 7.7267258365840075 7.969966403577648 0.010418367119846573 0.24277358779094318 0.4225476919312142
Ni 5.38477776640073 3.0916473668298132 4.59648027784835 -0.35624125539449614 -0.5077082850599579 0.400413064815704
Ni 0.7572923539768484 7.323038821895679 6.6765798248456285 0.38678056163393393 -0.37242994933921664 0.3969958116040389
Ni 5.069453714960629 4.308577004550804 6.970121462355755 -0.7899184815799687 1.6393256054438736 0.21212655232904756
Ni 8.22904133911576 7.139108068110776 9.44223493982928 -0.4883525062411654 -0.5296223115242298 -0.7757542742644447
Ni 4.581746496329521 0.438383043243207 10.437336251655994 0.03279956302852416 -0.8002514880748605 0.30378869402173486
Ni 7.887850332561102 7.321368529855123 4.413872214787454 0.8446351563965582 0.1992070160539021 0.7235901906663796
Ni 7.448292667726131 6.335453824251467 6.9896918679076965 -0.6329102103813035 -0.327302717983275 0.015586541584347349
Ni 2.350371759231053 5.222660123804926 2.6444803931744065 0.1385824603933097 -0.9739765578075742 -0.38794989935168667
Ni 2.276815709207216 5.172623591433243 11.404159067805812 0.4852990641268223 -0.1330342768815709 0.3407932962705421
Ni 0.8180178525475279 3.4574684095284547 3.8359331115438233 1.5809510221597225 -0.23181271790406527 -0.35434635236462847
Ni 3.6546802421871845 2.66642712772675 2.545584658604491 -0.503239707765643 -0.08812841750781596 0.31560317015815964
Ni 1.2978891443570213 3.2905024057122256 8.279035437041008 -0.9027778261755613 0.22406649829974315 -0.3404608526317878
Ni 3.5431137624836673 2.5704169355144653 6.979807350469855 0.014017397325014568 -0.21309868643432978 0.32005426395097786
Ni 4.176560733107506 6.820696233547051 5.9891860327540805 0.214824667986501 0.38901227917793 0.6311526042602484
Ni 0.9130267723960414 7.321332415432624 11.341919472071885 -0.3936544059356317 0.1612891579622061 0.1492060015454269
P 0.3403946835385665 5.691678128793055 8.036222825953974 -0.14012872183450706 -0.3070167140407293 -0.08289416569207013
P 8.516241284035148 1.607579345887356 8.00510302808701 -0.3509221571744279 -0.1440967053433196 0.3257549138801809
P 1.8159595637037498 3.1324927786756263 10.429870497664991 -0.6255146892481808 0.02972169543414881 -0.1461384183636967
P 4.109225392359036 6.198462791109 3.7703637660555316 -1.3840582560612937 -1.2008000500271643 -0.4310451878792641
P 7.048099723414535 3.9619507774101193 10.3900155238562 -0.387118661699643 -0.24104040714992034 -0.1379016322762012
P 6.376227007252283 7.949091364512948 10.24701143936773 -0.28594909473715274 -0.8702150617481915 -0.3013949969785777
P 2.447745270892657 8.350304541260128 5.871169517192329 0.7408469208642983 0.3520503572416001 0.20740292160113313
P 6.9281637262969875 3.978996784829415 1.6383587653222722 -0.34219480460375906 0.37252045217049395 -0.18168494800973872
Ni 5.253754641576142 2.8235790372290093 0.44477168458319316 -0.01578554496903088 1.516239698024266 0.10763820540596947
Ni 1.4434573528428842 1.0554620547301587 7.1757624012256365 -0.15480586423070758 -0.07545930668057972 -1.1336533769773378
Ni 6.7303830914839065 0.8066815353252461 9.162898910408941 0.9775143957575037 -0.854479910401122 -0.376465552861171
Ni 2.827244651112608 1.5746971642024643 9.221081050775163 -0.0183389075185039 -0.48735466110427034 0.2611451483195954
Ni 6.211039638744105 1.9384596848186906 2.4221771626242754 0.3369039885184649 0.4154031104666329 1.7177524793932093
Ni 4.373980223695602 6.7270244501915455 10.524722319775636 -0.4518819221189572 0.5690216392574587 -0.1601038794048533
Ni 8.190389878436731 7.117972102343523 0.29651385448175377 0.3246984475912085 -0.09332898787214895 0.16507125071245765
Ni 7.875110970024753 3.978012666816331 8.104751748366018 -0.18293527547707206 -0.48199442523362146 0.18059068650429544
Ni 3.1413498407933855 8.334694082135147 12.564596720133512 1.1269880491420203 -0.13317748732765453 -1.3784565936038
Ni 0.21529612972485815 4.853615868898293 10.080075229950062 -0.5531579327523247 -0.5416239639707963 0.6823522670625151
Ni 8.604974420113985 2.446562523555831 5.890198206406795 -0.34210970108912053 -0.07960675319004999 0.00633956906478263
Ni 3.5182218967765704 2.833230616641736 11.692533634316966 -0.01768096221953084 -0.3817545691742522 -0.622433993440328
Ni 1.063641971426071 3.3403132229432932 12.635002689654918 -0.5078214135990544 0.07842995927312946 -0.18058014498133415
Ni 2.9991493022055082 8.33791729434314 8.068967772833373 0.9434112834262075 0.012253877666688572 -0.10253379429986857
Ni 5.492407774051911 7.77580533675948 3.423818796365469 0.884400094999322 1.2675371463433975 0.3458773956616688
Ni 3.0879817529462144 8.326414850777365 3.528172323035472 0.4657242273186883 0.38165481037159427 -0.1766602411016377
Ni 3.410808575660382 4.216476198573982 9.277954946186377 0.39166874296417065 -0.2813691886759541 0.11978923894620659
Ni 7.296910037218009 6.036345148513195 11.438515620789207 -0.11347975178841102 -0.0380474416910248 -0.565588959426826
Ni 0.47164171778264596 0.10051817500066104 0.350877797529321 0.2507712612844391 -0.009736767671789683 0.1569527353703813
Ni 4.616678171491204 0.4275396878880298 1.4717403628225914 -0.9224652773021597 -1.4770591711700627 0.4470852720612623
Ni 5.949110760968049 5.7673559011386795 0.40027600748334335 0.4742579758213122 -0.4207844293832044 0.13548633796648923
Ni 7.98814008383946 8.740385447272141 11.542327431121732 0.19732831097395048 0.510385831892121 -0.34996390702621666
Ni 0.11398524315035484 5.051902105626354 5.79473785627705 -0.16947632175868874 -0.8983161908597819 -0.5395588539116515
Ni 8.086497713514149 8.825227254326762 2.38320789502726 -0.4232285200483227 0.4171481181821977 0.29818497468171223
P 8.548997065241297 1.5100884623526323 3.712458803881986 -0.06300873962205276 0.2569318815691962 0.03479705307452718
P 1.741744425469315 3.22477415676494 1.5471409569755397 -0.45763399411138606 -0.30635851163144007 1.0068748511974919
P 4.775608716301515 1.0217582699334258 8.161600363681483 -1.0560762526228071 -0.9124199772510155 -0.2705026782750954
P 8.481038750704728 1.7750960946466876 12.380667772069735 -0.16462233610049712 -0.9170579902436593 1.1505334405621281
P 6.417108533520595 7.79592107009115 1.3519000689246659 -0.7548568619901451 0.15525323618077133 -0.03155154955403598
P 1.6675112300236308 3.152942570415407 6.017199990286174 0.4414530134761494 0.48885027181319035 -0.4542830753612821
P 6.985901659266478 4.201434541603353 6.097357756742738 0.46657963334044805 -0.5058802307122836 -0.925480924200032
P 2.5356116608315276 8.40195719403862 10.346475073231435 -0.2596443954043528 0.3765038622982741 -0.5095291403187806
