# total energy = -381177.57710462186 ev
CRYSTAL
PRIMVEC
9.12907708043152 0.00000000000000 0.00000000000000

0.00000000000000 9.12907708043152 0.00000000000000

0.00000000000000 0.00000000000000 13.36132708846841

PRIMCOORD
 96 1
Ni 3.895075809718609 1.647780103693488 6.158075353649821 -1.8775920493930824 0.10848255568413574 -0.5512015803569023
Ni 3.9713675045106096 6.848076539377331 8.799182087448878 -1.618460074848774 -0.4480054698826865 -0.4390636873083664
Ni 9.232874400117913 1.891681648477247 9.966013212433989 -1.708029852788807 0.34910772967350845 -2.2343534389571067
Ni 1.4743824190124717 7.774604801652035 9.110674403929476 0.010479816485401307 0.6123341860021647 0.20658531079584422
Ni 3.0179632401457237 3.9814551343712243 8.002459255242139 1.266020452588555 0.32946784395539386 1.6340841545392761
Ni 7.238947091514974 3.6067065318569713 9.365822058419383 0.11635398801241252 0.1472239381183916 0.32281280053272143
Ni 7.921875068540218 3.074335289366808 2.246720574186914 0.4585138256131781 0.6668253750715096 0.3373886414643673
Ni 1.8901205763449709 0.9686772098461607 13.462338250923837 1.4968656643730285 -3.1744479993052552 -2.2207142509071174
Ni 2.232826119301976 7.581871732315106 11.393256730497797 2.0286281621687126 0.5623383137000121 0.6451571460694566
Ni 5.942152603433313 0.503332562106787 5.937239334301202 -0.07307923648417737 -0.45156953308486103 -0.31807322896520707
Ni 1.1612368267239475 6.397410534219751 2.7600494753863463 1.2332298884210955 0.23996337203565768 -1.4307330344100133
Ni 0.5544745632309063 8.29400362601375 3.834353755403784 -1.5682981092824022 -0.9196470911270742 1.1656160459268634
Ni 2.02923857765349 6.1525047909883295 7.4679664153043674 -0.48335145348214825 -0.07572130209271474 -0.33845359239377193
Ni 2.026919792147068 6.465102638669038 4.991617607905705 -0.7071199609254983 0.12474118363484321 1.0729725141575133
Ni 3.155483653014779 3.271176443262358 12.525375453870234 -2.361848274077687 -0.40971994403892664 -1.3927868941835433
Ni 6.513842779687883 1.3723832439602972 9.438534242199303 -1.141195450990654 0.238220421202622 0.4363786842770356
Ni 5.269330514422278 3.2941725877138417 13.126300585659315 1.459336557079319 -0.058942282862163 1.2192209757365131
Ni 6.387605905739841 5.058686196409759 1.1450336283170646 -0.770340559448041 -1.709793886667765 0.8981598677875758
Ni 8.441849024740142 5.315158479942901 3.950182568895638 -0.16455574452861982 -0.2887078884292124 0.20571267838290377
Ni 2.4124954797424882 4.699593960602253 1.0002209089026164 0.6531496773566299 0.3034187122768258 0.8217829343887332
Ni 4.424005390256327 0.9321061281976322 12.298205681039901 -0.19921832890781174 1.4550592698602036 1.0343512022408896
Ni 7.701919092194824 1.7390526135092617 11.57951363275498 -2.441622406083537 0.751403613334222 -0.7621032591399133
Ni 9.358764369147671 7.838070143544338 -0.00012506835211803337 -0.06308767248910424 1.1803667218734768 0.4601549607610268
Ni 7.931058919797937 8.66003396018693 9.546334032648252 2.067711758433736 -0.2608561563242669 0.5029633141758048
P 1.4882951320510032 2.201239513584575 5.227378754909635 -0.6694319594564212 -0.4504035378012179 -0.34184642012540484
Ni 2.3323969599261654 7.186400125471806 0.544944719962584 -0.2410730601600687 0.7711735968722977 -0.8711494006370029
P 5.470663174101921 2.7323600725535577 11.126805453117925 0.27619690044639533 -0.18262262933265966 -1.421734687566145
Ni 2.3201092225574884 0.1970228225238091 4.887974286122403 0.8083190955743434 0.6855304076801807 -0.25104636932269664
P 9.469956524534359 4.742984462618093 1.6889385464324773 -1.8962091502736378 -0.08852848115971206 -0.935662492718724
P 0.21643945596321382 0.515560047568604 8.237405175688101 0.5125396450103302 -0.1970686295546606 -0.8986650895587683
P 1.0497068954957713 2.4339761974456806 12.050513743570056 -0.8764528151277874 0.2931906067909144 0.22206643715057886
Ni 1.5464929966314749 5.408165514350093 12.245963626161751 0.6681880597469911 -0.6444506069207353 -0.251276997276264
Ni 1.8863867839350237 3.2096373365742075 10.194224612926853 0.5109054518410168 2.3018942621215586 0.5351365564742396
Ni 2.115061028621492 0.11056863944145873 2.3719961563482377 0.05955549096612969 -0.0018357676571581288 -0.9595773516631088
Ni 5.33652964872453 2.5931599095538664 7.726267252919935 1.1234784933268651 1.3768082593670998 -0.40743474754917575
Ni 1.3026188390781068 2.490768184199424 7.709338292907694 -0.6270354967680815 -1.9634918346806958 -1.0880623186111003
Ni 5.896032507455188 7.77944321235441 2.0324848773624806 0.12500832125330083 1.0735078178356932 2.2361321281240842
Ni 5.707882234670322 2.9390606293897994 3.6769839908551494 -0.0012636972037720173 0.5797418538884404 0.676469583029493
Ni 4.1735948137163525 5.463569881430701 12.777944144165005 -0.6404944504864646 0.7667986077330536 -0.3353050194624613
Ni 0.3200462614393286 9.177552194728475 11.426940285155455 -2.2659137302618912 -1.4872721071473223 1.2809739885745939
Ni 4.076726179824056 6.4291158179355135 1.5602021312574348 1.7964755444267253 -1.5036353789966943 0.6628411936127809
Ni 0.22253128890980972 6.749436864586429 10.745179004144859 -0.9430150764290534 -1.0711753130477744 0.07792653727414965
Ni 5.81901961559623 5.767750720304634 3.51676778016123 -0.9610961023004804 -0.7310142510445926 -0.6628879876903164
Ni 1.2459820466299112 8.370067093885828 6.6206575427504415 -1.1044793265165431 -0.5595430103430621 0.6332035732520063
Ni 3.4294381186140535 2.0086890257835854 3.661577760852639 -1.0797162606392503 0.9976309640017206 0.19623816323356527
Ni 2.082032028770175 0.8770349724201113 10.665599015890603 1.734663396215935 0.9696581329378786 -0.30121501975728776
Ni 7.169054879557626 7.2197942883950015 4.567329157245195 0.4949265599142572 1.6905268109080371 0.4625671697469453
Ni 5.089204700141919 6.774934376080274 10.796433292913582 -0.33045231935585023 0.150393851205941 0.3852175880221882
Ni 4.032276704899771 9.040214363395359 10.251211049016371 0.303938846446354 -1.5509287647660193 -1.5063226960208702
Ni 5.874944340054264 1.8759796363865158 1.5218015826188 0.02603859015560677 0.041685038443612085 -0.004527455556708332
Ni 6.130531103138103 8.81175008747522 11.1348089147458 1.771397261301859 -0.08322455244829538 1.4372440960556538
Ni 0.1657301730792693 4.466154337827784 6.391350653041945 -1.7949562795687215 0.7443657326508342 -1.3243019619382677
Ni 1.1410706960795143 2.6590718440277494 1.1271725895638576 -0.7696057381645456 2.5840661492044656 1.523698982515789
Ni 6.752467718083013 0.28890515466961797 0.12199824359122353 -1.0452508798725288 -1.2357901929491037 -0.07282264038868104
Ni 4.113945425925167 5.601473715525227 6.546702891618456 -0.6044946353530879 0.25378742240294355 -0.7068070576707699
Ni 4.0929120329850255 8.926292614046385 1.169070487523399 0.13744063347938265 0.5724100961137174 -0.8505368665929739
P 8.77333493231371 -0.4198772807522303 1.9304574021722358 0.5204822968961746 1.3352726020171586 -0.38401688284586766
Ni 7.718643560886812 1.7892534068156167 7.3932759605825495 0.5738422005745537 0.531132320410853 -0.2465906475441882
P 4.580276926866289 3.700206536411197 5.896807566075249 0.1568933428873556 -1.5163057753755111 -0.7846004118011649
Ni 6.190153103698896 4.976971830000379 11.691975642724124 2.0943165055054576 -1.1477059984156621 -0.12115912271053972
P 4.2283418872675815 7.906008733067142 12.485211167594432 -0.5914889671220394 -0.2873192356118019 0.3717295808380824
P 2.0961181942678486 5.6270533887102445 9.969607329968943 0.30433222523003073 -0.10662956163579701 -0.3331982575321036
P 4.712073408583666 0.5814555497042528 7.986492499924296 0.8679442634361441 -0.10852677865850986 -0.056858403749940785
Ni 7.885614375502785 6.81118594004091 1.8153771729777308 1.1181102870364164 -0.8592662760461718 1.6697692666457113
Ni 5.350652330529392 4.897475829252654 8.508479417557943 0.6810080943297949 0.5945177266460342 -0.1709220530662798
Ni 3.723996910544014 7.934573614364757 6.420852177618926 -0.909667097096227 1.089317016953808 1.646904703342712
Ni 6.122424482942423 6.663787866077569 6.825152514632543 0.5047628292783888 0.3816722938730911 0.16829978495208434
Ni 0.6489623338945609 4.466966825662711 8.602115445356445 -1.1607142377498718 1.2029980861197476 2.024723427797668
Ni 3.8145847396000176 2.2225559079054222 9.625058626406634 1.704171655384981 -0.4057635304943399 -0.11320001576446312
Ni 8.421509441636566 0.6753316722225127 5.235154902525266 0.9874787060590671 1.037727060691658 -0.2538792107858015
Ni 3.4597101372726957 7.612746270042346 3.418081547078664 0.3430386406612931 0.23158954614966568 0.27838439501601736
Ni 3.32162372164223 5.148224181634116 3.528753345087928 1.2903333183023067 -0.3790325422573988 0.15584150458407353
Ni 2.309172588554758 4.030889085226637 5.823080228955508 1.3292868167473688 0.22724309625551187 -1.4060537864957785
Ni 8.411348779161575 5.7300111168260965 13.224680081761504 -0.11902562130730468 -1.5750464837498293 -0.7908877874717734
Ni 0.6326660189043491 1.5542070665248866 3.299419068149041 -0.23849552924087958 0.9189091845197852 0.28889146519492825
Ni 5.932220167878246 8.129671114592092 8.688176165228846 -0.44906296461292333 -0.09332076034203284 -0.2934227774063785
Ni 6.174359800840197 6.967557896495639 13.395398382402618 -0.6269804751604299 0.6651320465294868 -2.7758362493643483
Ni 8.03317677284847 2.9151150609514342 4.542183115208032 0.43968255183928795 0.1084766421468648 0.9747484029765923
Ni 8.698896440111488 6.800231047884584 8.054060448929143 0.48382247958129576 -1.7009030119360384 -0.7360602981089324
Ni 7.781195995099423 8.446970436823223 6.814356468412485 -0.13354721196224742 -0.08904115913007246 1.0071725849435686
Ni 8.65141611169062 1.423807333557442 0.15091459434552065 1.8630632596492882 -3.1122368158838336 1.853343718368679
Ni 7.409724731155269 0.8013558386811853 3.136477828031236 0.043740378310744024 0.03048762706589588 -0.45860098601034566
Ni 8.674147512914994 4.277867128890963 11.243957069837654 0.6349061577654098 -0.6392186690978345 -0.3721360722478817
Ni 7.784290752133584 3.3255035792809284 13.377761006030937 -1.082541388792871 2.6554991083344714 -0.9352056076869635
Ni 1.380526380463165 4.0441079884286015 3.3998562581612597 -0.6069724074696191 -1.70318152355757 1.0233036861774762
Ni 7.254174391612264 6.230868786213234 9.742010316344512 -0.9786407960524629 -0.7210609964866227 0.4165318247544375
Ni 5.125912717942402 0.4805682962059455 3.3197285252991864 -0.7276054824733598 -0.717958446301899 1.2636820342633657
Ni 6.515568175202504 4.5809433494724665 5.565873967647893 0.3200653196945713 -0.33394439166950873 -0.1979677443301623
P 7.734254282209575 7.450203057672888 11.92840412524191 -0.9780571556348511 0.495745713381443 -0.8331549236711006
Ni 3.4505810604757587 2.2663663474539217 1.2584149363196593 0.8272964080077945 -0.006844790835975309 0.9813900766628261
P 7.395620307504002 4.836740081322634 7.573627263059792 0.49390351796638166 0.35357836385035235 0.7932514026079435
Ni 2.685865684426759 0.3508934119361779 8.204950394767312 -0.7002535728229682 0.8032172555714038 -0.20139091107909832
P 4.560923284056784 4.044272311810946 2.0487455889531843 0.4133655112113139 0.1347016372816648 0.15104125498195278
P 5.018636936501598 7.7714370120034975 4.9018696539150195 2.0407429431543758 -0.11355277111819155 -1.703283596353073
P -0.1123771095549319 6.774888730696288 5.723791476804344 0.2184969746317656 -0.22048340893417512 -0.20071676783020917
Ni 4.112311321178516 4.590191104267763 10.471111337993303 -1.0626551913919056 -0.3336014065077932 -0.11425802471533224
