# total energy = -340892.10496191843 ev
CRYSTAL
PRIMVEC
9.04126884489450 0.00000000000000 0.00000000000000

0.00000000000000 9.04126884489450 0.00000000000000

0.00000000000000 0.00000000000000 13.23281085996655

PRIMCOORD
 96 1
Ni 6.522280925041531 2.0773852164626865 11.46562178450622 0.30501948110504246 -0.5659810526589221 0.2740837107581344
Ni 4.65228433312119 0.37528769919308747 6.009707887473766 -0.6683271564280168 0.8427816481275873 0.04979892579999811
Ni 2.722208509790792 1.5204882625571248 4.841845383774242 0.7340011015870584 0.06500622966805579 -0.037214918487400425
Ni 3.3517882238627115 4.353578893343092 5.022367877972723 -0.43778327793404603 0.5354054938649101 -0.19571725773308873
Ni 5.080379371200165 4.2993584041382595 2.810450389495685 0.508682218937453 1.241692931586784 -0.5261127557090746
Ni 7.269749743455923 6.091328846010626 2.524952435232081 0.01687517848878384 -0.6758383772033973 0.19762424494781447
Ni 5.046908593972169 4.633171090803528 11.528120459456582 0.043134626405945065 0.39460365722277846 0.389766126624819
Ni 5.5687525486035705 7.6205148091872354 12.258968713371184 -0.022959437009650783 1.0912281179335916 0.5072128334807781
Ni 1.7835801443932793 6.442464603764182 0.4704651362214801 -0.01235132247650131 -0.9537563741059574 -0.7315822077329207
Ni 2.7376690794990233 1.4692785158744217 0.26376183985684454 0.3972876318128448 0.1945664319580972 0.9332302291281476
Ni 0.5231685005157621 8.799333522461282 4.45814749631063 0.9852338758889485 -0.6464704655642415 0.6386010901184938
Ni 8.822289304033914 2.2292423678190922 1.3823123592021787 -1.125245612529617 0.534771202715021 -0.2380774678668545
Ni 6.799169783120235 0.8967040018085835 5.049138170866935 0.33372224835637365 -0.03409462769086386 -1.6984206118338168
Ni 0.777275169383472 7.045318327159182 2.6477798806123523 -0.01700810452222232 -0.0138549036052213 -0.15053834720360526
Ni 7.437383908929793 3.5375320508135326 3.744144030362933 0.9059937620096977 0.46020021217666546 0.6569317701068815
Ni 7.512950833854586 3.9739450562209124 12.808183301147457 0.3514217225186657 -0.49332399131382776 -0.9139353854542775
Ni 7.824169389700634 8.753412918047184 6.926224925807857 -0.8063583723035468 0.3343331424674952 0.22176870340450192
Ni 7.260654227007689 0.4617927511547342 0.11666582066906722 -2.133949032295415 0.1693541943585277 0.677655118697162
Ni 1.8973102650715497 6.483774161072316 9.292674877089643 -0.0027564796992146073 0.6400828168703427 -0.45782708395879856
Ni 0.08420947380438364 4.763419609643751 1.312013781627669 -0.05601688168525191 -0.32225152871261276 0.8848135283876569
Ni 6.319620884100007 1.977840846586881 7.2016527148427905 0.2075571877908103 0.36535761587346754 -0.9047408634392032
Ni 3.378378595507102 4.302314899047378 0.3988646159346985 -0.32304728514103076 -0.04344084479245422 0.11329823190522423
Ni 5.963711336401453 5.548482023875001 4.670692356469703 -0.4033880882836279 0.6924911552687298 0.35980197616256104
Ni 5.458566605308708 2.7950901778715243 9.275022703815756 -0.5965383566204888 0.6980054002187398 0.9680149409075007
P 0.020038164119504768 5.436307001436388 12.419363534888692 1.1432060536627795 0.4557732867535635 0.030793845452405027
P 3.8546635964778155 6.305453215835213 12.806807220030736 0.145443192068885 -0.9336891710424373 -2.193799428794144
P 2.2601815897732256 8.320128191656792 1.2759779964311209 1.366639289253898 1.1331715522449128 2.0765869494361784
P 6.275788812786846 7.740112713339565 5.398986451938356 0.6561205870594958 0.08302297796045056 2.13274601312625
P 4.924544061556261 1.014213372859977 12.846942316517175 0.4783894814911826 0.1741205053989195 -0.7230836833436063
P 3.9562512931103813 6.409527261397464 8.27165794943116 -0.853754345089007 -0.5425881276562784 -0.2839058390548788
P 4.695610093379578 1.2656239353610232 3.6592428994926545 -0.10637219420935229 -1.3583505668825444 1.1639453430926598
P 0.04098045512253184 5.214895368930612 3.638560092905198 0.6950584017752739 -0.03097947910064987 -0.3285448179204923
Ni 1.563714568858326 1.0750068645080164 2.4661199947944015 0.22396082595981429 -0.2284880244062065 0.5835956804168917
Ni 1.8700689220710227 6.538591374020273 4.925119990381064 0.5605591103124024 -0.8238179625408909 -1.5203449784418912
Ni 6.013158035661287 5.585695886400779 9.089524799377251 -0.42995478302856277 1.8170150591409742 1.4049659527482383
Ni 8.697953775011927 2.6268502473856947 10.154104368537604 -0.17227136800532267 -0.9514277259727808 0.6754108027476755
Ni 2.355765883899203 5.30684507298483 7.15945349668127 0.03300268017826574 -0.3031402618044586 -0.3139345242064851
Ni 0.5252009777499204 0.18549428793096948 8.912099843881718 0.26265361454432185 -1.2930131791273152 1.4414406506355046
Ni 1.6140925188081887 1.2950351828820037 11.401138551046525 -1.3019400493032998 -0.49986050688076494 0.6204570722196153
Ni 4.01683683557521 6.811185629402247 1.5828694010126294 -0.03393599062581252 1.141327605693144 1.4237871992197995
Ni 5.464741791923165 7.877729866280494 7.785841642854357 0.3178562278583945 0.4939356567558976 -0.38314913552893365
Ni 5.18013169025918 2.967335390451358 4.888927791233667 0.45027549686378576 -0.46833955345434825 0.6794523198069008
Ni 0.7151372410596348 7.559865977840559 6.694465561120168 -0.018452550278232737 -0.5542465378308132 1.4560789693739697
Ni 4.854338609050753 4.629681161033132 7.2878648296941755 0.604111026761424 0.18431158699930839 -1.1392285570722702
Ni 8.14252150665767 7.239985886450369 9.10082638542128 -0.2346455593671701 -0.11870809006688589 0.15877770439426203
Ni 4.696939159898355 0.4019730041602482 10.683218407439409 0.6028995229518262 0.1366417917271711 -1.1597991821347702
Ni 8.23350379494652 6.922438442419666 4.721188747041308 -0.44647694905330204 0.12825151078094688 0.06862634291914632
Ni 7.282895748342337 6.087450141680315 6.840079716345852 -0.19805619027891053 0.43145296484064405 0.5831256827590087
Ni 2.3477553197111956 4.988483914758957 2.56654317600099 -0.7057192239232297 -0.19310861646564806 0.30016420989527015
Ni 2.399191098114779 5.1493009635310685 11.563756620570613 -0.39905295124338375 0.7052901068056112 -0.023303964833263094
Ni 1.235814872011293 3.1370671302949997 3.925142999429029 -1.7181368593158215 0.7728268162050045 -0.9751338113404692
Ni 3.7178149513878798 2.6311267675447554 2.3098398547238044 -0.5570474976147181 -0.6403764368513617 0.24502253172611996
Ni 1.2733361376774683 3.421116673291201 8.533972282147486 -0.2734885003762968 0.1622612920674883 -1.6462601277801776
Ni 3.6361180461928044 2.72313976048082 7.092972142808992 -0.8875797782788842 -0.6308127044223265 -0.083117851667102
Ni 4.1171858783773505 7.099864302042082 5.827597746467822 -0.04545633256058623 -1.1275367225566388 -0.23383591898168116
Ni 0.7837342518393553 7.268212727753935 11.511328110848922 -0.4560244835324211 -0.4201154283406377 -0.4351741224459731
P 0.2167282552491309 5.69745501047297 7.971604456469732 0.1287744731639524 -0.19244218652624276 0.3645402621784947
P 8.372775500084296 1.64677670564752 8.055751545519152 -0.33917735793367393 1.4725306871720898 -0.7695563729838488
P 2.071978537699223 3.3581532771227085 10.496742237712935 -0.6367974612508517 -0.4292230470688608 0.2257711396956757
P 3.8349536304170293 6.088643589166565 3.6553922230957334 0.5635418470898101 0.21952053080027356 1.3420130060647857
P 6.933658657044178 4.037134484110286 10.55194912934769 -0.05172622472969801 0.2015292364291755 -0.7907504905629607
P 6.026412535773725 7.784839870267413 9.861275753502403 1.2012543639557636 -1.1083287821696202 2.232116579206788
P 2.3769767005866362 8.523936473740388 5.695957776353858 0.48659669989232324 0.7996341662058357 1.2977028712935006
P 6.904916463417004 3.9210445922660226 1.6095863504207137 0.008467671151378966 0.018395728898368317 0.7143874411211891
Ni 5.336907291861947 3.097086639505644 0.2932282391177199 0.24639318682140146 -0.9427841913651699 0.29077376981930564
Ni 1.3538576779239646 1.1899304326725362 6.9999184998299935 -0.17747502369344917 0.6521065808040963 -1.0208187149720935
Ni 6.890260566635108 0.654779538569453 9.333895829963192 -0.20104226949042794 0.20818273718995112 -0.5267460184176993
Ni 2.7436815232744465 1.512224542841731 9.507272105274312 1.1005432246869304 0.7352653130114628 -1.9784926789649022
Ni 6.4098979534197085 1.822086908362494 2.4302587060863723 0.6168588133453957 -0.13233005172569468 -0.24245965609495015
Ni 3.913585545476964 6.983783451466654 10.54751619523778 0.5777831875001727 -0.24328986530572938 -0.7401054147125834
Ni 8.321809867660145 7.163532917179723 0.4178431433467152 -0.8502483888182776 -1.128653095549269 -0.5276299636845494
Ni 7.502707076264279 4.006529789103056 8.374014153914722 1.2985184252162605 -0.8339283115020154 -0.9894653974717925
Ni 3.2132669440382595 8.526558441702603 12.266749629330777 -0.9477675035123742 -0.6321777030906532 1.183862136621245
Ni 0.2028480993332965 5.028410157935303 10.187425060702935 -0.6007925039111525 -0.1323022838115528 0.31057974880163924
Ni 8.44633526332767 2.684289428295867 5.980383436133604 -0.027358337408294818 -0.8197389073755107 0.16675558039341604
Ni 3.8371235349374824 2.51112200629484 11.555909703348524 0.3125877803706036 0.8143694155334814 -0.13233082305664307
Ni 0.9854259728886269 3.29578660469734 12.615434299103105 0.1579156135042829 1.0881937019826422 -0.2295617170863595
Ni 2.8781703971983887 8.705015005972236 8.09641555623245 0.7266284632720711 -1.689339218357839 -0.7120431092587286
Ni 5.627168186547947 7.938234037325807 3.382425467437748 -0.4442326331038155 -0.04436772748209778 0.15801665785852143
Ni 2.9305735913673416 8.439337321249207 3.579250273473019 1.12360370605082 -0.8207881745756316 -0.8960844733157858
Ni 3.730870543585942 4.523057477659347 9.506067808265461 -0.7325119186360417 -0.08959831718512311 -0.4543398967411466
Ni 7.137539269278457 6.089348808135712 11.393476979835558 0.6267645024948819 -0.15793695366052155 -0.3682418793997981
Ni 0.7396571621407597 8.885641474762322 0.029371465938105485 -0.44153091790193627 1.2476702322161415 -0.8697314372435536
Ni 4.635729769883897 0.293010344538791 1.6788732100125616 -0.6382215952918879 -0.520532947628452 -0.9613110465247638
Ni 5.854004580354857 5.6908187191479165 0.5073589378304912 0.40329450012855705 -0.7750022265897685 -0.30266255083709165
Ni 7.810761188017998 8.56122266641685 11.289836915177396 0.15676967282529775 0.0679956513136829 -0.5638079562670032
Ni 0.2758590575583729 4.941189037481906 5.8365431778533905 -0.044845952670096965 -0.1436238794719591 0.08725244266076586
Ni 8.425468014855975 -0.10444564171137978 2.054605739632342 -0.6112653784180182 -0.27936629931331236 1.7453414447550715
P 8.582261698996412 1.3597706677422006 3.742464162613348 -1.258805937117987 2.595266131685343 -1.1947803261956456
P 1.8118069856968455 3.0728831628337514 1.498324496134459 -0.6802586177582801 0.5732436477586063 -0.12485096973983013
P 4.605387271672888 1.113983774456663 8.261244215986752 -0.1739263871102424 -0.8946217727273302 -0.19645567856101004
P 8.696082232363036 1.590060826244166 12.275523276608476 -0.8348184274164526 0.17363071024669452 -0.24868969616506204
P 6.335425022023976 7.698378216396176 1.2793042792355993 0.3380872101932887 0.42655244221523314 0.3229583249716503
P 1.6514239178288246 3.184343925034381 6.049842983960205 1.078911762460084 0.1514523743774424 0.8363034966024113
P 6.686172005217618 4.101634895980767 6.161223278868201 0.3757083629801723 -0.8492346028417825 -0.4121925739491353
P 2.058760202662127 8.472437406454958 10.320825365859116 1.2787903506597138 0.2023987835183224 -0.6460614030512809
