# total energy = -381165.61187178217 ev
CRYSTAL
PRIMVEC
9.27636237298216 0.00000000000000 0.00000000000000

0.00000000000000 9.27636237298216 0.00000000000000

0.00000000000000 0.00000000000000 13.57689400194541

PRIMCOORD
 96 1
Ni 2.622297713607152 5.111284826610637 13.461924484268797 1.627070185115288 -0.06752308255263854 -0.6911559813970742
Ni 5.147175071808298 2.089157351176244 10.076417784479297 -0.4523637468513822 -0.6019541283194213 0.942450462174835
Ni 1.4468991406553662 9.107003616202524 3.155297075333227 1.376637023896558 -0.8226355121970155 3.363112463956621
Ni 0.3273516889974745 3.416697539916824 5.344706855282973 0.45324049302938074 0.2971645038369979 -0.02660731817488321
Ni 3.8562394081517124 5.769034561938983 5.976671086714721 -1.104997146693226 3.05195370272306 3.9242367027438734
Ni 7.888024693822302 2.8159510500626643 10.289411408402527 0.6781672824468901 -1.6422836596309327 -0.8189709188612349
Ni 7.817839737718528 -0.14698303079152827 6.614567551747891 -0.8483347167353326 1.8721312833888273 0.647629004648717
Ni 2.942369313581333 7.398789353495434 3.5706276383300963 0.6164620921276093 -0.9493104225194618 0.2868212129294609
Ni 0.8772460891258492 8.75785062085624 12.299403357267744 0.5741710446688821 2.483347810846781 0.30451374511321755
Ni 3.430129712324736 5.081619020422444 2.608420275815552 -0.374552137888542 1.0500755549546819 -0.1838323333700447
Ni 3.3530709718602822 8.519086335215867 5.809485066774579 0.1126521136807931 -1.821875986777701 -0.3719743498590368
Ni 3.656120447270568 1.512937562873549 1.778545785332995 0.3622350110840858 -2.2496106222264936 -0.0742927971763043
Ni 2.729300551124605 1.2742474881304573 10.781846166038434 -0.46417205234021996 -0.5626329621222955 0.5796809187435178
Ni 3.926415087893327 0.465274496867174 3.9797402557710098 -1.0797016053512307 0.4062404701307584 -1.2823497858761979
Ni 0.2848891412093395 1.9437596506778867 12.459121905668958 -0.1782710372321833 0.22036102442369793 0.27609945563658256
Ni 4.879876696163272 1.9328692015018583 5.382151818778678 -0.5417057250513252 1.3139589281410466 1.2082709044829125
Ni 3.220725112921271 1.0415963251536302 7.1108028349608166 -0.6299683541441602 0.8723076826111622 1.2240338237441242
Ni 5.6662617455665645 3.928632138449605 6.554449303860322 -2.1843483106835735 -2.6152559445437085 -0.10951871025813396
Ni 6.277035982915856 0.2691332400803067 4.611527308685498 1.1617910157538185 -1.1314864512330063 1.6661221568114275
Ni 7.3726021831173005 3.935533751896765 4.364061795338895 -0.7501193473051597 0.4081081194671165 0.8251986449385014
Ni 9.217939631275884 5.577848737818073 4.869244129855295 -1.9086959698867385 1.6566062469011922 -0.9454982478622231
Ni 6.5124700545407315 6.329660785450447 3.42759541018258 0.9632342316894057 -1.159642344841932 -1.13111029884051
Ni 5.496856819797712 0.3973492625856142 7.273997236263442 0.08874291116336329 0.5727479390691104 0.28711714690332485
Ni 0.7984007213093485 3.5580136410647096 8.2190034404244 -0.031505783917765096 -0.3808438844345247 -0.5664140264312826
P 6.144328345852599 2.3902402378085754 8.225221385980356 0.47587674237165783 0.637641811529018 -1.00619556574228
Ni 5.243723449171249 8.301063995365613 2.9384333531167766 -0.32952877910031636 -0.48385024749543765 -1.1276786474511418
P 1.1724486897848554 7.03405206972008 13.050626355902947 1.93966207925095 -4.683901527645624 2.5170056081105425
Ni 6.546941016327889 5.716641668458396 5.697027728306953 0.30304461676685873 1.7579197956407142 0.1124983617117482
P 5.134271652043515 7.079255782526543 4.731222064910482 -1.8276373147415106 1.3430275633722288 1.4630088637245835
P 0.28591139631938917 0.579541653592248 10.72028822674361 0.6903813080145788 1.9659577797226848 -2.881078957954948
P 7.458761034860872 8.145638547372123 8.938456753933485 1.300108652521516 0.9229391316147847 -1.0482778396243109
Ni 6.416747273410035 7.969721615366837 12.730293162515851 -2.570372196657141 -1.1115984540598276 0.2768864703142522
Ni 6.567441776701844 2.4092660565990647 0.6414038575659268 -0.3340780890338956 -0.4006385505629487 -0.514270768768824
Ni 7.074599048722142 5.423499347835162 0.4153157208174132 -1.7942782796650905 -1.3749688921655159 2.184838877166747
Ni 9.00397106168962 6.713108491702845 8.566449585133215 0.047650769108743746 -0.4586909746209907 -0.3104342243627105
Ni 1.049963603822095 3.1675808341057112 10.607993224613786 0.3708528346600839 -0.3979869718727146 -1.1251605090149785
Ni 6.776605190689144 6.5343344401522305 10.338682806016221 -0.7923371183237903 1.4756553488440005 0.8371982405025388
Ni 7.660865137244291 0.5245318983462797 2.6531425454259026 -0.4435044966885394 0.3898039218412899 -1.2505691510304913
Ni 7.452323239521721 2.50431166329207 6.348677327878777 0.22702455248680256 -1.3403158208680208 0.854791785214586
Ni 5.254604621985118 4.121932973143031 13.055418524594888 0.34767613943330444 0.90426289536152 -1.7888558230979386
Ni 4.484564522708029 4.6019290567583795 4.521513200828164 3.0661875869342547 -3.2074491368216242 -2.8779051882126563
Ni 7.900492124565559 4.044772192694816 12.336494891365147 -0.17914135565227857 0.13736941392181504 -0.5469512897209806
Ni 0.8295628047139758 1.9524608783841173 3.003385513326005 0.2040473748653389 0.2547161048648 -0.5279415813876972
Ni 2.4304532677728714 0.9716340017416991 13.401900855275262 -1.5687899613171563 -0.9248818571634523 0.33138151603833893
Ni 0.1275156571622153 6.904554053964239 10.803337641891096 -1.0728876677531909 0.14777492552585517 0.16455060232229726
Ni 1.5395143404624092 5.979979037461034 1.64112019047508 -0.9023469092857299 1.9293781808264383 0.7566774601386517
Ni 7.803962299926927 9.01606743794647 11.504136191096098 0.732560769596106 0.5733575476286513 -1.1977944304316213
Ni 0.8673287303404217 4.965042977155706 12.050905384812715 -1.3499551437299977 -0.06416290783115401 -0.13833589160014242
Ni 3.900125877531432 4.415668980944516 10.697954457206807 -1.2317517612136724 0.03165593634238419 2.0180138769879763
Ni 8.364922472476158 7.0713801510525665 6.33033517697949 -0.19198221617068872 -0.6645507201047199 0.39379375972697345
Ni 5.719916224300933 1.914418517165299 3.150695072065571 -0.09561778390632565 0.7998231422881903 -0.9009824248380355
Ni 1.8658196558082176 8.362714698282039 9.594627652422174 0.08909155275203366 0.695086426799732 -0.19593785838432706
Ni 8.6804857604405 1.2275317282918887 4.637771992509025 -0.48157893496275767 -0.7296487381556337 0.2858922733572883
Ni 3.895070260154144 3.5793771031195596 1.1360482446683853 0.9124174061478545 -0.45611807168749186 -0.2983325560031701
Ni 5.793923041614693 4.177999306039042 2.2628062126333695 0.31492054226883825 0.750015988958076 0.38474167682703414
Ni 8.347334489820494 4.675945150434302 7.104096025119021 0.19581984474922406 0.10159611297694761 -0.7339417091040328
P 8.160146777790613 4.996962939348818 10.007881237931382 1.2776384964434575 -0.4719336985635098 -0.16242918510392026
Ni 6.38236907524448 5.181590375422494 8.096173273789281 1.0645236120592116 1.234202793857326 1.633516197850948
P 2.6120658861444954 3.174324749396148 12.202572978495125 0.14294459401674736 -0.5957724249887417 0.9045192343467003
Ni 8.331648161407662 6.787430705330051 12.996820672465368 1.6246273800017508 1.027265756149018 -0.8526739675406346
P 8.28533128514198 5.45630984079565 2.533027569995063 0.24452913702946918 -0.5579720663115165 -0.48246622266371747
P 9.141233392573517 1.9425351708727456 1.0241688235633366 -1.2551282311560834 -0.9590875565108836 0.3278706746716031
P 6.4114597469787435 2.4386164664738126 11.99145225209203 -0.7242771894310752 -0.035798754866164156 -0.31364373243894367
Ni 7.938720013027581 3.066524144732922 2.4176509603556338 0.1833016576775553 -0.26056562166704156 -0.7388985388886758
Ni 3.14959396787716 2.7661462616247623 8.883347741612404 -0.21578780323071872 -0.3073851531237416 -0.45590749833858263
Ni 0.8506609628110451 8.596284221112724 6.970743680885632 1.5041722253367706 -0.16081196121547142 -0.3849170260626339
Ni 0.02942833131689341 4.468080427149423 0.6729045281894 -0.7598080353478334 -0.0766687536076486 0.4099983945112939
Ni 2.561982806841788 3.5919744029330576 6.390331904522762 0.8522664476895709 -0.34703644896677655 0.08925636046467209
Ni 3.2993515585907924 7.1267600331487255 7.742753151849324 -0.7999810080222931 1.2986184411292345 0.5520593003715073
Ni 7.836559436557732 0.26210175756290505 0.317559561101209 0.6360225307580402 0.024813716609570168 -0.7935735618340526
Ni 3.266559618354625 8.317594472735019 1.173711202674853 -0.420935610249088 0.13175309617630213 0.7370792262917499
Ni 1.311325107684619 5.926834758645474 6.865428213645113 0.696456310564065 -0.26399393062230014 0.008889846290462109
Ni 6.837597271892199 7.49038415346486 1.4895620578661606 1.5188894769422874 0.817505904279934 -0.5588683528735406
Ni 0.7091565515113075 4.179131022222582 3.2149672749284597 -0.2772209708355355 0.2870420706910153 -2.5315259132139047
Ni 5.752773099072221 7.345236914744827 7.987870817933191 -0.400629037481252 0.03989246531956355 -0.6986592317526549
Ni 4.375103449218134 1.399645351811508 12.652918098101736 2.350750364392313 1.7470561134533331 -1.0528258640063093
Ni 4.035319579653612 4.9438650423440595 8.372938177018753 0.3523828008803544 0.24267408609860142 -1.1955971656699862
Ni 8.521609505723431 7.995982996642252 3.754513893067175 0.6088292581726998 -0.8825910668150414 0.8161203367863169
Ni 2.4025592467572685 6.573285884862744 11.125830372389077 -0.34651425791471935 -0.9168415033574789 0.6178561442616585
Ni 4.147257441840269 7.015926058059127 9.888852524509499 1.7051633298742892 0.5938119588282612 0.13108692334721295
Ni 6.039895060653511 4.237804012885597 10.151565594338756 0.5418263097895893 0.28043047891176864 0.41297907440617265
Ni 3.2801309361949396 2.851340371703677 3.5883454900560032 -0.7443976143300342 0.027413359015946333 0.3983345850201204
Ni 0.6686587372286945 8.96177289022305 1.2927482648226816 -0.8342005913267956 -0.4543488956022111 -3.152228782895739
Ni 4.7240987464076944 6.273668663451718 1.0081995661046201 0.08356779472032705 0.1025458784847266 0.1549130792325332
Ni 1.9973584712392947 1.2824199631935589 5.065281491385969 -0.07458873115016831 0.4706054666703895 0.04092913411419403
Ni 0.14731976273794214 0.900513060695964 8.598885313062432 -0.2500276982501952 0.5751542345177578 -0.0493816357569214
Ni 5.521680364938302 0.16133263541708068 0.7054877502769641 -0.683639618415371 -0.20100627404616994 1.0760776354453985
Ni 3.619413882202813 8.347807584290662 12.33853198049552 0.5078550950504672 -0.47382628760053236 -0.5357978442073223
P 2.1857799394364763 4.772558462332373 9.408407464965597 -0.6421798086086875 0.7030920707130279 -0.01663220924004232
Ni 2.125696941725116 5.1654958870746155 4.5039038825395314 1.2955629421323622 0.5603536791698156 1.147214146380908
P 3.8260726784068697 0.29862743356853727 9.111168702812435 0.14017500169141017 -0.5235825330880531 -0.10002979693109224
Ni 5.972724922251789 9.072588312588328 10.032129648618042 -1.6876623448760482 -0.22363686696149226 0.16137271881494786
P 4.944820507646555 6.384150136779231 12.449115493806792 -0.7758404062203478 -0.2233998112500217 -1.1936963491028474
P 0.4588200040761342 1.74291713354825 6.4599806868936795 -0.14276950189146378 -1.8930112121616303 2.9555383626161036
P 1.219340700504467 7.48867730282739 5.085456651448102 -0.05262662505678033 -0.16352781748473771 -0.621516366722065
Ni 1.7530376446649854 2.851609386206322 0.9526063276787777 0.23952757004981975 1.1093996466362956 -0.12853870300406248
