# total energy = -340873.4131711794 ev
CRYSTAL
PRIMVEC
9.18448270531170 0.00000000000000 0.00000000000000

0.00000000000000 9.18448270531170 0.00000000000000

0.00000000000000 0.00000000000000 13.44241882096288

PRIMCOORD
 96 1
Ni 4.293010907843479 7.544703535105302 11.03006960834619 -0.7005929584402579 -0.4136699298256102 0.022836281168225187
Ni 7.6600698224131225 6.121659784171946 2.5504977841531513 1.1053383320827286 -0.31902119470077317 0.17028467659259708
Ni 1.996541220249093 4.779393558664298 4.957281375117134 0.8607906831104981 0.9690019874111182 0.3041507053468439
Ni 5.669103583168396 6.605333012593609 6.039288750996229 1.493159676276351 -0.8354653169718321 -0.09461428234247576
Ni 8.483412774861947 3.0214743836778837 10.839186667308383 0.2976573843130164 -1.0742246413970598 0.28316073335873815
Ni 3.22778541877028 6.729130655028297 5.678319293118612 0.5763665096583042 0.30106049645729444 0.02278305933278657
Ni 5.7556214102872305 6.872849440458819 1.4445225821966354 1.2961599522864131 0.43940153026375944 -0.9946636538432805
Ni 0.8669710822131418 7.869319891972401 8.268498634816023 0.6865948443889529 -0.0696378149027962 0.14417126733499688
Ni 7.820936037061359 0.839801545463361 11.928492951596322 0.0005939248302570416 -0.27055667144148243 0.04111116821801307
Ni 3.2678389478642544 2.8752666034332206 11.4982284085758 -0.08332251147874037 -2.9077212431328245 2.0846720404371584
Ni 1.3607086667873325 4.289575911310311 11.47380319525947 -0.6473641810231044 0.5807070460151871 -0.391509591678487
Ni 6.499766568336296 0.05840963623619312 0.8406299858037133 1.5449085267138685 0.05244896182833548 0.9673482538577792
Ni 3.916355271947152 1.3227675687164298 9.948666571429348 -0.4717436940398907 -0.816240150193633 -0.27062454856494034
Ni 0.359102252542875 3.709364585134289 6.387703021010633 -0.2592186207208439 0.15083145296399186 -0.5014736170041557
Ni 1.4832204816427605 6.8384719216790115 11.41797715400932 0.5012576443386076 -0.3748264745958512 0.8243884903323802
Ni 4.514696766990752 8.628022455115241 5.031886928162388 0.3319163054958864 1.3307310053930632 -0.20139116818941447
Ni 7.100541951297782 8.259366503658459 4.284247074442545 -1.5074156719747331 -0.28244648090053287 0.32499103913096283
Ni 5.423124767255804 6.047522639744852 3.7393721270411526 -0.5484641268210813 2.4610586604312776 -0.4186581270688209
Ni 6.763003027259111 4.492681561937264 4.264606976617608 0.8152417908361055 -2.4570672798836974 1.0167257758496424
Ni 7.307697958799407 1.4696641851642678 3.037260672558123 -0.27022114247893464 -1.5790139530380096 -0.09649195898116285
Ni 6.049855498352939 2.774136264324358 8.883704677009899 0.3180542028018135 0.5897323894422488 0.6163042263935063
Ni 8.175007029976241 5.455692942941938 7.579951742845924 0.9469897448060852 1.0916420655425587 -1.7788274923276592
Ni 4.493498980898366 3.9076483823390147 3.6289287224653584 -0.9363469203802584 -0.64914698395514 -0.5747991651711842
Ni 5.352679784877729 8.942875706862667 9.143789021466983 0.042238854064553064 -0.9730478753457176 -0.8891064993360558
P 7.6551744931292225 4.6918746229301815 12.051612779207087 0.9257740299604185 0.596672825315824 -0.28545030072386324
P 7.969072558674912 2.495534165829377 4.889250074794987 0.8246170614034184 2.1129266644074773 0.18534799868362273
P 5.445443060238687 8.465732645647108 6.9729997952626315 1.0438730256883957 1.5380693923048478 0.24858119561165576
P 8.337416237719589 1.3665683667556783 1.0333562525212197 0.13151475491325093 0.10290017650035183 -0.733330557882595
P 6.253429557598052 1.2227026296018118 10.359668498864274 0.7438718237335512 0.6963226131996783 0.7062319018935902
P 1.2468394501610787 6.49141787355381 6.442144960716536 -1.1529780454478789 0.33830421130010124 -0.1630786457624611
P 8.90942582083647 0.9157103766050227 7.001685690107669 1.0391524802842749 -0.2922336421942838 0.34344384651951176
P 8.784379088753356 7.151763811365908 9.875405626652693 -1.2559957213627013 -1.420511099571689 0.42107599248169414
Ni 3.0218233940208257 3.2890918408528935 1.581110535251886 0.02238376701183887 -0.4080027042375038 1.5975588059197325
Ni 7.090181854802024 2.9547031943834114 13.32175969113881 1.1675122345083118 -0.17937249782647818 -0.02417762568746804
Ni 1.5076603901314247 1.269607782796704 1.8227111082570955 -0.9288585824230133 0.22079296975479393 -0.3401417787294723
Ni 2.4968842847876007 5.000638562641538 13.48919832161361 -1.1880679471724764 1.5067340725266762 -2.4151914655855182
Ni 5.13779044293512 5.791863379056967 12.788955909361864 0.3063834513321046 1.5626293410323993 -1.612325679816262
Ni 5.4877192341482415 2.2788079273449675 1.4498991783744877 -0.40714112756815685 -1.0745745685373107 1.7423139707826572
Ni 5.884341935453946 2.0218261011469862 4.823529590322425 -1.4806643720228176 -0.26509719098880796 0.4844853099762753
Ni 4.583378328688696 3.766666572755776 13.385167522865244 0.09589109217237034 -1.0619216556599906 0.0010598087230820458
Ni -0.11574836178851618 4.515403972159345 3.9524071219248125 0.35559796538354244 -0.9354107817192342 0.09245558412826013
Ni 5.901507733637079 3.703036476547784 11.38582319849336 -0.6563810398097341 -0.6499301419780678 -1.3945730395496885
Ni 2.064460469882191 1.9465776343121017 6.582860420301213 -0.9685173344652158 -0.108007158709614 -0.10512238096265122
Ni 3.8729218532162637 3.6347865855371624 9.542706006553397 -0.6647803196170229 0.6279734352013184 -2.6357810610802543
Ni 4.244902587413707 2.273177839444347 7.344829903943647 0.45058531479472075 -0.4659581977063652 0.18389943916255425
Ni 1.867398208877763 2.8340650140006205 3.877855757327542 -0.7168042780927978 -1.0340087312998063 -0.19042721297874302
Ni 3.4048622453999116 -0.11652628747396897 7.208362267611885 1.1975476045281375 0.829320894636991 2.990851950315733
Ni 8.508706840242548 8.589677239805143 2.441143659226645 1.2129310289627433 0.43629306654176475 -0.6233529057101717
Ni 2.0259866718141657 7.88457531775206 1.9118345731204747 -1.4418659110983814 1.7227100805088007 -1.1009797980037168
Ni 8.84779794185904 0.5205158623605678 4.630725255501892 1.713528671119849 1.362724270470208 0.6878911946028734
Ni 3.8090254070097105 5.70185544850871 1.6239386965722507 2.7611084562358705 -0.30399695337779903 0.2724798566061243
Ni 2.526697115661033 4.95414671116855 7.313778086352769 0.09582270082828014 0.1579346396676764 0.061730130019945297
Ni 6.582647340302364 7.2764064262098245 10.645024865943459 0.8146442664614227 0.16979076767531404 -0.06650775391424676
Ni 7.56485429016886 4.818712329141551 9.59777983866968 -1.0892062024075564 0.45888123625492583 1.5036880866115006
Ni 6.637662391729309 1.1507973144730055 7.221656806333169 0.06974991500062827 -0.635106446701674 -0.36541572280491263
Ni 8.53972283835086 2.6329707650869394 8.291969580378886 0.2542790173273814 1.1181442255981453 0.4032885865912861
P 7.610482800267201 6.386255546535694 4.987110738059443 1.30382415369989 -1.8838668266582008 -0.44242746157427676
P 3.5582522911230168 4.8948425063164995 11.434403601334377 0.49895290746483095 2.0579860465055395 -0.3520732400597356
P 5.8019295721060375 5.146745313576402 7.762499765825309 0.29642119791307014 -0.04065788273067837 0.6665734069617036
P 5.888291263018819 7.878366607440772 12.689750637828809 0.8361294329183923 0.02114218129525391 -0.3141409837903364
P -0.06690895653510706 7.133707118360002 1.044676127460069 0.04750344489760206 -0.8228298875960087 -0.885457589729559
P 2.889768901630741 8.165491905889711 9.435946497992184 0.15025218342175414 0.3960918117325308 -0.46013387771510433
P 1.6444540755993569 3.384592092061136 8.36843039893136 -0.055275632643853184 -1.362718614043253 0.23495460596715667
P 5.827150161624967 4.489044506784498 1.737311951132218 0.3565415602437343 0.5589120616272826 0.40439364673000683
Ni 0.5301457924809604 -0.013438735099817248 13.33181486280863 0.05292975811949594 -0.2858295384401529 0.2645361762790154
Ni 1.3370310703635158 1.2940293223199504 9.00444480515076 0.9656112165620144 -0.11016765669604252 0.013415244964641412
Ni 2.8555842569878216 0.0182954895563395 12.004012360671123 -0.48772798528328903 0.6460488046457906 0.28557191390339204
Ni 5.450650661934693 1.2214627244360958 12.42119820031402 -1.1233640792361879 0.24653485460558833 -0.5047258053928663
Ni 7.920725441694707 3.357957092205019 2.1656541819217456 -0.07388039222923405 1.986151738172057 -1.221430324683006
Ni 7.207816709338969 7.593886440012027 8.277814455627768 -0.5344984086696085 -0.7418992733882125 -0.4701346976815581
Ni 4.252048114961313 8.564778107181027 0.5960802754006419 -0.7257568593003952 1.1296925925573769 -0.7126208361390696
Ni 4.239630694338738 6.892265436905658 7.877876156064111 -0.3859377540176644 -0.7983578705965735 1.7394101668723012
Ni 3.54372243947737 1.26142440870298 3.0223257852250085 1.1622985515178563 -0.920188565452841 0.7739375327706801
Ni -0.0765021487246636 4.972111559347366 0.38881956479613405 -0.2182609473615596 0.20753790451710064 -0.2578757335397043
Ni 5.273344223237337 5.518909737428024 9.809309496837333 -0.7740869138643507 0.15649353634577565 0.16019283957423378
Ni 1.7116753045465702 5.748062581017718 2.2533659917927507 -3.066803880362015 -3.3578458162410425 -0.30519045946526796
Ni 0.7149182971724677 4.983977911007401 9.400780950595944 -2.823469020750963 0.0011076312418819634 -0.8457376454321176
Ni 0.5452864122267563 8.86258495902054 10.760427891182115 0.9532406108118037 0.7729090915061656 0.3890559879316719
Ni 1.6141269136942198 2.8325220209055075 13.192376046320502 -1.2128739504725627 -1.7757084870827033 1.1082076832107237
Ni 8.557008034809208 8.099703456245102 6.285943544836203 -0.31910629821541175 -1.900225213411566 0.2312740717917759
Ni 4.072564953861922 7.841619492122041 2.8153938791014825 0.4512658858015131 1.046854991134855 0.9333909230757281
Ni 1.7675353283827433 8.730649864905672 5.996623155019813 -2.599886404066174 -0.319854746345662 -2.9932194221066446
Ni 6.972115329577754 3.6786424904726647 6.692469873847029 -0.27038312197809566 -1.0752281429609094 -0.8410150431454678
Ni 8.204985181538435 0.4321436881827852 9.163495247567425 -1.3194677737744178 -0.0034316513893682837 0.15300866312096875
Ni 8.341034923906939 7.3814401704700146 12.162740427744701 0.12474966827527545 -0.6577933467762284 1.3831601697270566
Ni 2.6233729806560286 5.825377556462129 9.530191230414106 3.241750481206656 1.5043789420309381 0.6259998564147154
Ni 4.492791775729772 4.281980344109963 6.153468403138047 0.4563065335492141 0.5542491089339745 -0.9142205207948643
Ni 0.7014171075902292 6.795644678806918 4.004724690780122 -0.807540565537106 1.9200311923938997 1.6933131154039225
P 0.8896402224355099 3.5674459583147318 1.9296588987138423 -0.12074826042536625 0.3166853474787449 0.16808844027222666
P 1.3210408859671363 1.601847260312279 11.34342578941205 -0.5400579050352571 1.0226318569214323 -0.32681395127231455
P 1.4885934040275288 -0.03262420103065941 3.611400137215221 0.7637824466145491 0.2068676179229534 0.5106725098946044
P 3.5749864186188254 1.6231001533009184 0.20806618973808771 0.1658191846220757 0.054997953502434305 0.14601860495638078
P 3.2764815460934287 5.987456122827954 3.6639059879660647 -0.3159410131135526 -0.37148044094175375 0.9548118119536653
P 2.645167758124499 7.340780465517247 -0.11195608887796768 -0.7044385574385933 -0.7595936053441821 -0.7172531927047583
P 5.678811581391815 0.11789844919069442 3.154828480371293 -1.9071003432648446 0.4561255278866596 -1.307719117878922
P 3.6752534163530415 2.3091626426982317 5.071986379669907 -0.10885922229726414 0.2547238181742839 0.5509074461552512
