# total energy = -340893.86653656815 ev
CRYSTAL
PRIMVEC
9.02482253224469 0.00000000000000 0.00000000000000
0.00000000000000 9.02482253224469 0.00000000000000
0.00000000000000 0.00000000000000 13.20874001898434
PRIMCOORD
 96 1
Ni 6.545785009318191 1.8019953407383231 11.380927541544205 -0.5467617994179939 0.07256115919717826 -0.009497912188106222
Ni 4.605773057525127 0.48651825565218887 5.946984424074845 -0.5800958947937493 -1.4008617007718778 0.4064451299423968
Ni 2.7855024511498554 1.6620113183705676 4.585361616393726 -0.1116378134836658 0.4154265075054007 0.7154601053600775
Ni 3.577556976266463 4.525452136947922 5.067427024606275 0.26415719567304186 -0.1912995882813673 -0.5464573808036975
Ni 5.100874821892032 4.857989772960087 2.42302406388972 0.7327433179205574 -1.5312156026078079 0.1616534832801603
Ni 7.2634027981515645 6.245177195441099 2.752596143216304 -0.0348854990232754 -0.6034078300468124 -1.2013888326510986
Ni 5.049911649026923 4.54183218985215 11.19047129665734 0.6026488403936008 0.5306281270809249 1.194107211388021
Ni 5.466560631081733 8.046107607120085 12.536837641840059 0.04395892207945333 -0.6458405452897265 -0.005148119859842747
Ni 2.0806999103186876 6.416910543493192 0.5193469501119237 -0.16924235137101176 0.26196738711057466 -0.6126977399891707
Ni 2.7085207149112533 1.5668987136556056 0.4519540878186341 0.8568790067609179 -0.4502114763950698 0.13350761697356364
Ni 0.47498362996794996 9.246833171169003 5.036215578345129 -0.18064082301594053 -0.3804749311308802 -0.8745296299631455
Ni 8.825653728200736 2.3927963232850806 1.4726949085700958 -0.6388121776880353 -0.09528482604693912 0.2299018740345976
Ni 6.837124330450026 0.7384967157721783 4.842865975352977 -0.6554999227563614 -0.06379266897592885 -0.16203812031308867
Ni 0.7502822315229392 7.468600188169981 2.3912575910425624 0.21213760807264112 -0.5397961667334381 0.6758820859571392
Ni 7.557476640512038 3.8643297371946947 3.5795550719761025 0.6514735752057876 -0.07762006177732439 0.3789266128071539
Ni 7.649232011243324 3.476894105691391 12.565078116522102 0.7623529132568742 1.2572954140107313 -0.06718266849408429
Ni 7.910996988922181 8.856906688645552 6.968363299779656 -0.3062826640881822 1.1391761065677801 -0.12226521129052491
Ni 7.05839492940642 0.66470705926483 0.40935512048059786 -0.22988721874657828 -0.31718825525709243 -0.2120555898817961
Ni 1.7335691362645742 6.278884907615915 9.297618555030137 0.12815843684650832 0.1730136454879859 -1.0358550404799256
Ni 0.1444467971121857 4.93198429293902 1.3607771818094243 -0.36396150685688927 -0.3861580975585866 0.9086039459390352
Ni 6.290680350671467 1.9749921639455639 6.962009824713774 0.20007913424621024 0.4564420306858139 -0.31513420094154115
Ni 3.572539174936022 4.353321696704211 0.4332492406289358 0.10610402814963016 0.3874968709746681 0.2334911340477527
Ni 6.004909345044815 5.643690823010813 4.685906261793567 -0.5945606640688277 0.1393242236553407 0.7880140654684041
Ni 5.247654535629972 2.679839828889415 9.400039461035371 0.680612401553273 0.1589394267831069 -0.06804527360469573
P 0.46187507523329946 5.502813343211917 12.515294487962548 -1.2943061869071257 -0.2052326534226917 -0.8303344235031701
P 4.00116409649712 6.162545920294482 12.426426157960773 0.2773371846984256 0.17028184837911964 -0.24548455896420301
P 2.5269773847616968 8.37643416161074 1.5001032946142498 0.591975934060787 0.5045597121286471 0.12172116586159681
P 6.194331345268967 7.841108763197476 6.20339226709588 -0.7605968497977159 0.25696659146187356 -1.5853892604367341
P 4.674163162708729 1.101154697000795 12.51343176459096 0.02735242387102386 -0.33864539668960386 0.33621056199586613
P 3.8632377336677464 5.885601191108787 8.034242672931 -0.16747368950636318 1.521912322929011 0.5224813296040743
P 4.781287806220124 0.9864311529134436 3.8346822926791693 0.5146212101297073 1.0161130819663082 -1.3611217018697785
P 0.01033883669811752 5.584361639654122 3.652889877427598 2.017677319584164 0.6566931717335142 0.8352280041500454
Ni 1.5567728627693558 1.0874279419223762 2.5440433241787184 -0.20316548648101784 -0.6533103713042103 0.6180654320589871
Ni 1.4625085913728495 6.9017871839259435 4.8762181095198445 0.2824670497258232 -0.7699235265152805 -0.42097751923061694
Ni 6.080447109677535 5.439350791133388 9.172955071400795 -0.4359999607813781 0.911056778354902 0.8106356595226619
Ni 8.62012241974846 2.2565485774475453 10.099812468266801 -0.21730912497125154 0.29243804489560604 0.03393830461865768
Ni 2.1706773910102304 5.273420403972434 6.770839716364251 -0.4847233941290103 0.5765585710644523 1.4470441128652112
Ni 0.16393951130934356 0.12197498899564187 9.093147663225933 1.4433399245407463 -0.703458195803195 0.4434962691584233
Ni 1.4799084492237315 1.1756726566868605 11.30277167589357 -0.07812528354851705 0.08933863576583324 0.5457207597479892
Ni 4.282919056094911 6.730153108921755 1.4307177515048424 0.11351857544614644 1.6745240077218773 -0.08248098941405149
Ni 5.5374867113981665 7.680376673817699 8.31613029742008 -1.151748543916152 -0.04859770640304533 -1.3592936475221042
Ni 5.326648807294273 3.180482834293894 4.229742094261532 -0.08446099595855777 -1.0385796384999402 1.0533580823606956
Ni 0.603822898985055 7.454449266432334 7.155966798262651 1.0541612949882813 -0.9204716439108986 0.1308876628522133
Ni 5.078141293921923 4.243318134803587 7.45181672569836 0.647049220885847 -0.2809426426614968 -1.6840275763369383
Ni 7.981083760742695 6.974446030169436 9.245391907009882 0.6206730448851633 0.9314553966159119 -0.7101456351256995
Ni 4.873485393255711 0.3933784771437635 10.359060422940155 -1.5021441391631485 -0.2442224044223278 0.23113960309644066
Ni 7.991299859854313 7.237745227679542 5.077373281524043 0.47621587087863143 0.20788860298830006 -1.3996792504280022
Ni 7.13275946710936 6.068768989314961 6.9291468359284 0.09463176584397251 -1.182758104923789 1.046446699952843
Ni 2.265537300694163 5.237330138647913 2.8075437752313954 0.20981513058705153 0.5573002370554724 0.14630785406202546
Ni 2.222055705712031 5.122741966898613 11.385497711676821 1.1971012610193383 -0.05421248148666147 0.29556116390562004
Ni 0.9223639377249518 3.248665368559151 3.6440798456672083 0.489465536799686 0.4538701561935796 0.35303483264205654
Ni 3.860701758534915 2.714594420478496 2.3971092859754 -0.19501508945974155 -0.506764690199766 0.3127836984314936
Ni 1.194823330109875 3.3470539838549582 8.169896585445615 -0.4788597362593817 0.6556924983831418 -0.20376198241443616
Ni 3.469457651921097 2.5992120643459606 6.994040724861258 0.10386999661278885 0.2662421032265286 0.07866675787428387
Ni 3.8757010135910184 6.9048556235884435 5.981525127369805 0.680574349226486 0.6129774760131185 0.06660365606216272
Ni 0.6960944895654435 7.278302780159763 11.261758369875244 0.5107745826901074 0.48229884384791777 0.32809307509505425
P 0.14537815879797983 5.4869116059021374 8.104882666373017 -0.5097242870487222 -0.21064174025340496 -1.193556995311506
P 8.526643307912652 1.8538970951472564 7.83171302045445 -0.4845279902887526 -1.4307289206449554 0.4279801758006952
P 1.7971851103262277 3.1221915055289315 10.358915123297313 -0.1427309353440445 0.5613191284068785 0.1706831975825964
P 4.0541759040780745 6.241134074944628 3.7479537481008616 -0.6199356524985065 -0.06891636335573938 0.24372952394630926
P 7.009778210400869 3.8784174851745843 10.318271835002994 -0.40245863449082303 -0.6424559450882097 0.7352681412249401
P 6.067722109900696 7.636479936998876 10.400178416899907 1.3515636258676982 -0.7147062579131885 0.02494638553269252
P 2.381244550438022 8.723537861197245 5.859608799720652 0.4829267072399037 -1.1326563031713912 0.03579335554952545
P 7.071607269600243 3.9355626614773778 1.4835265005787206 -0.7654552063312817 0.39267995783750437 -0.49710479851249867
Ni 5.465676198473131 2.793254773708936 0.4409907334009725 -0.7908592482266831 0.5737054178863732 -1.3662878194517503
Ni 1.5363857886588046 1.0422948044160165 7.216991745773999 -1.2323328305281227 0.6847809311086658 -1.0173040169506158
Ni 6.851789667072268 0.5206465245572178 8.973819654680323 -0.3297686630252643 0.769112600578211 0.9637808482214951
Ni 2.679280289892136 1.4678061622019305 9.148532096651802 0.7460112386740572 0.47348664487292647 1.025926211401988
Ni 6.373221377592715 1.9495331395693507 2.337141145183107 1.0779100606684469 -0.5445959021149267 1.9427031800701187
Ni 3.8505759076486656 7.0048687069408695 10.02989807055674 1.113572804177379 -0.6033448380193608 1.6355144592278994
Ni 8.377047849543242 7.130413013249802 0.3354120419901245 -0.4549865291862099 0.4183318540776538 0.13963969801323048
Ni 7.534147474254502 3.775651830948446 7.965266856764762 0.9991625701548985 0.6210677092204206 0.33594239593614406
Ni 2.961739185647794 8.450329408541771 12.27202859151955 0.7309232339926832 -0.725092486243519 -0.10500308177596755
Ni 0.03609568021804367 4.673179457052221 10.244276412541808 0.16916110451111513 0.12166151626825498 0.20341565481861096
Ni 8.594347526583459 2.420493503650411 5.611971279240846 -0.08307517135462467 0.23316254706374034 0.9612434265116218
Ni 3.5411237676855443 2.807324472043752 11.780664006165118 -0.11267088273387048 -0.14661844332390878 -1.282365726715798
Ni 1.1687776922687725 3.27098375469257 12.831670471775872 -0.1694917483776565 0.5604153856456864 -1.392924448202672
Ni 3.0011235111982346 8.268596557118942 8.146305699334514 0.48013680319959245 -0.26073505736537034 -1.6474220092987626
Ni 5.637445645815371 7.810288994234425 3.69600325965023 -0.29630189872638646 0.7818788991049438 0.03085992280365008
Ni 3.1727756358474974 8.367436413541588 3.80003599896053 0.24108488723461063 -0.31772561581780123 -0.7858057449631757
Ni 3.501315275475876 4.234861876086638 9.418359850785006 -0.8124480301410525 -0.001070864466675575 -0.6157246997409526
Ni 7.447066961597261 6.216703880337607 11.407239411650142 -0.5256784963851334 -0.9603365984266364 0.3449158030793479
Ni 0.8485273521404122 9.026988494173418 0.20906542895767388 -0.44148489515534933 -1.35478650368037 0.6314292549604029
Ni 4.702898197665787 0.2745360040506326 1.6543420241788251 -0.5542925605774002 -0.35840843824914403 -0.42353165311103835
Ni 6.297891183878342 5.6057685187113275 0.23323841612239782 -0.6879133060900604 0.167711259438466 0.4068089410397187
Ni 7.875394064014645 8.755214988301288 11.250082054477177 -0.05910400525100788 0.3014209651205067 0.27613879351495024
Ni 0.007697271141606522 4.799662344904977 5.818846383768847 -0.47426877445458965 0.24053055739303736 -0.2934104361112043
Ni 7.778025253665492 8.682844936378974 2.6564754658239855 1.1302641487901308 1.071182512136626 1.1947682420107875
P 8.431241908876512 1.5453023133251278 3.5898451746325213 0.4451883121488655 0.417764668720274 -1.06049315074358
P 1.9583594160103066 3.425254071136024 1.6227993669305791 -0.42851445103761043 -0.9028747567647418 0.5468106503780583
P 4.6096266567483255 1.0435492547486267 8.118369361171958 0.4581772682093658 -0.5685585835781112 0.4034382247952729
P 8.728817382381251 1.4897996547240258 12.555528049313697 -0.9855418940476703 1.2451929743202428 -1.1315191042431545
P 6.485589442997972 7.742214757839609 1.3795208357360307 -1.88215344351152 -0.676473439684235 -1.3703679030583948
P 1.8418760315282858 3.330240739468966 5.799931258214042 -0.8875589523432778 -0.11494219526655045 -0.5406513156448818
P 6.77510574997738 3.9526286008943994 5.736965071375035 -0.03662793563567886 -0.40439107562684545 1.42800303707336
P 2.1845214687816275 8.517230418006806 10.122306838439687 -0.3839068396305646 -0.6955119443729247 0.14530795204260136
