# total energy = -340871.0132918874 ev
CRYSTAL
PRIMVEC
9.20820190638256 0.00000000000000 0.00000000000000
0.00000000000000 9.20820190638256 0.00000000000000
0.00000000000000 0.00000000000000 13.47713426930265
PRIMCOORD
 96 1
Ni 0.8214655437568039 5.310858139073423 2.4414369003561975 -0.9621885640337107 3.4045115957286978 -0.5280734789798712
Ni 4.672628448933418 5.450841226166501 4.639112435224605 -2.065582370795559 0.11056437791382895 0.39318132295395514
Ni 8.138043196769827 7.218300354504471 8.637252977747943 -0.29340426546361725 1.540319107570973 1.126831211849182
Ni 3.0098389529456013 7.1157209840126345 5.524830050209495 0.7398709301042742 -0.1779393649243774 -2.2808847497494265
Ni 5.246345475728198 4.035835238308381 8.9442885034094 0.22575211353228217 -0.9897322779799342 1.0386302892322177
Ni 2.1667451842865333 3.6947818519280733 1.5920539297181415 0.6967481307728709 1.0576965618350493 -0.05005655033675895
Ni 0.7756832841384592 6.427730170161869 13.46255249533644 -0.7822771629846269 -0.3558486479417678 -0.7630142009899569
Ni 1.8073122266762702 1.327758273727946 7.539607672475201 0.19325774044900265 -1.5846508396088128 -1.9999117680706266
Ni 6.577031957698191 0.49552373770990327 5.5294792714088965 0.3578489662012482 0.8828574331025504 -0.164542117681865
Ni 7.3453735423668896 5.494672267777016 7.533987906782996 -0.8640500705880604 -0.5231050792310024 -0.20306675611962446
Ni 3.952418136218116 7.29587024831266 2.508256218307186 -0.7425369069722115 -0.32354016561704924 2.2984857506606415
Ni 7.022165651499435 1.6371630697688961 2.9034197622118354 2.0799715496376954 0.4914290882839601 1.5221326664699333
Ni 2.365264811614495 3.3386270142365797 10.850844889806218 1.2128574954123306 -0.39993946761339505 -0.4198490620531285
Ni 7.954615812551032 1.2120480071569935 9.407781510396157 0.6626889843056329 -0.9731815727101045 -0.23086912304387336
Ni 8.637026455978274 1.346349633604339 6.818324604224683 -0.6135611164307304 0.07167181461368947 1.6383722403916685
Ni 2.493452191921214 4.801810315058192 9.010596766148332 -0.5156010575444733 -0.6905851964952687 -0.4025884752004679
Ni 2.683859393270423 5.781977378972329 11.482208944520844 0.4190070257678074 -0.00873480876983657 0.33014301564554754
Ni 1.542751374467927 5.265802406594379 4.782469407537451 0.238552350620744 -0.40930831042280474 -0.5154655604078736
Ni 1.7770632830438033 1.5528159392747114 1.077962773457095 -0.5725473930225301 -0.8225550366680673 0.12984739451315702
Ni 1.0500481090364484 2.178789512527406 12.333734663768727 -1.2405413344808442 -0.7615242467079917 0.7420293712081737
Ni 3.0053453503603214 7.16946925919763 8.571511019433178 1.1425308819726259 0.6988104126185384 0.4343089462322004
Ni 7.8102772459029595 3.006929161107592 4.912900826676204 0.05725898162246913 -1.3483895990150907 1.2704046976991796
Ni 6.032652262535996 5.742538649724884 2.7487293348539854 0.642538477499687 1.156013489840093 -0.6958189340903823
Ni 9.32661949698035 0.4295976153547596 2.4624877709918693 -1.766566415572119 -0.17653374282610243 -0.18820320874423072
P 7.212775433293062 4.727472500158677 12.19068800786392 0.33878012249525524 -0.4670719995958343 0.5356674892770451
P 1.2983933174893045 0.9155402188638769 10.624820363047457 -1.2419240737609836 0.05784596447419069 -0.6954607794200152
P 3.1073353959229406 7.6117760349790355 13.118844384314052 -1.8974466222251645 0.3853790533007169 -1.2098734730833423
P 1.7004694586496298 4.087557709049192 12.928251177284059 0.3001318139954379 1.8618160175057483 -0.19340532177046046
P 3.810243497044512 4.9761952448943125 2.6442411040836076 0.8863973279350089 -0.33414288083356003 0.21726130245245165
P 2.4570153365319682 8.520975485932619 6.825912162688352 -0.6918568641188407 1.8616992894222262 1.875849355670363
P 7.682384528060848 4.087263046584583 3.048689278084031 -1.274540317134108 0.6026262146857815 -1.7063956596194936
P 6.6729169653222025 8.033520895651979 10.578580455788765 0.7240532463457272 0.063365094520207 -0.11248473486499337
Ni 1.5329998885297893 6.065203256673216 7.077382634906463 -0.9121255859390486 0.05167094601173036 1.0738333194959118
Ni 8.307372823697508 8.202813689771585 0.19695054970392148 0.0011415698036109372 0.7977215225641552 0.6804013139837314
Ni 8.211589106295706 0.926335914910971 12.10118612587949 0.2690806011165882 -0.7791771839030645 -0.8468889854277415
Ni 5.734444640150169 1.792137109748932 11.080792110625081 -0.1512788249140556 0.9119497224828165 1.2651321364463308
Ni 8.410633601138752 7.211375786586172 3.726360459932086 0.6683821780356682 0.0531488161088375 -0.26795420082162885
Ni 4.917953367124038 1.9333448877105397 2.1776891323861336 -2.848155724864366 0.9415372063319462 -0.3865226799868569
Ni 6.693000053925677 6.878057289901837 12.512347079151777 0.7881727025334555 0.5930869077367785 -0.41130117248311737
Ni 6.3143956197118225 0.39854387486583065 1.0965578166142953 1.056664006805477 -1.3770098338549446 0.6729862524665828
Ni 7.052598759172282 5.228214525952756 4.835393548641744 1.2308343916057254 1.1197683914651295 0.9715756616755654
Ni 6.807605336254348 2.593158603383117 13.144869525680395 -1.189874918474228 0.48165606805759636 0.060604243945618204
Ni 5.349302382502814 7.749199241910827 4.720784583032265 -0.5554364443738564 0.33807846844254036 -1.1621429997765984
Ni 3.3368866640549855 0.7380208170604826 11.648004463513628 -0.21645911826613043 0.7141755822206991 0.7674982049032395
Ni 5.7902187197793475 4.026958531562049 6.793648464454125 0.36095023083439126 -1.420383058634257 -1.9096295374446013
Ni 0.4037833418146507 3.3697507370608535 3.352545211588322 0.7528655425917291 -1.6563360239589409 -0.4458588558533289
Ni 5.863442342234562 9.165733791304106 12.43009573543712 1.4719172219578072 -1.522949505944274 -1.4759458835012258
Ni 5.4084466640709525 4.057004894750097 1.2221144136041817 -0.06469795439901761 0.3666457385572718 0.2454043405455709
Ni 7.525909551151713 5.52000403153133 0.7740589573023047 0.22340829589045394 -0.8307779387984918 0.6582620588825309
Ni 8.933171441111842 4.768126712072631 9.239236422280495 1.1649444737811356 0.87056781710192 0.6141334439944326
Ni 5.626671843719608 3.481602766985838 4.02919152055166 -0.5903219433971317 -1.1522951604482414 -0.8883038009291024
Ni 1.2353447582651034 9.00756450522347 13.11743000448393 0.42561707488515726 -0.08322018157292119 -1.8781682336115264
Ni 2.012240762609467 8.072683378838853 10.8433788796092 -0.13170578787813447 0.017604857565956776 0.04332103138513829
Ni 4.864076177110776 9.009940221344376 7.068136679259169 -1.3521038146418844 -0.3303584740904633 -0.28803374518032326
Ni 5.604544534267913 1.4984507145544421 8.892375422886795 5.435984426435058 1.8973633184827385 -3.2381517081118036
Ni 5.076297609043033 5.280820984087393 12.348302960183009 0.31490588698081895 -0.08202847525766518 -1.2712043107823399
P 7.450126048535213 3.307825578482972 8.707212292587414 -1.052023165599356 -0.37807223522665856 -0.7514632629275638
P 9.010603211889746 5.6869947751461805 6.020963370893058 -2.328469184396609 1.5753606725561384 -1.3810091848223247
P 8.593987319741395 0.9505534862209827 4.7574286229669385 -0.012140492017275866 -1.28714463616168 -2.122684258014873
P 2.6657468598990186 2.2133939357148673 2.9395380138112235 0.33761155610845084 -1.6284727218897697 2.62747511231772
P 3.911984921152618 1.9548368312229225 9.797121787343979 -3.1713534195403317 2.6333624243364326 1.9117977487405136
P 5.150497300912263 9.172630734616348 3.023352910228709 1.1096130481986826 -0.934058638566714 -0.9460536061450611
P 4.331786851199548 5.738440999826421 9.712836351803324 -0.13333432462049297 1.039338628153152 1.5730726478529102
P 8.392622357989557 1.503082440170007 0.7394683464178718 0.15125028566896534 -1.8435884387541284 0.5066932135318822
Ni 0.15115539860275015 8.322557148826865 6.379091526277226 0.6405222184006066 -0.4082155915792582 -2.100740920974563
Ni 3.278405373032216 3.0893241527737456 5.174734209446514 -0.38949436102067114 0.9555810860195221 -0.38325223676570125
Ni 7.780571586189614 3.079305628977057 10.850076925757831 0.46539178367993395 1.023212669125567 0.44657207987026964
Ni 4.005319256817362 0.6907127583675869 4.588991270814899 -0.06201809357400932 0.6716323095418497 1.1179231107262746
Ni 1.7970634978291056 9.388406532527945 3.980269264044831 0.26041161258768053 -0.41227484925029645 -0.0441988060044013
Ni 0.191556384961182 5.225332358720804 11.610295034605356 -0.4575805151656313 -1.2078191616574747 -0.8182530668586038
Ni 3.895143119659838 2.26632268092017 7.64676444019069 -0.9513364518105552 1.4985317392215418 -1.1195210513410139
Ni 4.3829844544252765 9.171433668353876 9.628239679034424 -1.6930336364902907 -3.3732091860709907 -0.11181676226369129
Ni 1.1641193156480163 2.065187924218808 5.088507684920248 0.32852039244046 0.8046187639046207 1.5596746292794492
Ni 4.569616292946689 7.640708205722783 11.358407430835783 -1.1648174612849682 -1.9772318099746078 -0.42634701107264644
Ni 2.792866088771532 5.79413220563743 0.8998816713305405 0.7924898418515706 0.00470640433673383 -0.7697576903613775
Ni 5.676810503713149 7.280326803304561 8.66784630813592 -0.27600046816487306 -0.09560132884609342 -0.3639399095903345
Ni 8.924515731213967 3.4933800573681597 0.6258271628405921 1.186676980362221 1.4140841129994226 0.27893049732747444
Ni 8.666593992661333 7.500890866266047 11.461264889028593 1.1962404556809398 0.46694524420998285 -1.5536487348003436
Ni 4.892612395167706 6.958177855669294 0.47019013231518697 1.6190730258424244 0.31161744603753433 0.49549785903669497
Ni 6.719197388669777 5.692989314660561 10.173552165061146 -0.020629760435209633 -0.4898902830419305 0.7614417142965144
Ni 0.8207150752922541 8.437687298670621 8.444327333146532 1.666577756291607 1.4408562388869444 2.002437619816274
Ni 1.5496206931741128 7.851732571392569 1.5519457641839145 0.6617929548539248 -0.006812394936143106 2.346871598163197
Ni 3.889397201599972 3.6083260431715334 12.999922296878866 -1.3993468067892478 -2.557842696731562 0.12530091279305516
Ni 3.750905843233974 5.207182992541324 6.889753548106391 -0.6397837975726852 -0.8240989841164195 0.49287687647408024
Ni 8.926808573516702 3.791035187632845 7.006802687250909 0.2609073212771765 -0.9972563542711212 0.10175757825547638
Ni 3.630480977229286 9.218423123256914 1.145849322022087 0.1588502095034103 0.2704309444968956 -0.4986299769077735
Ni 7.3093050150584045 7.3179331003502215 5.932513065579198 0.75312316712849 0.6839031564894029 0.8211730687188762
Ni 0.9018273644171585 2.554069785812395 9.082416137795645 -1.1067982044577067 0.7765497735825465 1.1681961479492138
P 6.8876061953955565 9.26335914910971 7.840943321086888 1.2263881829089136 -1.0361088083619447 -0.869344229107464
P 5.419247885039258 6.489369874477161 6.534051753954233 -0.08086530818749944 -0.23103521630809243 0.38652962196539237
P 7.259645181569852 7.425871644417125 1.806960473359144 -0.6723920705260097 -0.016050882815275582 0.7948997368446439
P 1.544381226225293 7.320428523097375 3.7152682597799793 -0.45715448337180625 -1.6703261675904462 -0.5018343427776841
P 1.031742203422645 6.556691039438186 9.585490601161142 -0.3559283521397677 -0.33222046699986657 0.3783234320055162
P 1.8769538585460868 3.5545409351784625 6.973796807933948 1.1595415575980095 -0.03389665274744485 0.22950849525092087
P 4.70320888783857 1.3770313627316997 13.267254817894933 -0.5693571682200065 3.1868733695528015 1.092864367985434
P 5.090054662859443 2.221423487875449 5.8314613358023175 1.4725455995704253 -0.8366395397855915 -0.23355052653077843
