# total energy = -340871.8964562627 ev
CRYSTAL
PRIMVEC
9.23877287430138 0.00000000000000 0.00000000000000

0.00000000000000 9.23877287430138 0.00000000000000

0.00000000000000 0.00000000000000 13.52187797101467

PRIMCOORD
 96 1
Ni 1.6481138804502051 1.4183086511375245 6.200375871395329 -0.2115773646937969 0.3150907492981154 0.551630697474521
Ni 0.3586583905743979 5.862463144663562 10.892386308113243 1.4141597034323643 -1.0705531060827433 -0.6964252002158134
Ni 5.880414079798826 3.100633706474955 4.062607967746236 -0.20832311942255735 -0.7382177107715674 -1.3448206507169098
Ni 0.7802873312200469 5.721922936080123 6.082843902060916 -0.2618465452619942 0.07441980967247183 0.24959601002941528
Ni 3.0918106786549986 6.147516234042571 6.898536981463603 0.635476428446583 -0.0509608073185832 0.29035879376907414
Ni 1.9767462601189902 9.122188515075333 4.371392692267782 -0.5602958293486866 0.3135205765975181 -0.8564342059140152
Ni 0.5098167204913215 8.824404397072346 10.639134921730943 0.07093930732303912 1.2282352634199816 1.0446422997542526
Ni 5.587166199135732 5.719317602210774 11.013691392171918 0.013475922999247759 -0.669737406511982 -0.0981688324629535
Ni 3.196837045416539 3.7030201566496515 2.9721353140805538 0.599723953437322 -0.6802344493885639 0.48165555383696407
Ni 8.606350886489494 1.576901421354678 -0.31136141819587665 1.992714993211871 2.2996430041935363 2.7204490308432954
Ni 7.41234115620319 6.260922167539924 9.1454951666789 0.005512188067480829 -0.04068667908608477 0.27494503031716516
Ni 2.8448028547865487 6.48116526722574 2.401932128210381 0.24295330790191708 -1.715862461459348 0.21488380335921056
Ni 8.759003125933628 4.357938267750291 8.472687096342067 0.931361294240209 -0.6339257961300115 -0.19241159039862346
Ni 3.789421157877126 5.540270189487458 9.172321790637863 -1.786731063445452 -0.23744651915107493 0.9616499179214213
Ni 1.6157781763980066 8.034988234659735 6.5518769848470875 0.46789732371060705 0.03476877093975302 -0.6461087113494486
Ni 5.541110917792816 5.567986507246485 7.645499136087454 -0.5899758729116227 -0.13247789015746864 0.5066515616606693
Ni 2.2994750641051027 2.2259621506355765 8.390838962245143 -0.2542497067513428 -1.2213686182071353 1.292253161032839
Ni 8.759566691061394 4.4311463017244686 12.854640629553298 1.0508689973902547 -0.9310869575328997 -0.07412747524303362
Ni 8.388389763632503 6.336042627439474 4.341469231737877 0.5716649904175768 0.5650618832787623 0.020494263298609865
Ni 1.757343888738531 7.679341683948484 12.310885277966047 -0.5369460988791527 -0.014907513239451746 -0.7172907308109131
Ni 7.934941566322233 1.4564001105110143 2.9573967001735615 0.20301636249766325 0.8835066366507752 0.47856688760931126
Ni 6.319191106241985 5.777216990009381 0.4793952901190134 0.338263844980469 -1.6245098805872795 0.3172828718534278
Ni 2.028354043786299 3.8304228306153134 6.7512302958379244 -0.136901473146461 0.32064433212649296 0.2661860531776125
Ni 3.6298583165384066 3.5243884886927215 10.797570632814129 0.645441767189411 -1.0902721817782255 0.08798135040699041
P 1.4784345831294408 5.322780244032372 8.750885940339268 1.0978425379263157 0.835966682088283 -0.4626653858877065
P 3.796461102587919 2.2674719558660126 6.846126348458541 0.7943582625188771 -0.142855890957683 -0.22752643182388557
P 9.026225384220997 2.567870646510935 7.178277776605463 0.7511801844695063 0.5579612676782391 0.277638003768296
P 2.0731990459204046 9.253554622480538 8.163292612829823 0.3363278043000208 0.03770162831583184 2.0690906410591334
P 7.20645510911655 0.531086222739599 9.122940551163863 -1.5578519742484138 -0.09614768826786667 1.2773939845328193
P 6.71619964182229 4.010726716410371 12.649838290491036 -1.02303911966218 -0.3669175041614197 -1.0036545444879812
P 3.6835817791279872 1.685909699100932 12.363147166732467 -1.1846200978331922 0.4562558828169368 -1.0669286219562786
P 0.39383039781060336 7.648382557011651 2.6630531010817275 -1.115734330605072 -1.1092147843189994 1.5577987524129753
Ni 1.8217566112105104 3.440454239745801 12.773563009090074 0.03429183130333449 -0.6869684256782879 -3.271123277941818
Ni 6.27810628455052 7.940069085107653 10.46030831567244 1.9923110729052336 1.009518716578242 0.6153927703228305
Ni 1.7164253649536207 7.827309865691344 1.1334486521055709 0.3229894353199018 0.8049560926393814 -1.5069443887652694
Ni 1.042281368100803 5.068621610182094 3.0185158002185095 0.4557288066688732 1.5266935463677385 0.24511226322644883
Ni 4.91450040589673 7.615760451009276 8.7884628000797 -1.1793778755976463 0.5527581262107448 -1.6385936123738554
Ni 8.120465358628575 0.42492256307268 7.210892491589769 0.8995570052454186 -0.5718508811761378 0.273483101059658
Ni 4.546409228511676 3.392985426197174 8.497134736360046 -1.0082843299505087 0.24637673176116925 0.021991930890058898
Ni 1.3691768585233557 3.596903614722923 10.127305072693057 -0.31345989856291173 0.6050597638279387 0.4426776299118699
Ni 2.2080574093632443 1.0745246844271379 10.621272678812508 1.297471729119301 1.032110228725513 0.07101566908692931
Ni 6.776833706306455 2.6667624682751443 7.758177054305003 0.6792368613619851 -0.4102331362299193 -0.12806150625732785
Ni 1.4428098760365045 3.179468152954215 4.225099499994826 -1.4877181935458057 -2.18792882894598 1.4656414162514242
Ni 7.622763440629724 0.6797796481304866 11.480047078662569 -0.7672169262173948 -1.202800882507277 -2.3800406287159976
Ni 7.614356157576152 2.1643118211669132 5.55776195762518 -0.4848691756782552 0.6177782398358715 -0.6512689153941494
Ni 6.855113826430535 7.070977747910424 6.635063817091773 2.159986336899441 0.5847727314441283 0.15791818460744417
Ni 3.64419689159241 8.550835102018162 2.74037054110231 1.7149908574876722 1.5299819873110232 -0.7423754416936827
Ni 7.620185823078134 4.816929728612368 6.436657480291035 1.3117382663406443 -0.9049403810445188 1.1480947492136484
Ni 7.77318913588055 8.85647217671954 4.8288791570755425 0.008310062527592138 0.11598014961276155 -0.7558647344293693
Ni 3.822311188284505 2.5879834544314027 0.9545028658807053 -0.6790946793571659 -1.9918415894679826 -1.6737200237633432
Ni 0.6277709017329308 0.5829730173390152 1.8227895059856634 -0.30303278969231684 -1.204026784494578 1.0637651366266325
Ni 5.805238187263758 1.9199000923952254 12.862469565442963 0.6763528549459706 0.681850130615116 -0.24851897491515262
Ni 4.228124274139594 0.09812685139405979 0.27597599531292666 0.11497999048302134 -0.8284068674631541 0.05737185305124959
Ni 2.813243207631603 4.65986135587196 0.8173708405043666 -0.42638223518595597 1.8249425415181668 1.6024927528862403
Ni 2.8404791092161403 5.752725003882988 11.469959262875541 0.5704082351923402 -1.0176693707098343 -0.6078815495474499
Ni 6.109822041890294 2.346685192021312 10.200593483988735 0.4641334857928006 -0.08644125961338016 1.0288282155401314
P 0.07160418305318805 1.1479359713982145 4.801658961404403 0.6744222135821611 -0.33050117031591464 -1.584707403878361
P 7.106242142872493 0.3347835544567719 0.3548344626009108 -1.3116385075379862 -0.577599867844773 0.7349637226106439
P 4.95847696340772 7.591832030010649 6.3912101101843 -2.7524965461971433 -0.7866670645222064 -0.4869862220212581
P 8.358650154677067 7.424859693057684 11.0892377594877 -2.9736754385364463 0.7201641957039662 0.6814518667354329
P 5.129191003258154 3.8638302322875275 1.9290714219416876 0.8972347848701451 1.0966168930493307 0.47370801685511316
P 2.6889817163452974 1.2874599149971573 2.604652047931682 -0.07440823970824606 0.5202460125156524 0.15728080813376139
P 6.455038018351564 5.034641404609525 4.858166990051506 -0.7216014423711249 1.170288254591552 -1.5047730921455633
P 2.653828186654265 4.946734483450478 4.991113851446233 0.35077020497759587 0.6095139429445503 -1.1271320309190525
Ni 4.781526752061503 4.181126637992871 6.002145071273732 -1.1320554363625985 -0.9999889227109359 -0.41093376184136965
Ni 3.6222825230176054 6.847417928866111 13.511506273915137 1.6062763882983886 -0.26458656990097656 1.1564744886369114
Ni 5.049719081470437 1.0514831855967999 8.581105016520054 -0.3306181555097532 -0.9869410883880422 -1.8610408299026209
Ni 0.10609436887252145 7.781051331351527 8.684371397103897 0.43627018372362936 -0.49578762236297197 -1.5057598815388649
Ni 6.979024244358559 5.102186070988275 2.748011006031215 -0.24385525089089619 0.9053589566391762 1.1385726686558262
Ni 6.103373378625028 7.234540977779029 4.017444227957901 -1.4992272226266696 0.3615690953653128 0.8058840037702896
Ni 6.251406231775991 7.7547947396611425 12.94717063251455 -0.10284566911333254 1.1555501770504293 -0.46769214967833644
Ni 1.4311875001228858 2.61143145925554 1.2332006035975682 -1.1036524597398736 0.7340653791660906 2.05025756751303
Ni 3.4193344056134225 7.057498378706951 4.558157251732469 -0.5118706439677636 1.080191914724088 2.3320934114127576
Ni 4.6069601440425645 5.46443834409876 3.561649382410699 1.1141960395836747 -1.578866628826868 -0.19893190801564448
Ni 3.7174695969746914 9.274249473073944 6.442890880155041 -2.917015523950557 -1.0563058521351096 1.7077064080111173
Ni 4.6858777394751 0.4324364568171523 10.702525835954873 -0.9902135884917269 -0.4084863287421417 1.7701194230307
Ni 7.880229555065914 4.052412058319948 10.682094290380176 -0.10748985275356326 -0.31922071230608895 0.5302298632012417
Ni 7.4699171869612755 7.527751903351779 2.2129096127255914 0.9547107675994267 0.7915272208279851 -1.2063083814399032
Ni 7.2397886006080725 3.407481060385145 1.3644789426632007 -0.4018814218311143 -1.6106068973529424 -2.4968738703576743
Ni 8.781360955592577 5.63849681962545 1.204310037842817 0.6062321868694851 1.2664624252219803 0.7032226827536211
Ni 5.885245957861484 0.3359670412250823 6.221848626640506 1.6032414581268066 0.99750215173334 -0.6376857773930759
Ni 2.6564427592962 7.785772344143149 10.051054710906197 0.32643677043855396 0.6039099664942116 -1.0461821334375465
Ni 4.0026058353069764 1.5823800134983792 4.8596137818385285 0.23056958952558357 0.705881460532707 -2.492381124693643
Ni 8.79552399396744 8.145696446561875 13.471305602760186 -0.4412000169250789 0.10289246319086796 -0.3294051090382585
Ni 5.644437350398469 1.4631259369538716 1.839461794994977 0.8516707230871011 -0.12445064897761794 -0.31186992836797256
Ni 9.117910963367857 1.6736036540159238 9.3465243910169 -0.3153383465325472 -0.10878260342305782 -0.5154408778175252
Ni 4.54354520900991 4.467778035029316 12.855127512868597 0.7088562268903147 -0.8282741985400316 0.11825609013113182
Ni 1.7366767544628834 0.5548991590808965 13.23868901494948 0.24484281161514607 1.412085594512155 -0.8195404182114596
P 6.030839775049653 0.7361915935426933 3.7668027948312424 -0.6989009154498157 -0.7515077430122542 2.129111501697456
P 1.3947313034971787 5.711963539232046 13.175542004321832 -0.8015527233847873 0.11608736461458719 0.13195312800225018
P 0.39273560325912177 2.0987719684394004 11.436331054538513 0.042619120222107246 0.13282987418024866 0.0085579168723401
P 4.35476012998059 7.58612246855229 11.624284644035065 -0.1957455398678629 0.10283229937689388 -0.8390957146355678
P 5.313938738667242 7.311666251329816 1.6306165690489312 -1.4721799887008904 0.49711713980767286 0.7659180049003131
P 6.3742911459469305 4.248394141194029 9.15467573499795 0.7033787487155112 1.4609607229463033 0.46170944973234035
P 8.96417778753112 3.504053950230182 2.5540392800719225 0.6499321988605968 -0.3359066576022021 -0.01621517630728175
P 8.838835359852213 7.591111405748914 6.325615748698528 0.3096649502968538 -0.3742369206409684 -0.14249465096352235
