# total energy = -381162.4221566307 ev
CRYSTAL
PRIMVEC
9.39705189386151 0.00000000000000 0.00000000000000

0.00000000000000 9.39705189386151 0.00000000000000

0.00000000000000 0.00000000000000 13.75353531523949

PRIMCOORD
 96 1
Ni 1.2858737476713746 0.6964117357051879 9.612634065490415 0.5847097394166769 -0.4870330160987934 0.7799713976695858
Ni 8.249897134207194 4.825057102910612 2.3907631005253274 0.4627713153379514 -0.6072590854721025 -0.7027210605268542
Ni 3.821809079343392 8.877836313679593 10.042171414993543 0.4484093901893245 0.47205145508829666 -0.7349035587966698
Ni 3.782050153998111 6.8423879505468514 11.62615158958491 -1.0515601099200085 -0.4312053676062122 -0.48221296900233085
Ni 9.390248140706973 1.1902023652699782 7.019253617645334 0.38239914473678654 0.31763896964126587 0.6202516410770287
Ni 8.03816276741923 7.940593180593408 12.227318569031619 1.1245527002276505 -0.256997444699809 -0.5021369616197674
Ni 8.519611309404608 5.140290596087829 4.602978461714687 0.7127583901581982 -0.36695889892231637 0.6152292481617727
Ni 2.3266441983016315 4.836577888179654 12.11964245320347 -0.5878595978995682 -0.5327953099355728 -1.310678200507246
Ni 7.6534568717183395 5.099009348382364 8.687585486273427 0.4707725883758731 -2.141377206438686 -0.9556672179754252
Ni 6.257515458585069 7.294545882676111 5.5538971240031865 -2.896712036506514 -1.3451052718368641 0.7064026231434996
Ni 2.786122433632019 0.49547364150743756 6.156701069839671 -0.2985534137647245 0.19848839272032268 -0.14214472382327134
Ni 8.296572289534542 0.35072333797786004 3.414452530451231 2.0865193780585423 -0.9516614392501417 0.29087944215923456
Ni 7.578355635282629 2.737934352996093 6.180110065095552 -0.7648034316798958 -0.5076632907546353 -0.6306900628015332
Ni 2.9418973581058374 6.739424456099145 8.690460044359723 -0.29703080647261104 2.344300237891595 1.2440606604880122
Ni 2.9822952829603313 6.481052522190257 2.3553061454053053 0.449762047562477 0.7104747363303441 0.39585269913853116
Ni 1.2679347761553874 4.469961316820449 9.647513101936664 0.07323375978417065 0.4988513488899602 0.6428945752875251
Ni 5.726892145545127 5.514424808731891 10.11294624886982 -3.118801870695861 1.481982576613609 0.04799992491804637
Ni 4.336964845439742 5.399292132454324 6.120872931181209 0.6215497910631618 0.14477187703347325 -0.6662216800492398
Ni 6.503051020000066 1.394644620011632 8.32640416956317 0.6221288034950834 0.03184671219695161 0.6226656498351599
Ni 1.140604726893142 2.5216518132307915 11.175297028513414 0.7136150817315388 0.12857675533084953 0.7055407893638366
Ni 5.013092105548068 1.6827488252021252 6.471244819429002 -0.6555917111392193 -0.6113741360817405 -0.5828405474184221
Ni 6.290536697928799 3.454140038204306 9.738616577552351 -1.2238705586933825 -2.190168774020093 0.4621264826651009
Ni 4.543173745883338 0.44163511374078207 0.9177076025023279 -0.8752094296389894 -1.1188929308387117 -1.2210893964038196
Ni 1.7974398400542067 6.3328046360529004 6.2771271052869375 -0.745401115893884 -0.675937878895739 1.1888575329533075
P 3.5838381444712817 1.3971254416356347 8.462343797506897 0.925894871808999 -1.3975843155721865 -0.6038785990356439
Ni 3.1385400600144533 4.786256676829151 7.9944486230529535 -0.398223770473869 -1.9384798860173909 0.052616597754451315
P 0.6946140797329469 7.777084482647793 10.613355221880763 -0.9887593725437035 0.30868638843366836 -0.2169689680230134
Ni 0.14653104480892767 5.997057379219633 12.302523173034995 0.03777593319719301 -0.6430760951707118 -1.318262183502091
P 3.1288798909634137 8.15388745794798 0.22341960046011175 0.6811237939720528 0.06454651642281786 0.3534194696749849
P 6.2806885878456375 6.269036243854112 12.96705259205111 0.40053519221586503 -0.7808365738833585 0.05246773088141286
P 6.434903601752849 8.442395736357533 8.613783862074836 -0.21031700992413455 0.4429044012106953 0.10471691799411643
Ni 1.150715954421273 7.787759533272288 13.48612504925687 -0.19038504688689792 0.9787050736314951 -1.1387873557697936
Ni 1.0816946103746907 5.248460057125298 3.235725307429587 -3.2715043154303203 2.375504174298225 0.4201557946602699
Ni 2.8979473477442492 3.0953606078845626 6.312294631217492 0.4841500381240436 0.2849993292293737 -0.9717913772307973
Ni 4.803152575616863 4.541735996987609 12.446275509684007 0.7996873880412744 0.022535719208670865 -2.055255534948254
Ni 2.503111430412016 1.5027013164298284 1.6661442350141997 1.0156466838528508 0.9940057085443076 0.5506382516542645
Ni 1.1846675018740034 8.47281399240638 7.841178952537313 1.431881803302476 -0.2562184004419394 0.0033812577674070796
Ni 7.943083399269015 2.5729597149999326 3.7372064840287855 0.5430599250863744 1.2654414401566336 0.7359967918608485
Ni 7.338345540212002 4.8879515693100375 11.535860019227991 0.70034510409551 -0.041955261385863224 1.4808939715351206
Ni 8.686878827992649 0.8472644845477472 12.27252684460326 0.39614657622986615 0.8035509847617388 0.5945830326663308
Ni 0.5218333109676239 2.451944484416966 2.2154329116592777 -0.795123937040308 0.4686187752576639 0.8595722373223649
Ni 0.992836090387695 5.84839602281161 0.8362370444880242 0.1984038034263164 -1.3320908618550673 0.789239196124757
Ni 2.1642443524455337 4.025922437278834 1.9352053151249924 2.2380591699434684 -1.2126294385619245 -2.0997029666283513
Ni 7.080001797457932 9.230376101732906 6.508942971357072 0.4428411520729277 0.8745710247240422 -0.15738133826736767
Ni 3.691725693960568 2.018533670241816 10.644176611443513 0.4528095761395492 1.5169922599195746 -1.6253765994629492
Ni 6.295150650267379 5.3411055889095405 1.361522832215718 -0.4641046894373942 -1.2884540990017228 -0.41665806591965665
Ni 2.8242180808430257 4.925812290230892 4.383100610004903 1.5122634869853375 -0.5555428880447336 1.3348499126574431
Ni 1.4966684092987317 0.789840981593376 13.606468390650004 -3.0092039704603595 -0.07098738695215517 1.3259729218827874
Ni 6.277258664009422 5.704198265916469 3.940222266336638 -0.43719166709663415 -0.16215279151408202 -1.061119214363353
Ni 2.978574050524328 2.461567065261581 12.98516634872697 0.5354985677993487 1.7386218666430509 0.909959431525665
Ni 6.201941295386773 0.4749429631584963 2.673756249347279 -0.6848416091432721 0.5433244916016708 -1.4775903610831842
Ni 6.512109777748318 9.213827893854617 13.64852677452329 0.8834089347306464 -0.42388492268539907 0.08877890660762129
Ni 8.690881971976836 8.867847247822342 0.7514784581167568 0.46576613630021724 -2.140470635464017 0.2146835144229464
Ni 6.933116483803456 7.641672969004328 2.27257920159127 0.6087356700176291 -0.019435225906476207 0.5436721047490766
Ni 7.038100344346467 5.043049906068219 6.279382397672394 -1.6731464106480605 -0.9446068463962054 0.20447289243853173
Ni 0.2509482631400931 6.4960596136051505 8.844774667013958 0.8501146914538907 0.25236945900949437 0.14928724840532354
P 8.38272445865899 3.039889812253933 8.088673799212176 -0.2847057092483548 -0.8375342836857188 1.454878007087333
Ni 0.27584857048585676 4.505491568942998 7.27297964924018 0.5207926290477418 0.03494437728566885 -0.6165852479690349
P 9.176803510526703 7.269709475281268 2.6426181791454066 0.4676029323986398 -0.4208150255108236 -1.1612492843177358
Ni 5.771490552467535 7.883600062602594 11.66831991896199 -0.24253421808662748 0.5300629986060742 -0.4447167718290857
P 6.659154841280097 2.449444868689751 11.817999915764112 1.8028025150860179 1.6288630153496528 -0.36921581327729314
P 6.396948910315933 1.2856482184328288 4.77444364325516 1.708440200853348 1.9201000979586225 0.22470618876627105
P 1.0020639950648556 3.53327260977902 13.223432351019513 -0.6573914833521195 -0.12513276264630707 0.45775303618775354
Ni 1.0968802457700995 7.806957709703489 4.385067412906054 1.0939547728361352 0.2548827123496513 0.25126028510571563
Ni 7.534602963004769 6.879346554513524 9.888406519858263 0.11512371514973721 2.683296075942082 1.3435209580688796
Ni 4.458177414106436 4.3059357810365 2.7285777087119296 0.014096844412698302 0.37845352982547725 0.44300930221967577
Ni 8.180462319889944 6.523376842623995 0.5075394557696311 -0.14126874897622124 -0.18611521586695043 -0.44195540703386466
Ni 8.235491454095088 1.4502657684679592 1.1772917560683993 -0.3883589618646473 0.597206843442423 -0.3487647445117929
Ni 3.4783844313479664 8.998936117727014 3.071837908304249 -0.4983245298522128 0.319698680383772 -0.19663128490692589
Ni 7.8588388316205995 6.9080545471700665 7.110673773900144 1.9349379343024034 1.508585523913118 1.2153794905032358
Ni 6.562177268705458 2.686617054175346 1.8988406048198236 0.15733017331445806 1.6381477830856883 0.7887889959612158
Ni 8.145843581773184 3.372846144760197 13.71774827576908 0.22652807246635828 0.7173863758485128 -0.7304555503276453
Ni 3.2350195888539717 2.143552044808968 3.987493194735811 -0.4698703882765779 0.2439732645259992 0.8321449943493475
Ni 8.53892225045508 9.046785904505121 9.246735428873913 0.06382172244165138 -0.25088156161005826 0.057415818915307566
Ni 4.310371189394565 8.269621545528334 7.335791421585472 -0.028546444179125028 1.2198778925942215 0.054716931926905764
Ni 3.362706726077248 7.470778188496343 5.200473073393742 1.2709497715693727 0.472697830423044 -1.1984534041718586
Ni 1.9687668849360707 2.6838167327967377 8.355753980844408 -1.3256510197669944 -0.19906457693876684 0.2217746169417729
Ni 5.151942940079356 1.1639564001342255 12.33389522982186 -1.6564185563704183 -0.18243211058840839 0.5509583539978447
Ni 8.422201472456088 3.1364069292998753 10.372544498013298 1.249544566420719 -1.0298409730753617 -0.14893423594127897
Ni 5.609936441255984 6.458866083348326 7.894061800155631 0.255341911374257 -0.6502427881224802 0.3796876593428945
Ni 5.1995108153092815 3.7001924374576376 7.66084295428071 0.47782820967107387 0.2670039210932176 -0.3568511210643532
Ni 5.090561398988507 7.178031839812451 0.8844420398168409 -1.217415289986342 1.987197405827752 -0.4689507046757859
Ni 3.4261180303150063 5.725379220236551 0.09491304033678645 -0.5229832089411574 0.4145924416398795 1.3258821619411938
Ni 1.33023722830363 9.01312566565218 2.176538515061755 -1.4551407738304167 -0.8302480344369508 0.0002902775469091775
Ni 6.847302608536826 0.46946730118763946 10.889059077771886 -0.022655789726302916 -0.31192649263752087 -1.29862538310777
Ni 0.821798474695298 3.3374568484117377 4.761611029581911 0.2096086710032003 0.016243715552372022 0.4027540542440548
Ni 5.673131613306802 3.4937674048271026 4.5830491946685346 -0.22223098775290118 -0.758305739770694 1.0562791126622326
Ni 2.702112792273755 0.5316485313701637 11.912444982930916 0.4280830199271466 -2.9484454603250643 -1.488574885119146
P 3.603985423114695 4.81738910880006 10.261443156874735 -0.47722682864164906 0.3780979462582714 -0.0640898885013735
Ni 4.9344011953988405 3.4711017163532625 0.6589344144898605 -1.2877133641809566 -0.3519004619272972 -1.4511920735953139
P 1.0955740555968558 1.324176130017715 4.091566480978194 0.025965313715510124 -0.7288293275781318 -0.6542040867630733
Ni 8.20089151008154 7.5866626289023955 4.541059409271972 -0.21112922141278476 -0.2132418968804134 0.4236447816501349
P 4.8888912744706445 7.347084798205647 3.1856766105756598 0.29093446376688603 -1.0300808570003097 0.33856980625666205
P 4.478155545820941 2.0536504520936987 2.2647119899866683 0.6122313418757134 0.6933283064580446 0.5144679723812946
P 9.248662764158318 8.509791390476265 6.278956711234639 -0.25342515396751836 -0.30592090987338927 -1.077038713807087
Ni 5.228820219268613 9.027042699080768 4.5568351795082425 -1.28206207943245 -0.37520879763593445 2.1605944027970856
