# total energy = -340890.7819725987 ev
CRYSTAL
PRIMVEC
9.09856909144786 0.00000000000000 0.00000000000000
0.00000000000000 9.09856909144786 0.00000000000000
0.00000000000000 0.00000000000000 13.31667556279670
PRIMCOORD
 96 1
Ni 6.205679124018088 2.0435204455629568 11.506979576382724 1.971410061086508 0.9359270592340204 0.0995446297645576
Ni 4.737743264723745 0.43160427793634487 6.123712843650751 -0.18624942745196957 -0.5433062367692255 -0.6830446651438495
Ni 2.8757756690114697 1.6772393452102021 5.019973602505055 0.2332327381800435 -0.10964418009240472 -0.6018145174177636
Ni 3.6804167349328303 4.3753381548509145 4.938369445191945 -0.623761711112816 -0.6688809720489577 0.23090203316433783
Ni 5.33170696077979 4.240752119219398 2.878598955034757 -0.3590985223376332 0.05069855479613205 -0.6789764086117468
Ni 7.646373867122547 6.11110859573564 2.53588132920056 -0.9132327029602981 -0.4510162316845523 -0.7280443697829913
Ni 4.935973791921139 4.588535828385101 11.571485702452001 -0.5068197118074175 0.18364772816306435 0.4773939503471327
Ni 5.694448717713084 7.902580477273159 12.535612858339165 -0.7780906357071051 0.3811652723296855 0.6544665963958406
Ni 1.9604141144746474 6.352957663685973 0.3358973383606043 -1.0715424665792062 -0.2997816297448708 0.6915017947722673
Ni 2.3825877254334324 1.2737723925301083 0.3190258614898958 1.0452866182064708 1.7030851071890216 1.4054423781640246
Ni 0.245839700402198 9.189099965254846 5.144764118534023 -0.2433492577887551 -0.36336501092347095 -0.5431236884447743
Ni 8.825948772707477 2.346166152919036 1.325343082765332 0.2825580667777327 0.16391733961367252 0.5785771441563778
Ni 6.923801895400502 0.7717561072556631 4.709682367448789 0.11749272960254604 0.43510984486694093 0.028182118861170818
Ni 1.1688567910653291 7.134497462404222 2.631668336185275 -1.0443268253963627 0.7379834832735742 0.36294617821849745
Ni 7.728761411243922 3.953501190952592 3.891892049317135 0.5212790817658571 -0.713981463932022 -0.7235606229800248
Ni 7.706014988239677 3.9335025358472606 12.729370528917002 -0.4297529514304018 -0.9249134817323361 -0.4674036719036401
Ni 7.818191247927411 9.007501622558157 7.205014103288142 -0.028187775288125647 -0.2799694801149501 -0.46434945845834874
Ni 7.14772678202349 0.9065787056864234 0.49768900576211744 -1.2346236834448285 -1.0754325456622316 -1.4497121466156773
Ni 1.8424602633438354 6.813181491046259 9.14346882099449 1.2007190602775837 -1.2754682282650163 0.09606875540081519
Ni 0.20130402387372684 4.819029881971715 1.2442966677442875 -0.3770275960122281 0.6169308042339117 0.8532457808837046
Ni 6.2059702782325425 2.1142163282601496 7.072073998825212 1.1362129101743978 -0.29639163022671533 0.028538730869641173
Ni 3.271809090653777 3.8914216532894073 0.16464224913240513 0.12741178848847087 1.0346268244997794 -0.5490557376584931
Ni 6.089062762559926 5.529018532487812 4.794149844489672 -0.4557897418137957 0.6523377229782958 0.48788173725233397
Ni 5.241276281484113 3.06423433288624 9.3353621947429 -0.10055481619662682 0.08549740764287211 -0.15096772143153997
P 0.12498431555296426 5.614836237198227 12.319522749655757 1.1122476576080522 0.5049016688490982 0.5115484847416545
P 3.963946348396142 6.068217940518836 12.913753033789414 0.2052776477280142 -0.05598397156478746 -0.7558930165641434
P 2.0610806841222336 8.451906592825672 1.3169696695290096 1.203203260152018 0.8664283410122497 0.8425582192628716
P 6.475524489402046 8.050222959709112 5.666272268609266 -0.4415286039090912 -1.220120347622331 1.6326715904624656
P 4.808175288914089 1.0145359588353302 12.744937270964188 -0.8304758341770409 -0.0270775729430824 0.8556621036346812
P 4.067260601681422 6.380571821213127 8.30378643550663 -0.16518437925155421 0.4723990682357026 -1.2352659450145178
P 4.8201399074143225 0.7481735257417823 3.7305070879589377 -0.2287821586078576 1.2778488126820509 0.19849610602980655
P 0.3804866964473655 5.437068392135452 3.6110565221944464 0.10202523009456622 -1.2181161727081087 0.7927556939184476
Ni 1.5396962745881344 0.8846256779165667 3.0704395570817975 -0.3730508707526672 -0.768538987462928 -1.2272551588948992
Ni 1.750410038730257 6.5331548267256006 5.034383006549784 -0.09112735223513983 0.03658988330889182 -0.9052118895383506
Ni 5.941784222892041 5.770321686286043 9.487718645882254 1.0403097338171698 -0.6967694709291097 -1.1530220113119367
Ni 8.80940757389879 2.327468593209546 10.136307421854532 -0.08107742419830553 0.09148370713329407 1.2503992011115306
Ni 2.531667781803254 5.279353793593219 6.91050251679838 -0.7871172646857476 -0.16339951943698955 1.2823029917986626
Ni 0.7332955453831658 -0.05822902317702655 9.078923571077645 -0.35310733775120473 0.8150849535432673 0.43045871924817475
Ni 1.734023515597999 1.0340523897729723 11.414401634755446 -1.1696138542323469 0.8552934074413528 -0.6592532191512066
Ni 4.271259621752692 6.866508205137411 1.6713889652135103 -0.005438654517068053 0.4290548969221127 -0.2536508968250793
Ni 5.462171344562937 8.245232593409105 8.404513965567869 0.4992185024213919 -1.2271464012311768 0.0976803228623092
Ni 5.397853558876134 2.6321887743436125 4.8459379905288165 -0.8642305620299826 0.5003711279685964 -0.35819452246612504
Ni 0.8995673482595951 7.609888604623738 7.084391641810471 -0.5398128789039865 -0.27245594534672435 -0.4421143012092321
Ni 5.161318055339592 4.80410822848093 7.10362055796134 -1.0547508489431643 -1.3089946421572358 0.28151548444583124
Ni 8.31867624400521 7.275616270722558 9.054074468730889 -1.2549942766813806 -0.5907317772410406 0.34746016676775643
Ni 4.687655641268399 0.4715433573041182 10.579872678863428 -0.5832313550989375 -1.7064925902086738 -0.8875401832902006
Ni 8.0630155480067 6.895132303845952 4.700213486480583 1.2705206544517538 0.7657280003766941 0.843800833420721
Ni 6.6435750625574075 6.432561045631628 7.114779953087223 1.741357263296343 1.1987351970783355 -0.30447980655148854
Ni 2.5293203509492153 5.1339859534576915 2.5777756910897778 -0.03610625880425394 -0.636570175731394 0.1817350845213838
Ni 2.3397243659242335 5.42988052246611 11.427585461528707 -0.8938987785183766 -0.32092715347423434 0.4748662988292725
Ni 1.179402032770097 3.216053058585772 3.7524128031689457 -0.6865912448445272 0.5190864449899124 0.20389105179313274
Ni 3.470021420712767 2.4246595094220837 2.6945758436458154 0.7722683725983732 0.3966687672819233 -0.2288523497241607
Ni 1.1493858529736953 3.6654313914576333 8.424328829575327 0.21259783553851128 -1.0315469000228752 -1.7474824023574744
Ni 3.647097774516212 2.933979216194732 7.149696622255658 -0.3421780924332107 -0.5477984682126243 0.1495937239021488
Ni 4.094874759208575 7.08534699157665 5.921379771600313 0.47087980337769875 -0.32218313736852255 0.1119975108159297
Ni 0.6651308846378851 7.603883548950617 11.224173299170946 0.8942643893879115 -2.2447386388461728 -0.35978654954359324
P 0.3150761725994387 5.610359741150991 8.10739199957414 -0.7781849951931243 0.9718571974717264 -1.0767813463806424
P 8.734180603739151 1.679714156033064 8.091984482487986 -0.7773329316054742 0.04959889397405007 -0.4315002731388117
P 1.8613215972989552 3.195972516357624 10.433841553033098 0.1355984380643213 1.008999096629346 1.2545088524045298
P 4.220817154098478 5.989861062553812 3.702794665884406 -0.05585335952419413 1.2958275086476585 0.1548413454543333
P 6.801871969528548 4.047762367882183 10.648493177925715 0.8154716474587247 -0.4039737855837688 -1.4133683178793206
P 6.5024107613930635 7.774281552960017 10.473978071352548 -1.5364452264378634 -0.03888870664539754 -1.9999909580479946
P 2.304485607406057 8.656369639926229 5.66667169579722 0.6915809847496347 -0.33469412535133974 -0.014488423424162145
P 7.097684651414152 3.998093278610114 1.5282621026723606 0.28025770077933027 -0.5299375287718034 1.184240088785954
Ni 5.313691793760428 2.9706100558007678 0.574153381333187 0.5746487556362491 -0.8473512697761407 -0.1941951646616075
Ni 1.5453555846315903 1.2259230170983786 6.9841836400506505 -1.0280067480801005 0.4237661377193476 -0.11903719127153048
Ni 6.834135495917769 0.9832641764890943 9.296477639545605 0.46371285331561424 -0.055043719138705205 -0.06322342673602015
Ni 2.4217024744315316 1.6418823052924039 9.084542847416614 1.8843957025784774 -0.004895894639720601 0.7532360385572706
Ni 6.438993734057229 1.9741893482460182 2.540701751163619 0.5352208886579298 0.2610615874668536 0.39548863093089304
Ni 4.2811952593209455 6.99093113897063 10.48476442514116 -1.0916420655425587 0.8122608538309108 1.0505648358862745
Ni 8.232121555189458 7.251714329429697 0.34492493872252905 -0.11647534408162522 -1.8740994628587917 -1.068506765076676
Ni 7.540512014460791 3.799198555860997 8.260919436569752 0.4319026507835529 0.4155033834899231 0.04776415475815645
Ni 2.9287111446269485 8.260827541020815 12.608760805436216 2.063818594026917 -0.38751795402059064 -0.8770243713605411
Ni -0.036250519413404986 4.81327048766704 10.093333969657992 -0.5568541506569893 0.8065535190334884 2.0146511311633306
Ni 8.548269539240856 2.4232219354882156 5.835873237956596 0.5390456617206587 -0.7046450170224445 0.2718890170996608
Ni 3.746654318721191 2.457095908626137 11.346220596585603 -0.6996501349110144 1.032252410730332 0.4670486025570666
Ni 0.9507367915930242 3.460613500158211 12.766297072022095 0.880573007943748 -0.7757023379805866 -2.1291228145513657
Ni 3.099618668511643 8.704473775295607 7.926724440506786 0.1900060662809244 -0.9548040986441815 -0.1154582156710205
Ni 5.97140916421277 7.843894705922208 3.527880132123284 -1.0930152917410014 -0.3428002993982419 -0.43213430717838475
Ni 3.2489807805267166 8.216226354794092 3.602853252202195 0.3714182202452507 -0.09298625982074953 0.3164387786855776
Ni 3.3664888017666454 4.697045364684551 9.481846429319479 0.3284825972239891 -0.7501656271620628 -0.8126406057678327
Ni 7.16465921930785 6.0397758131943275 11.61188789899214 0.5940361590239253 0.21810745250283084 -0.05073917822608036
Ni 0.5937426008244427 8.825694012769828 -0.1823043916667412 -0.7678165074746067 1.7125138567020894 0.847753904531198
Ni 4.618488318197091 0.3304773206871528 1.565122226222279 0.045864880852914555 -0.30494054823799094 -0.5842148020581294
Ni 5.991671677824951 5.51743605389405 0.543320150022473 -0.34525056071094734 0.8480642366827652 -0.6075835586910568
Ni 7.974568356796994 8.936278022847265 11.314726809150846 -0.19729591507411828 1.5616317530058204 0.32462517115111195
Ni -0.14236531229896787 4.848864090384083 6.063641360210381 0.33092051724152044 0.3757235324888239 -0.07212458588039192
Ni 8.253002771507354 8.65668808984829 2.237374560974333 0.2741559587569666 0.08748769860002352 0.8686338333040008
P 8.519900200469962 1.387923041734611 3.3453218903758155 0.44496308351193686 0.757809773970882 1.197822198345763
P 1.7856033044024249 3.2559047916892085 1.528142001558898 0.3742945133517812 -0.9013040698435122 0.5296297677233975
P 4.736369380774289 1.1876817307436422 8.268150979371262 -1.2254998667666894 0.22015662172237566 0.7878436013288109
P 8.647234676447725 1.6699058984336337 12.344957799859104 -0.03398509869619309 0.06618996556351181 0.6085207257933456
P 6.4179760392013065 7.7798953701574645 1.3186065021283948 -0.38253309921148954 0.0010006733503724703 0.569082317292065
P 1.5882371412791927 3.2599445564147627 6.073696189035178 1.3847455119363055 0.3576749025172291 -0.455316401721803
P 6.880419917446806 3.8487857580102505 5.972581969782868 -0.19792249291452366 0.9937385709258498 0.3748282743680641
P 2.5443511872704203 8.444436667511079 10.369415494372793 0.2235805598022601 0.6771131301507629 -0.4279920028752371
