# total energy = -340891.66045824863 ev
CRYSTAL
PRIMVEC
9.09949394786068 0.00000000000000 0.00000000000000
0.00000000000000 9.09949394786068 0.00000000000000
0.00000000000000 0.00000000000000 13.31802918364003
PRIMCOORD
 96 1
Ni 6.787448824051271 2.055120646336351 11.239990320016236 -0.8145267670469521 0.1028793505647454 1.3886170790765697
Ni 4.549091673595924 0.4363088923399947 5.87835116923109 0.4217143973966414 -0.8613972063462455 0.43007793886998835
Ni 2.6779809883408823 1.6575364692259942 4.83706789965273 0.2476568840251735 -0.06488924447421728 1.1051357291536192
Ni 3.497781671937875 4.267780826655529 5.047799433857933 -0.22080042595396168 0.09395428016097367 0.2567737587247771
Ni 4.922362003608603 4.550320105241952 2.531065113222779 1.3584205008885317 1.251906381784676 0.48533223135760284
Ni 7.123120046201821 6.117280214434154 2.6549619991930533 1.0477672185364793 -0.428743536329281 0.8371954122890615
Ni 5.435719038736837 4.617938442735534 11.60092173660659 -1.0724667781656883 -0.6872193653468293 -0.054632085522583335
Ni 5.839909448254722 7.775389951761627 12.568796660866424 -1.0510795707391638 0.1964374237285649 0.4864738011612138
Ni 1.9699311865577334 6.213034186368612 0.3433038774445366 -1.2003688760270166 1.2894426881672374 0.6262114582048893
Ni 2.9007456929809536 1.7086119272197329 0.5240389307524722 -0.6256833536155612 -0.4647508076618254 -0.12263159349100815
Ni 0.4583069182975689 0.44222447317764474 4.643690009833749 0.39013970791415387 -0.95318173254941 0.8470339956460381
Ni 8.51688039279776 2.194051715755273 1.186259132645105 -0.4414895231410396 1.1790184353756985 0.30540488946891914
Ni 6.86003548509101 0.6122157543043568 4.627469252409976 -1.9515107510594196 -0.6233955860226489 1.1597328476732092
Ni 0.562670831146632 7.590761225110468 2.664897736336001 0.05635472464064488 -1.5810705784567223 -0.03725682746892938
Ni 7.54566413446073 3.834553932823013 3.9607420713004715 0.316267543215036 0.13922677884552798 -0.6179173365168971
Ni 7.83129724089641 3.8375931637102227 12.688099212480552 -1.0325275187685896 0.01074129767690408 0.14018425766279083
Ni 7.914666801940172 9.051029770971724 6.749443878771269 0.013436585120880085 -0.48053789529275304 0.23006771018850056
Ni 7.08111678340134 0.5572284239800445 0.17357102193817417 -0.9435598931889297 0.08034954489334549 -0.26757470599502303
Ni 1.7816171649684889 6.738420752134245 9.102100679218626 1.2392303289789044 -0.2800013617941501 0.35090030279755696
Ni -0.1276813653894079 4.705448273401093 1.6672174205460615 0.4976066778495818 0.27879114353613277 0.3695829668087248
Ni 6.5038722031859795 2.0081581594833873 7.121816088758296 -0.3181575611488972 0.298622319329447 -0.12509445320920393
Ni 3.332198185546985 4.267653433744089 0.6424579215308296 0.21259192200124033 0.4265578415318719 -1.2808289783562974
Ni 5.928847899427144 5.738459193280163 4.742310322275606 0.12531531097075838 -1.0987095139123013 0.5287501933319216
Ni 5.3960634453043195 2.8221897640908864 9.330584415632984 1.193361848581564 -0.0725084515823719 0.1333376670546026
P 0.06784673478480616 5.588827119300288 12.744314974450894 -0.29001632282799084 1.6274100849532098 -0.8588867812195659
P 3.9787081116109717 6.186663853700546 12.863045167912912 0.9366490250017094 -0.7656187284923396 -0.5696749565707414
P 2.217209927156318 8.354709216534724 1.5633630793427584 -0.13764683595291777 0.16333138520321547 -3.1367260592744497
P 6.261243303854952 7.750138856815497 5.725739921022254 -0.7733433508301069 0.7923890546076482 0.25343595260079577
P 4.806325260274172 1.2684694181947636 13.000939805002332 0.8889573753527011 -1.526152586262604 -0.8493898974727242
P 4.004441479721838 6.305221156782752 8.380462603531674 -0.020040463590642904 -0.36918264604651263 -0.029738921825329424
P 4.466222584704248 1.0384069196279184 3.692263330339547 1.2330879635265926 0.20124461530922116 1.1643515773921431
P 0.028295785529544027 5.6503214975510785 3.7679629281652574 0.4990863477189018 0.16813574857039432 -0.4720897645253998
Ni 1.0480523829226565 1.0593721530534619 2.3187884849916833 0.9249682462296716 0.2540525031388722 0.5794896286683181
Ni 1.9121039042576777 6.615968865759446 4.74306922004804 -0.2349695183654921 -0.8733651773413991 0.005174602222403991
Ni 6.014283045534967 5.678812012245252 9.323353048010032 0.3760181809111073 0.42508562786171955 0.1798448094772064
Ni 8.93107114586368 2.2365008537457935 10.207110432846076 0.6922947229872077 0.773857571462364 -0.9389748449214087
Ni 2.3602084702476427 5.174909351044596 7.2101275848165605 -0.18871357272174596 0.13430671583609127 -0.5510599125727155
Ni 0.7508256115965761 9.041611795018843 8.973687714537807 0.009989764222860215 -0.3805996296342026 1.401974217109766
Ni 1.7357557168501132 1.0279698003835183 11.43190319135366 0.19905506385707009 0.6112957174353214 -0.21794264479019243
Ni 3.9823297100933357 7.000440672485165 1.7594180402007134 -0.06761641359739322 -1.445398349731672 -0.9008263588761454
Ni 5.651249645905855 8.021039882992515 8.085521625016572 -0.3314848743854226 -0.9704538893662963 -0.4530093508551811
Ni 5.3399923652834005 2.7383470293760617 5.021589252278535 -0.010376715248633742 -0.007780158166051116 -0.35058482843966715
Ni 0.7060024157064357 7.515253626601284 6.814701807605742 0.24039994535244402 0.23149801487712393 -0.42871525419450685
Ni 5.0733317031585985 4.5655162596780015 7.299012348976303 0.1989247089267929 -0.29169731007483957 -0.7434391070715066
Ni 8.175512887607109 7.211585323703179 8.562706352890805 -0.7237197742657084 2.028942350975022 2.6763587253923005
Ni 4.962345178813393 9.555651292172648 10.987533967516987 -0.5901555930225965 -0.8299574997797254 -0.7398519039408807
Ni 8.182928974951649 7.512132500271005 4.730044204802675 0.17141596198356285 -0.8923450608780116 -0.10841056479561974
Ni 7.018858047681909 6.184216089902164 6.964889860649117 -0.29378530295211985 -1.114939088397286 -0.7869257175002319
Ni 2.333983729478365 5.014976650225434 2.6382080114399673 -0.901235678499422 1.4193286492278137 1.1375943639029569
Ni 2.4624685801592126 5.219287581694064 11.291477985073422 0.1424015770290838 -0.23452548884953806 0.8404735688197008
Ni 1.094095820914518 3.11516616192171 3.9333334864041696 -1.2508702272106778 0.5974084179302679 -0.26926160677914274
Ni 3.5903144231116384 2.8372494261218213 2.894607174548284 -0.20663519019717314 -1.161464485652335 -0.09770526256297367
Ni 1.2394056353991103 3.1693809452330757 8.334449193868938 -0.3658679798509828 0.4993588846539981 -0.11805451564328702
Ni 3.666358891747604 2.565156366273473 7.297680183102389 -0.08047707161014528 0.6619238240048342 -1.8341352637610284
Ni 4.1404061142029445 6.7422607384647915 6.169523137466302 0.25570058026525644 0.41235995276493503 -0.3853021773161945
Ni 1.1173996242143516 7.442157393915784 11.282168293095264 -0.4846100084795976 -0.061213595394842966 0.8956874949876832
P 0.30184658426451266 5.697529670733249 7.940821476608157 0.08108616594905389 -1.9808151564504919 0.23704002774127564
P 8.620605521190887 1.5631747198237007 8.01794605514326 -0.3300890224791605 0.12398142265068325 0.9672176418171858
P 2.0390873384822683 3.2428502571592204 10.453347281418955 -0.7397341474160938 -0.5115302299092094 0.5696039941234899
P 3.9021722703165946 6.052710207321456 3.872176699368695 -0.7429711662961527 -0.5773129327319735 0.019187628672044373
P 7.258920889796789 4.000592393897617 10.375676733263395 -0.8223493484151644 0.38407421844636436 -0.1122746757367163
P 6.604312414362693 7.736371322886311 10.408598701376945 -0.18869531788930083 0.8067622926101848 -0.7271622242883541
P 2.2920532626272787 8.586937394596047 5.683521910171059 0.17976150573478072 0.2524856728723845 0.7214376630997511
P 6.93728108689198 3.852853014601992 1.7220609788703203 -0.24822458360318542 1.039814539348306 -0.6034129722531348
Ni 5.245202939678417 3.147169081174156 0.4682553947316603 1.3365969772555368 -0.28031117972508496 -0.43228368827205554
Ni 1.5529741874148317 1.0767248874903157 7.1635281677612 -0.05824448546419002 0.8021430486706186 -2.052458946039723
Ni 6.81004286684451 0.6726837096686886 9.252647252312768 1.0537861710370497 -0.27643421326818196 -0.12146868353115856
Ni 3.0635538338011883 1.6029486066739826 9.267283787887848 -0.5567443645520024 -1.7678015735308008 1.3394563010812028
Ni 6.315439888178969 1.91568000527167 2.456856922410283 -0.4968605437121766 0.03949085900577069 0.6921401996872145
Ni 4.214803574483866 6.786338685823009 10.706749981260332 0.3948324854041329 0.7200112150658697 -0.42836969792963
Ni 8.241229430922766 7.392055581745194 0.38534353821971457 -0.32245438875203825 -1.0201756820714558 0.05693013752814067
Ni 7.783688689992571 3.980318721991319 8.13522487936423 0.6582288916517504 0.13635562794532 0.6254540112135745
Ni 3.176123670045718 8.357584656535797 12.715654299225012 0.06112772054925601 0.35843132106727943 0.32362809734516523
Ni 0.3104365062930339 4.737978963286648 10.211278910898265 -0.6341394548027144 0.5785678881849972 -0.07261232415008785
Ni 8.609049164224551 2.3693170634155982 5.957634147665731 0.6172020556174274 0.5745302277805139 -0.5260392221586617
Ni 3.933374434125704 2.6853515782170496 11.4615093039723 -0.16545820173823117 0.2959362878568516 0.4171080089728816
Ni 1.1310124667510757 3.803233475596138 12.978458595930654 0.9436467964757813 -1.577229093223445 -0.4084855574111932
Ni 3.038866907462864 8.399078347690518 7.689723678514477 0.8837138675655748 -0.06581612716386083 1.3747822300760066
Ni 5.073340802652272 7.792242214046396 3.7482397756262533 1.1374598952076216 1.712795135387934 0.2851867626498314
Ni 2.575338699694993 8.697569038687956 3.5494149288938477 1.7575009629357412 0.22075080366294886 0.7909924313704377
Ni 3.6201607623632794 4.173710261050812 9.271438616699525 -0.7199636496573859 1.5694659043382584 0.018786279468567646
Ni 7.218227954085405 6.071628054670286 11.657816320805033 2.056299659942052 -0.22586884161580453 -0.6130083292510539
Ni 0.5489797329643088 9.201317008496149 13.387149615019837 1.0620239855658098 -0.38720505076586215 0.3161150767975717
Ni 4.574242674111637 0.20694978463417152 1.7610959868342506 0.2039188197072746 0.022750920543270492 -1.2643569488432034
Ni 6.0750403647981415 5.586879827653991 0.5314768568818294 -0.4416885265257231 0.33345973872360635 -0.3528648827230955
Ni 8.385019629963754 9.144445173031892 11.022639814112363 -0.26558261526565874 -1.2211259060687099 0.747006769818107
Ni -0.1303456971372374 4.921779636013448 5.865539992087069 0.7310337914286184 0.12678752464091067 0.1534040987871745
Ni 7.878405319648162 8.963720129167 2.483479311053127 -0.7989381685800757 0.023143013775366594 -0.7936329543170784
P 8.246798321051426 1.7088485140552643 3.6019808839514336 1.0943075281898638 1.5806057230051618 -1.0099858860226476
P 1.7718170102812885 3.1447122178821005 1.7533987251351764 -1.2828470372275906 -0.379062881274702 -0.5171730300172835
P 4.901451367145105 0.9882232120142592 8.223736564283328 -0.37077338757240014 -0.3988025257954745 -0.41853317145518243
P 8.745268584528537 1.7980508505442403 12.370411319678485 -0.031710186619087324 -0.36614823009556297 0.001061094274662689
P 6.285020280825848 7.672611170710624 1.5183087563132909 -0.3821852289537676 0.9471283272664784 -0.5585541640672316
P 1.7485587044498263 3.309804331614579 6.109659388481943 0.29320551918924986 -0.43429043428943914 -0.07458616004700702
P 6.934596736258069 4.024524062260976 6.09861806285757 -1.2400361127096513 0.09464976356610151 -0.3619064241000735
P 2.8399610752367574 8.495978855827936 10.25208559028058 -0.9711185195334888 0.8970522365456939 0.3240764977364935
