# total energy = -381173.44327295595 ev
CRYSTAL
PRIMVEC
9.16635955707877 0.00000000000000 0.00000000000000
0.00000000000000 9.16635955707877 0.00000000000000
0.00000000000000 0.00000000000000 13.41589376160617
PRIMCOORD
 96 1
Ni 6.181462822773594 6.728556986425927 0.7151529476793244 -1.1904148501380982 2.135720008152909 0.06745212010538706
Ni 2.24725218134367 6.766148226522069 11.411076214294443 0.028759074410563377 -0.2651434708457111 -0.024520610849183576
Ni 1.5692349056959232 5.118421784873144 6.937439068890416 0.41097464238163417 0.32335607463070115 0.7557348937197241
Ni 7.75068856211007 6.164459225997603 6.495975281608701 -0.1593901411672803 -1.2587048927637483 1.9490394067007917
Ni 2.4762553394324067 0.423479390044789 7.984254733932008 0.6281456991131247 1.2669146822680504 0.9470938744841174
Ni 6.925037901193252 4.805610602351581 1.5844171468496027 2.257885460640776 -0.9428093881761505 -0.43942698418505616
Ni 2.9378457021540374 2.164204964745025 3.8748190486586656 0.6208090562423954 0.31623566153583604 1.0943432665238055
Ni 0.326359978421614 5.420242502416587 1.5370454012224726 0.26174267269427826 0.09251857615571163 -0.475243222552717
Ni 3.399811885613035 6.4236655384674135 9.180119986777383 -0.5153277492784286 0.9755750126429455 0.6958006792579372
Ni 3.3000085639434937 9.533013825893047 5.610701119026592 1.044471578504343 0.45625151194156266 1.2002002116596362
Ni 8.611675538698826 0.3020159609996845 3.065491840646801 0.0006769714623665761 -1.2604959232259 -0.5119902002647634
Ni 5.533043721783355 2.563271589672025 2.0284291820578537 0.2578384525438656 -0.5287177974320895 -0.17181422586324602
Ni 2.0552902817841967 2.7381290625015784 6.921111949441684 -1.4728888418424568 -0.5346555030727631 -0.3289857621126528
Ni 6.813904959246014 2.7609624638864814 4.689860565150398 -0.23254368253281887 0.47653982987695354 1.3599670194400448
Ni 0.08200591816535534 3.4411155012856063 8.518005428135925 0.1435500888112302 0.35292144699264383 -0.7496447216615865
Ni 4.8676576894549175 0.8408842336834056 13.272785817440655 -0.619106728839308 -0.35443968340938314 0.13217527131538528
Ni 7.283946705378677 4.8797664502856914 8.751925421432555 0.4616130333637921 -1.0016519122356558 -0.3544427687331767
Ni 0.4916468553515379 6.951767005343544 3.2854588015917243 -0.7720251462393156 0.8143064235060299 0.5715346354872995
Ni 5.6803196190339555 5.100804042014138 12.459594988921467 -1.4934435260653571 -0.6873319796652937 0.7080298743342773
Ni 2.5073201316015905 8.86232047144423 12.688845638715298 1.4514273295345714 -0.6296785908178834 0.6143756419122257
Ni 3.5984927266478732 6.509985145388985 6.0020029208652135 -0.8237472572039555 1.5557824933138948 -1.084860523844351
Ni 8.361534755723062 8.196026969530442 0.8107571600857493 0.056795668832805415 -1.6430591043443767 2.4126049358052644
Ni 8.950024198642447 3.331339180536669 13.956956470185826 0.5716737321683251 0.11952235843806511 -1.0346196254109277
Ni 0.49306580779408427 3.2270718418159636 10.8527871758483 0.1035987452292732 -0.3948921349974747 1.0451081836470777
P 6.0615118430374055 4.299911717966298 3.3349763919656246 0.1688518008008124 -0.4367869754590477 1.9507224508301697
Ni 7.117228959738925 7.257593421965752 2.838011214862372 0.35261522860613465 -0.4822283956212985 0.1027112004179973
P 1.4470748333327725 7.016884822861952 0.0852352265988766 0.24255221580875647 -0.9217507677336383 1.0558134858797237
Ni 1.0628485443520428 0.74060059477879 10.993090223466826 -1.2733768929536262 1.0126603475310174 -0.34667855140672554
P 0.17695565250719486 1.6945207066308328 4.516191969141247 0.3776366903511367 0.8783965691177194 0.21009409528005107
P 2.023547179015863 5.631032104282199 4.803654501245383 -0.41194034872901314 -0.4666493102361189 -0.9925404368526907
P 7.817630485158624 7.390065648707873 4.8299097046122155 0.6022328359021047 0.786374215872136 -1.0017462717216747
Ni 0.8208621547411958 0.34590815658036356 6.281455888083709 -0.48738242901841217 0.6635636736011024 -0.6965614686833617
Ni 5.499348184452603 0.8783883933647916 3.9175077012438257 0.09888668446558453 0.8980397972699437 0.7041932741970066
Ni 1.0733348595605252 4.9079713383071075 12.414329672695482 -0.0016424206994294294 -0.031140430158546364 1.122662425183473
Ni 1.1287180033451847 1.8346560098714606 2.1992002918455 -3.081376378859551 0.7270066725470963 0.5171558036261028
Ni 6.5904749477016455 0.4703543189898389 8.739448172951972 -1.322189029360323 -1.5090804612716655 -0.06087729510134677
Ni 4.570979299561787 6.968972262027392 3.3416440018280813 1.1354670331473091 -1.9022121619346075 0.7566787456902324
Ni 0.014506680462363784 7.812433159351623 12.083681671324108 0.9105739251812124 0.2616999923818009 1.1175688127106496
Ni 6.955836868938444 8.855253208309843 12.662094535302332 -1.0007821080361925 -1.8058531289868835 0.7669387328553436
Ni 4.684917147500105 4.911344558583961 1.7822207672852697 0.10355349381363457 0.13326850437956403 1.0205145534681135
Ni 0.6717099037115959 7.095138033469307 5.653216527418186 0.23490858322056962 0.5218421533581787 0.1985732391246451
Ni 1.9474755619571258 9.095255997736148 3.8842768983370854 -1.912464178679919 -0.02265013329934809 0.1320397741787855
Ni 0.9977490595525309 3.8251309639990323 3.855271787135861 1.5284748066378773 -0.26188331203720056 0.5546633136532577
Ni 4.357439789861783 4.4840272138383055 6.734228213016389 -0.546790081552768 -2.0359725183489257 0.5058462921505547
Ni 3.299990231224598 5.483756207031599 13.709433599468403 -2.010301853055699 0.9739696158290387 -2.234586895124152
Ni 8.270045322072834 5.069290098232003 4.034870101071907 -1.7653780516909725 1.3872765058882752 -0.15071883864552751
Ni 1.4321886655892626 8.491147078317416 1.751230222627614 0.5937934468855 -0.8591017254438494 -1.1894681699541125
Ni 2.582071792899819 3.6714202824159554 1.9727132994252325 0.6170105084319116 0.18256400818058238 -0.2924012781203997
Ni 7.833323292533556 1.9861759315464722 9.743735596698743 0.9576191994954734 0.3585794166093696 1.6359152942107438
Ni 5.53302538906446 0.702123884359974 6.652270876556108 -0.8372216375413065 0.803103869921991 0.1418773290944976
Ni 5.82639472319687 5.6439475047443945 5.2355394429039634 0.9954758653319307 -0.9177215919695871 -0.6051096432292676
Ni 7.777014346444651 1.9583835297002148 7.180132184814703 0.39888608664821623 -0.6407695585247223 -1.3371199396385425
Ni 8.183084069989903 3.0177213583836835 2.880995940857702 0.04681516058132582 -0.7023917022118935 -0.9445425688171734
Ni 3.0354399311966174 1.1308720978154585 1.7034294913783188 3.3078322033270773 -1.140039997229972 -1.244921980047043
Ni 1.5437157609927632 5.088961105607355 9.58741341930894 0.40331352629195055 -0.6868360138654815 -0.5367717780848175
Ni 4.044060293054446 7.735985721555519 1.197394201601296 -0.9109135679088183 0.8619685054686832 -0.3451703422923152
P 6.618359013142383 6.909042603956538 11.49947383490287 1.0548176976253576 -0.10658790976458417 0.42368026287376065
Ni 5.387234442044432 5.494260854958977 10.1554426313045 0.5292433309182564 -0.29015953327407445 -0.1278797292638249
P -0.07690300586066816 6.133211106639459 8.37595802231445 0.9961734056195876 0.25560107857291464 -0.06673092566864637
Ni 6.377228761503977 2.8381615431573195 12.723941795769704 3.32469221230721 -1.275861607048693 0.48011700570525045
P 3.9532766690817107 8.876610825823622 3.2734646202540505 -0.8781754542458489 1.0044410449450185 -0.8596360006807647
P 6.784022627445618 3.987577186136029 6.642316210195608 -0.05725101120266914 0.6546504302718726 -0.010680105421665479
P 7.961569827570161 1.342184182169605 11.926890176330563 1.3725206877353395 1.4120575694876971 -0.2427928710646528
Ni 1.260466087690916 8.06921955292717 9.64504782097402 -1.6198428141289136 -0.947465141780607 0.7455019031378064
Ni 5.75848116604683 7.9428796206557415 5.184719312852506 -0.6982748518300427 0.4825104456380916 0.4789425257811752
Ni 4.345661017971137 3.1645022722240923 -0.07428876014610596 -2.7006649062378325 0.6173560646967884 0.8180347802002106
Ni 3.1380573252166872 1.668680739346994 11.411800356690835 0.5084996706130016 1.249534796228706 1.3516309887705238
Ni 4.3277774506881395 1.5959181780489757 9.276406176326734 -0.006619305088730536 -0.8062827818706049 -0.39075420156970125
Ni 7.094789711810284 7.0543752330041665 8.953660493435459 0.19628598575236517 0.8348125138791815 -0.29324897083267565
Ni 7.613211503109354 4.263631267271217 11.159421148737872 -1.0454002609661996 -0.8486846438755836 -0.33519831868126787
Ni 7.827566818800228 5.581020447134052 13.112077537054994 2.5485530438995205 0.6423615856021906 -1.5400902793896185
Ni 1.8367917716228386 7.476550250099509 7.6848649349141676 0.02259639724327721 -1.6834663045168294 -2.2041146946772234
Ni 8.8911853373459 4.013224659871461 6.097268894608008 0.0053520083405327185 -1.1215398815432556 -0.47787217553513184
Ni 4.456298976508184 7.281416790171036 12.23933287120232 0.31882861907399285 0.12738427768464514 0.5395663101108191
Ni 9.03217311201519 6.036570178979468 10.74434639367093 -1.4855512678014737 0.37968046025404284 -1.2325107508668838
Ni 2.5702930210091726 6.02891626884041 2.635056100416944 -0.4244359100928626 -0.25854473458227084 -0.016454031790965207
Ni 0.6038770105246982 0.6744955603478353 -0.06407926899295242 -0.6877369284131962 1.9949096868703449 -0.06754622248109013
Ni 6.11859076331994 2.9153514560687093 8.416326669323327 -2.084127737897914 0.42782256717690836 0.12992581315957624
Ni 2.1183640011457063 2.625960321936719 9.316948984165125 1.1052902524536126 -0.040779753020523314 -0.10011644310762759
Ni 5.245476693181513 7.93669232802836 10.130072898260341 0.986892494538294 -0.04496268075361934 -1.3878835433446548
Ni 5.136433681188413 6.210181026924097 7.675473999659719 2.882333142077023 1.8411734015547325 1.1609705767350522
Ni 4.992595168730803 3.162284013237683 10.926225297837634 1.4429480884189665 -0.35091907185063437 -1.2172247712420907
Ni 6.068844930595785 9.124872505112553 1.7709919769615015 -0.2874621889475694 -0.15772920852508965 -0.2642929499199577
Ni 4.065326246973745 4.573069229515926 4.218721605791813 -1.4575239293506124 -0.5446663503415458 -0.2767643429140911
Ni 7.4959829321292135 0.4544653515227206 5.162905210638217 0.6891772604041486 0.92402927935517 -0.6880647440662602
Ni 7.697578675468507 8.483291508270502 7.036716241527643 0.7284647451498616 -0.5149749939247001 0.9800150506921702
Ni 3.2186662902021714 8.734880576039046 10.394526951514116 0.10533783940756697 0.9208848201889174 -0.06844482303595954
Ni 8.236129792115328 8.544761114728615 10.241182924308958 -1.2628783074151475 1.4850252200946747 -0.5406783122280753
P 2.076079585012202 3.1218328689937733 13.370078473257397 -0.4000240569074014 -0.10942795031654057 -0.7879909255399526
Ni 3.2540942694685913 4.459516368674423 11.318774641197123 -1.0949688159229467 0.5292423024769917 0.36948937865365394
P 3.9656237552581315 2.5449205380571804 6.266107735824021 0.5750215655946355 -3.2224258127361147 -1.5949915594131887
Ni 5.8763513821883295 0.7571917053796231 11.058586611630433 -0.8668613147846104 1.9784811090006762 -0.7884113009068229
P 4.247498474642782 8.158811550171668 8.032913436425632 -0.21708672454780034 1.3734609401614217 -0.5655910163093549
P 3.8691661547871004 4.318519427645686 9.087603920868979 -0.29321837470505635 -1.621616875310201 -0.10897260794667685
P 0.13745414310209536 0.9445750083948333 8.381660414527035 0.9660544747470202 -0.2282234578909102 0.546336024734485
Ni 7.854598412812304 1.407659487706484 1.1393784793831785 -1.3267931037912375 0.027590508023758935 -0.6619377079619051
