# total energy = -381168.8803098752 ev
CRYSTAL
PRIMVEC
9.19708623456235 0.00000000000000 0.00000000000000
0.00000000000000 9.19708623456235 0.00000000000000
0.00000000000000 0.00000000000000 13.46086536000556
PRIMCOORD
 96 1
Ni 8.192460814149664 7.430068360018632 8.196805517633969 0.16203632054087577 -1.8476214711729213 0.5308214740386537
Ni 5.156355531708991 2.1188247009193195 12.076536517383335 0.6510917663863368 0.4965980340794092 -2.4192936606793496
Ni 6.237969648068552 8.621835976868299 6.57023461783612 1.0456843678655217 -0.5986109228788014 -2.1634799518749968
Ni 1.7044499856666067 6.628652669469506 0.13712763437901276 1.3320019016856866 0.7547432192304163 1.0627179263090407
Ni 2.6960062347138924 2.7113653685385963 0.9825302287265885 -0.1068265081379515 -0.9785960588574565 -0.5936273536212809
Ni 8.126793619234464 1.5605615732788876 9.872185353484333 0.46045757960311023 0.42937499926569284 1.838167781959189
Ni 2.829777852366777 6.476863960102493 8.790927164357717 -0.9227151885294368 -0.5826325451726739 -0.6743085708224322
Ni 7.051737025280299 0.5007261568575894 11.904385459340936 -3.1945213730163626 -0.05562401712220743 0.2072748806637011
Ni 8.350945002213912 7.889904271975244 12.771924520276944 0.2980170816452803 -0.34257172832720356 0.09888437047273937
Ni 1.371727001010134 6.7004819120868335 11.331800629190427 -0.7804491086369526 -0.23322579620150802 -0.18847034636268833
Ni 5.760401754067613 7.63883301791501 11.488969633939147 2.229922399768947 -0.47310715004632076 0.5604922616302088
Ni 6.0553155176741695 5.664706072962197 9.953394704238079 1.8116314262315576 -0.19380384276045978 -0.6245407553706857
Ni 3.885676915927612 7.377083946866465 6.755039026965961 0.7005636478642192 1.2644165984365452 1.074993144131968
Ni 7.833287009804659 6.662065683352829 2.067669588196933 -0.7407109095070662 0.29331016308791424 -0.7349732356923407
Ni 0.3497431122349141 5.2499634742645815 4.2709437733109805 0.5733140959852255 -2.1817823497286097 -0.8629689217087396
Ni 4.836085401662487 4.898717558157237 11.64787504854781 -1.05668637540298 -1.1509522732671016 0.06702094610523941
Ni 5.443175859527681 3.224912263451058 0.43716417495584653 -1.7923522662869713 1.6343986004559015 1.6687701359572358
Ni 8.374287206793014 6.36497221033522 6.1891441572610155 -0.15443022605884374 0.6906319905728041 -2.232046130980169
Ni 8.255313700711355 8.518423940506041 10.20489730163746 -1.6018134674310285 -1.013611912811009 1.3363303538577114
Ni 1.2241413600011388 2.7314977900609176 3.9964907672013195 1.4235077203061677 0.49218962059906857 0.5324842064530572
Ni 3.8558507656320944 3.5640456171349673 2.5908393943194477 0.028617920847008777 0.35601936919167715 0.5016039719344328
Ni 0.5105265718298075 2.8415777138620433 13.225165201775054 -2.1951076060826065 0.7608303059647606 1.3366419715608593
Ni 3.472286288890015 4.6454849888581995 13.503805641196324 -1.13205800746576 0.05909166395583372 -0.17597375655757436
Ni 3.859685950545209 4.949954524946116 6.5634775186618635 -1.8362389403675925 -0.04925050949569583 -1.0383713791438762
P 0.765881828605937 6.00245986372772 7.6372373234727435 0.217378030535974 1.1911586702826582 0.028078760514087128
Ni 2.524609337733545 6.667427584562291 5.224161968856303 -0.9354616895618276 -1.277335106270426 -1.831859066132342
P 2.923017911477464 4.452079464786524 4.281631707094028 -1.3916720638528095 0.008634792856862548 1.4250943480669973
Ni 3.6357093122020885 1.8344691921814797 4.080095958889995 0.36894327634219687 0.8895968087089131 -0.21760248784195427
P 8.581874637665702 8.74635532588187 5.556322091842074 -0.2814954298411733 0.06156249409382946 2.2891852991953217
P 1.3778246691094027 1.1245645085519962 0.39326464347556134 0.21480744159532036 -1.7847767679325584 1.2892372570246509
P 7.2157210708458495 8.779648777645601 2.4054969556514365 0.23630340668556718 1.15923071122581 -0.9098995248220071
Ni 4.972064319984791 3.5865324927046682 8.07603490092396 -0.002819214616349983 0.02633709523263206 1.253279607983119
Ni 8.893462718412493 1.7085886744217664 1.7579623115622096 -0.8716821332120214 0.9427140002488668 -0.12420613706697964
Ni 9.115912640459266 0.5568394187086569 3.7866895976989268 -0.6928397968574004 -0.0758539710158371 -0.33115423051888127
Ni 8.911617766418459 5.533408471476285 0.05828745301044482 -0.2919711325615165 -0.5091488741612263 -0.047033961460351256
Ni 8.291954891823703 4.019163423910697 10.909654376164136 -2.4015656472719673 1.9458844060115779 0.703782411911833
Ni 0.4784977194079327 1.631976947020699 5.95868081407564 -0.9403218458676064 -0.64935087243583 0.2040345193495325
Ni 1.3351317953283994 4.387902197823181 12.175729850341165 2.1211534231926437 3.049667992012677 -1.6835426662807198
Ni 2.588832590127501 3.6773445210789952 8.499230541476836 -1.210027225052387 2.903446527016871 -1.0017221033519588
Ni 6.388976605115146 1.1569842371340804 1.0225118015186556 1.073063016988791 0.5919445666022192 -0.4325140591153067
Ni 8.21682389528837 3.894257797279977 5.774576303199728 -0.847803783932527 0.3932386585544518 0.7200261274642051
Ni 1.1680759229979085 1.4006702310378842 8.501802046756708 2.093795085784349 -1.454541963904153 -0.048992627848618846
Ni 5.984893429233598 0.7221496840930828 4.475939465314327 0.7124722263763472 -0.07485329766546464 -1.829580040290178
Ni 5.571171707095588 3.033631266273699 5.299152249973961 -0.1146316060046671 0.04354805979427984 -0.0860908182524969
Ni 4.160485849270216 0.6217736058598883 13.388889889511947 -0.8269071429891759 -1.08355491765905 1.640067882926537
Ni 5.464375143040221 6.452795185719709 5.443089406918129 1.0443815898936981 -0.15838381138995303 -0.7371072513162079
Ni 1.984032206706829 0.07964308698706893 4.796563683176549 1.2053799560883627 0.1268803414650331 0.33669058695607823
Ni 0.8923803905530875 5.201329282848393 9.58017878880112 -0.640618891879471 0.7039243368063361 0.19780550772068514
Ni 6.039606894576809 8.182601537826262 0.5886392636860796 0.5382972135904084 0.2148148977944881 -0.3374092102896576
Ni 4.223881363913141 0.787790207458528 5.911137397073589 -1.1032246281738356 -0.26187868405151027 2.33550089443241
Ni 5.933435732377778 2.5841420762049867 2.7332958203978817 0.2331689748216436 -0.059515381756813625 1.4374433565506535
Ni 9.11432154456006 1.0086996175797693 11.997682540385583 1.850268936098097 -0.0307395951757019 -0.5275062936224915
Ni 8.108969666328909 2.663016286792208 3.9309900395449375 -1.0354097254123908 0.21696305448574246 -0.9256822415775605
Ni 7.090401575339613 2.5577096506887003 8.342331011351508 -0.30653077554324626 2.1869201851758073 -0.3857202386902196
Ni 7.506100670993977 3.8706396801171983 1.3872636385970036 0.9497544520354159 0.11566621791676852 0.7197389352410895
Ni 7.079751349609669 4.925113195329034 3.508089625456596 -0.20898260738342722 -0.36516709712921624 1.3598299796415483
P 3.360523298328458 3.633998654183289 10.555996984075454 -0.04736923331258294 1.6763939710510807 0.984165325415118
Ni 6.887302322494743 4.884903534801127 12.738850878871542 -0.19390463000438218 1.2616511198762659 -0.6905913671428557
P 4.181225278476628 8.29487036812456 4.707816400636741 -0.1562600801787309 -0.7376965481607747 -1.4222460799849248
Ni 7.133416347134907 7.672466761865275 4.210235647233073 1.7534962126517222 0.602929090638181 1.5116801036780416
P 5.345760323317345 4.958379055834396 2.123626499583917 1.3763639727408297 -1.0993075525076164 -0.6723478475516356
P 1.7654910462621511 0.8996791980999647 10.520729837629819 -0.30090314494382375 -0.5698893865743927 1.006827542899324
P 3.6110335301352134 7.8691096602520965 0.8950999689195335 0.2883258224994454 -0.25170508595261815 -0.38538753794114916
Ni 1.1363091875305271 8.264363633455972 9.636700401276034 1.4223872335484793 -0.13002737173444703 -1.315710877835147
Ni 2.728251218659648 2.266860999148321 12.171125789028205 -0.17442312424100284 -0.4845341609363397 -1.452494337346505
Ni 2.1832318950357275 0.9845204781635142 2.5571872561969378 -0.9982174326328098 0.9565254522106623 -0.9414497888244625
Ni 5.428662857626255 1.2864792097399667 7.7699880645660215 -1.389525449823452 -0.3809971221829374 0.12143088831468764
Ni 5.441364033561534 6.732616530999118 3.2169714992928253 -2.2877722208978795 1.0527140210187935 -2.0257341284503694
Ni 4.067199804728917 0.062008594055639535 11.117005441923475 -0.21461949395423038 0.37871295413445105 -1.4247045688277462
Ni 5.999544387426862 8.473477780625007 8.724417516353688 -0.15439165951142442 1.0371740164016654 3.684265874509048
Ni 3.3071801988175107 8.850006486483315 8.32332431317059 1.0387804416568367 1.0103939200943437 1.8127884226541362
Ni 4.589658676094156 0.08583548507340011 2.4327690751307145 0.0081352275126247 -0.1630627049228611 0.42142823361479037
Ni 0.033339437194342104 3.0509493794425118 7.827008159108776 0.447744502911816 0.9937547688757659 -0.3160040051410042
Ni 3.699721031615225 6.892057216020115 12.16977933561986 -1.7925731240485259 0.72376682545356 -0.5292057928121016
Ni 3.283902373841268 1.8588598645785541 9.352730250446728 2.4506855447270697 -1.9633308836227996 0.7212851966822869
Ni 8.564363385688315 0.32175821858113646 7.912040738563674 -1.22658435808012 0.5795922156844535 -1.4866802391995944
Ni 5.119962661921954 6.191303633082596 0.37139765151052195 0.48888626725744844 -0.926818926285165 0.71981195457087
Ni 1.4708531952392705 4.450175667959152 6.368052314477671 -0.8590415616298754 0.9277190695019314 -1.0834106787717017
Ni 7.303185359871558 1.6225775250034251 6.1963730669533605 0.39873336312043584 -0.20660947916556033 -0.2507946583232068
Ni 8.000103757895962 4.932526046743831 7.989211648800995 -1.562559149916096 0.18290647912166566 1.3116873584980506
Ni 0.914465353459232 3.9552528724449085 1.9702669279071678 -0.8505481794468837 -0.2711732219795588 -0.14551261185423975
Ni 7.399837537933721 2.67394242510583 12.856135799941097 0.8049023565833106 -1.042569990606256 -1.1050084595471357
Ni 2.4249681066815443 8.003828577775606 2.785133356910563 0.6354728289021572 -1.8991376367743422 0.049463653947766424
Ni 1.8672384100362223 8.831051291984684 12.398116312493695 0.7378839815812325 -0.4438544238287904 -0.005755671536854603
Ni 0.2942258215645895 8.663333229453368 1.6703591465360503 0.0558315051473232 -1.2993882294157235 -0.6272761520239778
Ni 1.5878309336323289 8.324080313649866 6.968757235447959 -1.7144743228625698 -0.6896752830864896 -0.18732800522812898
Ni 0.46973289633311666 7.380367306612225 4.170930060271015 -0.30360151771159327 1.5142666334582955 -0.5084071108991953
Ni 2.6794330855210085 5.593998874851824 2.2218366640352447 1.1936251295452798 0.5001723816942288 0.7481545102693051
P 0.6512291135846661 6.085941814462352 2.0014560863660513 -0.3655252517995834 0.897810454867957 0.6465653392708929
Ni 2.490203038548984 2.49357836915597 6.419850303520025 1.9611333617508482 -1.308494819702682 -0.06163037121728741
P 5.9609534140565295 4.726244602100549 6.55988329740516 2.4940274020478146 -1.132911613715307 0.09292275357266579
Ni 0.8566000467018134 3.107778174593916 10.299957464091804 2.6738992081082142 -3.604728026883721 -0.5583302209818837
P 5.499029763550093 1.7375778898801297 9.942329689924005 0.7624398165437256 -0.6816644969668713 -0.2922338993045999
P 7.844111980170932 6.50840076841681 11.151600281373549 0.03410876875825093 -1.0401930057336473 0.3094548911685767
P 4.495241389959779 7.150780445734332 9.81826099813044 -0.001708498050674477 1.0236520706558305 0.02936174099156879
Ni 5.996914020795805 6.524973917609694 7.73556888946089 -0.39099665659781047 -1.509613193846684 -0.2733699725205615
