# total energy = -340878.9299671436 ev
CRYSTAL
PRIMVEC
9.21022626334939 0.00000000000000 0.00000000000000
0.00000000000000 9.21022626334939 0.00000000000000
0.00000000000000 0.00000000000000 13.48009712034948
PRIMCOORD
 96 1
Ni 5.153232037881688 1.4652456634970472 3.5517091056180927 -0.3672085530392773 0.08214880288561335 0.15288473594859475
Ni 8.081218183370643 7.586923767863853 10.771298661996854 -0.15667711311149146 1.5422433211768791 0.6415835697855854
Ni 2.9091236023914306 1.174377512343289 5.189554406638379 0.276558140440556 -0.43764083881891075 -0.39840554746737195
Ni 7.5839396546003774 1.0134656517686613 4.49851021969428 -0.4808770237997267 -1.1871302658495555 -0.11427473688588062
Ni 3.2728906932995345 1.8107580862316688 13.188050944095735 -0.7964164305994865 -0.08361458879786245 -0.2574988098162598
Ni 3.8658818919279367 8.449277239651522 3.506105591998425 -0.48828437200739133 0.9551771657128841 -0.6374667194037344
Ni 6.635682403774328 0.5822216812241373 1.6596016971652918 0.1955187685690375 -0.8712347612619576 2.242413333147106
Ni 6.994383870315421 0.4453558790084039 11.478086809473623 0.42011645678190224 1.1606566450390592 -0.9866428404213331
Ni 4.684615732802582 0.12528394286752248 8.078797735945823 -0.17630182932095442 -0.4500497540062249 0.7825214177849491
Ni 8.11237637834082 6.1999650264024275 3.56268216901965 0.21007738310950272 0.5082844692784021 0.36974314653567286
Ni 3.292047963632957 7.386896076949781 8.991278784424207 0.7859435560926206 -0.37100427263628366 0.6054307740141122
Ni 7.941545104232973 2.5253519003466947 2.8928693953316116 0.682068160163193 0.6828662305844562 -1.6109527107281352
Ni 1.647027896463759 3.0652645658349464 6.081410995762131 0.43730608118731135 -0.659947931225386 0.22382764281605966
Ni 9.078961979149327 0.3962202436710116 1.5859337035297725 -0.32152570629018173 0.31873425958797363 0.5152097356433255
Ni 9.357866046570818 4.314327801800218 4.873486155792661 -1.445152552269453 -0.156662200713156 -1.7410276478710662
Ni 5.435783354847427 6.462170953865026 3.780628354853758 0.7271622242883541 1.3243775523712096 0.31805368858118127
Ni 2.6803600059772243 2.5143364699049773 2.089226509957597 -0.8024598085800889 -0.7314251133297662 0.9848968042645038
Ni 3.092287369276418 1.7777486358110022 7.63337462228673 -1.2954955792295368 0.29055342627838343 -0.920080322009751
Ni 9.106841333620128 3.95084622790189 9.19112134979323 -1.4972680420177698 1.6414809612239794 1.1645891473242458
Ni 1.9760448042141692 5.255668172808767 9.894256721590077 -0.042788298810119856 -0.40937258800183685 -1.2656011056629495
Ni 7.390313070840983 8.065505537606787 5.684583798189691 0.060054284979419156 -0.46432451875768416 -0.13022611800881442
Ni 0.8864133454857461 4.809497188788581 2.470282116319003 0.5896560276783588 -0.7506567078658685 -0.0057708410455061905
Ni 6.6975014415041025 5.682617414912679 10.63467785179596 -0.1644798969853619 -0.9448896677439469 -0.3974167011915414
Ni 1.4337743208387275 3.8313895951016543 13.416376133746542 0.9007415124718229 0.24436381509619853 -0.4380504155525036
P 4.379867770883215 6.804312433839056 10.816712444958412 -0.40391516443169145 0.48540550779769953 -0.1869523670562651
P 1.8007281499849874 3.3887645481383757 8.432150824177965 1.2060355873944908 0.5523511205803132 -0.19088666911366478
P 3.7591906325325684 7.00695582897173 5.2432997601497515 0.6754820223052431 0.3998679909455113 0.36838483273556555
P 4.598233022005866 1.5725724284948226 9.651250431501062 0.3131050863266543 0.7589328318317317 -0.09026603267610907
P 3.620770144147469 6.654572577550217 1.2317977460772742 -0.17983735327803868 -0.9896872836746117 0.13202049090507587
P 4.714429234758971 2.3112325634662105 5.701312331894785 -0.048374534648645724 0.2135278035519484 0.005263305281468356
P 0.022362429023822076 6.588314210829716 5.5409807155658335 -0.890564314828505 -1.0938971801253226 0.9543574980250661
P 0.5455235352416747 2.4981080514782987 1.2147735641136694 -1.6378713894958503 -0.9162352372320479 1.1483027514593964
Ni 5.024537548281248 9.234356914276974 5.696311179110627 -0.2963494641348703 -1.097363284297052 -0.941728753517462
Ni 0.3852821791287171 7.967057430590463 12.965211365123094 -0.08370457740850747 -0.8336812284882159 0.23816848491876405
Ni 6.001282028502143 7.708286917471309 9.571933806185019 -1.007476746447549 0.7647715500006957 0.48876465407791947
Ni 2.893779365672449 6.27490863635582 3.2692609431849182 -0.07888093076761898 -1.3029767180979301 -0.5495321630742794
Ni 4.432172645029132 4.684615732802582 10.02138731479503 -0.32180955607918776 -0.21677819216844602 -0.19946695458350808
Ni 5.295253724680426 7.894803206664646 0.8960426368961274 -0.8256439600060361 -0.11257266659310936 1.237859673883623
Ni 6.584335393145082 3.2099480079828955 4.712237200941973 0.189405456582448 0.23443730001110594 1.1524591968299314
Ni 0.30456099432909445 1.242330560670208 12.591300131164399 0.2624458694088899 0.8441805853576428 0.9439818112176968
Ni 8.089571858463149 4.174562620401329 1.184782304793129 -0.20109549132586657 1.0238348760905982 -0.43881197630887653
Ni 5.703699622505566 5.495391938307961 1.3482389508452202 0.08189760610675573 -0.02618102927074201 -0.6476837691460523
Ni 5.000323863806937 3.001879789664459 7.875854087441577 0.03631991747695681 -0.08971633082022613 0.15841543595883686
Ni 0.03818099238807843 0.4634493682247542 10.354615137928343 1.7081967173839743 -0.1674286952010407 -0.5589298022390954
Ni 5.3789102085450775 0.6601291419435386 13.153056689945814 -0.2052401096218594 0.05453952580877704 -0.09640556991494366
Ni 4.737850839786804 4.287553674464035 3.6110349351366864 -1.7537247837227603 -1.4665909246488869 -0.7040508350818713
Ni 5.180641670820277 2.3918404624845344 11.588785438254602 0.34215083873970104 1.0192685968761543 -0.37867181648387044
Ni -0.09033666087082129 1.8846333099549295 7.925406946022288 1.4749248984358792 0.12312807351145247 0.5410161551834682
Ni 7.34173833827441 3.610528372699985 7.181831313369676 -0.6273118903579197 1.6429441760330674 1.0202487014012365
Ni 5.557017561289177 2.791122185318445 1.3915905641780983 -0.35782762604500956 1.012429462467134 0.19117231867488366
Ni 2.7592732233891306 8.402535342083196 6.809093462218901 0.030424892148760502 0.295269086586498 0.14009015528708776
Ni 2.1446287831482875 5.51674124245838 5.609513087115816 0.28497798907313504 0.48434004264766256 -0.18139467046282953
Ni 1.5323145301162695 7.885666662351783 4.72079718509961 0.8743758779941007 -0.19628727130394583 0.9893504691604831
Ni 0.9518860799180541 1.681722818264722 3.980524339534288 -0.9880633749179436 2.1992141720518124 0.12347980042391636
Ni 5.146167794446239 6.900338251385335 7.044631179945719 -0.007597866951915948 0.28192146163499837 0.4235038851968964
Ni 2.1475760555072756 -0.006204008315669914 0.8729185221720294 0.6781752528666901 0.060042972125509485 0.9011953121797899
P 6.7861038167961825 4.64942345879104 3.0183826728295675 0.20273919757687664 -1.3186913006197096 0.3181372494339231
P 8.308747609484522 2.3714858627552733 10.332008637912292 0.2778436920211989 -0.49673944475328 1.524700941417742
P 7.534821518692617 8.37648882261064 3.306370786275027 -0.1724228059815224 -0.14689869356848895 -0.6077344824466242
P 9.06960438940954 5.900651097894944 10.341013475991613 1.0430800974734553 -1.6000903140923346 0.12535310618722928
P 0.802858174108434 9.028407047966558 8.185964243009078 0.8520849278063842 -0.33610540387656956 0.2465374257087496
P 5.912670442983941 5.0403422963063225 8.25545355705312 -0.33011884727583146 1.013781605619654 -0.47433279492330566
P 3.367102096299813 3.584684478202109 12.07100893140611 -1.3167966547001582 1.390409137979986 -0.5405968082578625
P 0.21257846605030073 5.883252980750791 0.6404192580428058 1.217016768996343 0.49952652058011393 -0.39305919555379404
Ni 6.585201154400535 1.3928809168577678 6.768504916722575 0.14063522915728038 0.3877377833408806 -0.3163084237553004
Ni 3.3288520272158206 5.05927852121282 7.761475973324922 -0.6528012928782758 -0.07839267827729081 0.5727409970905749
Ni 8.787734629176816 3.8120941713764043 11.884026604771009 -0.851890552407391 0.6053749810755124 -0.13430568739482676
Ni 4.666839996387435 5.352126870982774 12.388020309406706 -0.12361529756051613 0.13542617415251515 0.9701687540257098
Ni 6.5481299942601385 3.4096257103043377 9.667062547707033 0.19090980904211638 -0.6329994276610003 0.330193923488141
Ni 7.024390787020369 5.61135789540802 5.698994117979918 1.2057190845953365 0.15110501834035267 0.2224456748668685
Ni 7.397607569929478 0.893780605360604 9.092501011548428 -2.5168677969810975 -0.16972340477248835 0.1571895339715357
Ni 1.414165749425335 2.7168417116458237 10.69788579162491 1.1236736400568066 -0.0025554194320020506 0.2147277373973205
Ni 7.588756602862099 7.148931464639858 1.2027809286804245 0.582174631699649 1.695127542904842 1.537553371900378
Ni 0.7293532014752712 7.246900639897847 2.5709102838583653 -0.21049518737321166 0.22342089429594425 -1.7997290183670167
Ni 1.22961123839595 6.842765127897728 7.959606357657897 -0.840823495959952 0.11682784232503751 -0.14963280467020035
Ni 7.481429837864324 2.18172757396705 13.615167812315065 0.34269334150673236 -0.3135876823900277 -1.321025605179841
Ni 1.3947505927605008 7.74186740191153 10.580204890420964 0.20395044427615844 -1.4578198633244766 -1.10932431331367
Ni 0.26992225490747485 4.738919226016938 7.125377232355871 0.3375886732903154 1.308580694548269 -0.18860121551359776
Ni 3.14507117518067 7.652316373328901 12.772958026078467 0.6363210358350654 -1.146566228384264 0.15082142566166282
Ni 0.2302086808927226 0.3231251261002706 5.979124066498225 0.9056376642218595 -0.09439856678724388 0.8993415468005028
Ni 1.6374584715231695 5.805205524594339 12.088681513288694 -0.8148059888502678 -0.04641072605405556 0.9349736941818155
Ni 4.894793092902921 4.710091218255586 6.019550512014808 -0.42923333148150594 -0.7591495758282281 -0.3727773053763064
Ni 7.653486072046374 5.865643028405839 12.830949293832006 -0.1588851765064038 -0.5662337920996764 -1.2650431762769503
Ni 3.5798306890359 4.401355228425462 1.1860127910030065 -0.3087871756775908 1.104567258244659 -0.6642218760103915
Ni 5.960858346053397 7.6564609750837285 12.184794827983133 -0.10875432128828368 -0.6514949153620263 -0.5391382214344651
Ni 2.5738529511042922 0.6670312853992437 9.596157621908064 -1.823987633804065 -0.31251090438608115 -0.9884189584851494
Ni 7.633647244979936 6.888945201672623 8.023434145704844 1.0937220880000387 -1.9860998018881988 -0.26523705900078187
Ni 4.023560963133799 -0.06104077362247974 11.1472849599008 2.3673913153831037 -0.19226837995253984 0.10350412863293787
P 7.662272627766607 9.022125673751466 13.357576208139507 0.017351861014886245 -0.21434824257071472 -0.06260584775667927
P 6.673204864994696 8.696682333736328 7.746984603544823 -0.19946181237718552 -0.9377666835459204 -1.921595965777858
P 2.0090634648609575 0.10728531898022711 11.81112582297144 -0.5996056826919028 1.3993516918852547 1.0113976787685097
P 4.296902053977701 0.9825837635821394 1.5246258333497595 -0.20609680119519988 -0.7954586946719074 1.0544423165638097
P 6.344197167470407 4.054534953581539 13.029174543494035 0.8827479041078797 -0.3883545909892731 0.4048489890998705
P 2.427170889887904 3.93505990032906 3.90715199415728 -0.4038259471519949 -0.08524029732674353 0.43702351694988606
P 8.473472503673591 2.3420868209743673 5.987292616045684 1.4440680609560226 0.20565225745861354 -2.472384884077374
P 1.5111033793576771 -0.011140689516974951 3.051556986297815 1.509031096090969 -0.6809278759111628 -0.7210208872773065
