# total energy = -340860.04090353154 ev
CRYSTAL
PRIMVEC
9.37380657726598 0.00000000000000 0.00000000000000
0.00000000000000 9.37380657726598 0.00000000000000
0.00000000000000 0.00000000000000 13.71951344471937
PRIMCOORD
 96 1
Ni 3.8104241959685017 1.3279215415451675 11.083103170109018 0.08452218821379637 -0.39419356626855334 0.6765806546860605
Ni 7.656918799113654 6.871515679022699 6.54693825727148 0.2251111375141736 0.9489275852587463 0.46703317593809884
Ni 5.882925930563483 3.5621401848229888 7.160406082280616 1.348238161038891 -0.8093652774506707 1.84134489413559
Ni 5.34679107129412 6.1889713369851185 10.730620863970021 0.4226456509616592 -1.4755067390812782 -1.1114783835421953
Ni 1.6351480475780966 0.30287799722595216 7.033061047047709 1.195369365929896 0.4396005336484429 -1.175856235597633
Ni 5.41005489094984 8.138741823876387 5.654730923997044 1.260409277049365 -0.0946775314802434 1.5108552937839013
Ni 8.211763776034939 3.522142152748465 8.908766277123785 0.9866469541863911 0.021152208597582926 -0.6955885632471311
Ni 1.9740861407936163 6.985304315383759 0.14150042033619764 -1.0117692031753156 -0.027670469332074926 -0.9970987456473344
Ni 3.1547826784103874 4.041460403266552 2.848458869937518 -1.2736854253329808 1.1240749892602835 -0.7032046850314921
Ni 8.806203711353877 1.8693244800331579 2.522016998085614 1.0698445100514928 0.18111724843172677 0.3922089317383568
Ni 7.7472447979583015 8.85596924973767 2.1956576157303718 0.3727911893333773 -0.14520587924709832 -0.8036615421976739
Ni 8.654994839688975 9.446734652932584 5.735319412713026 -0.6578159724840477 -0.16661134150606788 0.9908483938622485
Ni 8.110264199915196 3.3073882472346767 4.5667872637119356 0.22448096012934243 -0.7532452945286511 0.5280241137991745
Ni 4.46046955108263 5.9304605030148325 13.391383320679457 1.955654598024464 2.3006133385266057 -0.4671139085773633
Ni 3.820922859180001 3.7973477359863224 10.145154473554982 -0.1696863808869658 0.32533659539583965 0.8799783117825425
Ni 5.743556176430833 5.640622407925949 5.842193929444798 0.7806262576447652 -1.7839951525715276 -1.6507315332879697
Ni 2.3953075069292593 2.3536034420828673 8.532096738230653 1.8624544224206956 -3.100261131579196 1.057048129617773
Ni 7.4535165731973 3.347076943696719 11.107660668217488 -0.7016401687578497 -0.7092169526638431 0.5328469891091145
Ni 0.9816250102751595 3.053395587967911 6.95285688439572 -1.0328717894818857 -0.8051340129781425 -0.07154711611036711
Ni 6.795822192029078 3.7522409794026315 2.6443536085382506 -0.10444540950028462 -0.2949664677444146 0.025157473102234092
Ni 2.790122860326695 4.627023343887911 13.31378601359811 -1.3178760038072659 0.4483075745041376 0.6790404290804628
Ni 4.622617654861657 2.3936670908024626 2.841228853031242 1.6356617834390412 0.4178657130745126 2.7650869812676446
Ni 5.61995316472831 3.099814677453039 5.047203280128199 -1.1371978997954866 1.6372499538617673 -1.29104371410577
Ni 3.7502724800504756 2.9116823822255515 6.733743221507228 -0.43284367454058353 -0.9993993687560531 -0.7577789207329466
P 7.55001991048514 6.9094046046484845 0.4065916664265482 0.40112808860485755 0.27762566247312187 0.5951427618245427
P 7.643458013067482 6.1025260940061505 11.034837440755439 0.32984245368599324 -1.5700480020939733 0.8978932443897505
P 2.1250794149104255 6.888819725708795 7.841387810784843 -0.453690950303238 -0.528506966972864 -0.08039556763993251
P 5.864721998459259 3.573838695258659 9.438531634917958 0.8711581423877514 0.3433813687126925 0.02860455111057009
P 6.74618788693543 1.4586955151734022 1.9712468148232922 -1.125665473675855 -0.2660186743618128 -0.1494602836480781
P 1.4983654640225663 4.978203628312554 1.1791451726511433 -1.6513946207932657 0.3830432060786887 1.6336504094359672
P 0.7756009306978615 1.2178449325338878 0.3972169226070659 -0.7420532824675736 0.15818609355685018 0.5883964442396447
P -0.3971831769038861 6.869181601219428 4.1838063409435335 1.363992338549354 -0.40739926632555 -1.028959341801357
Ni 0.40770902415405774 8.15615835623975 8.214256271167026 0.0876854164331264 -2.038217862739677 0.02210428809820709
Ni 4.571380428866966 1.5225498846347694 0.9627836593330943 0.8147728216194872 -1.722460169281524 -3.4258142138612158
Ni 2.5422512966644906 1.2213976051742075 2.963497034696875 0.0240243879390554 -0.11552609279447845 0.2115799357969582
Ni 4.113348124846004 9.176225346720585 7.602284505665528 -1.9000678618980955 -1.1426146999356837 -0.5326916944781729
Ni 6.728087066702033 0.19851566061978845 13.533463042253576 1.057556179602443 0.8230767134994922 1.8956350229377226
Ni 8.110695395011383 2.081641195872848 6.993975086339685 -1.4895071671254283 1.589435919702282 -1.9912039558839834
Ni 6.393479672061257 7.535771724698106 12.295949051669073 1.001334638105553 -0.5836219056691367 0.2413088303199586
Ni 3.1663687031687915 4.863449489888294 8.05253092605839 -0.8417534639733889 -0.4713140627016399 0.5791371304249058
Ni 6.444107600637423 1.1376145232238697 4.801527999314615 1.0442671758030209 -1.484335907337134 -0.7192475974269678
Ni 0.4410675891279521 3.4464111705290894 13.17480714719396 -0.014329015028162417 0.6446228708325414 1.0302536351327483
Ni 3.6779441895683984 7.848725626465166 11.007426555966987 0.40589465675556546 -0.18458669503756597 1.2076893209478299
Ni 3.0574638199623667 8.193991039026901 5.488929847848802 -2.1952739564571417 1.9105615623405678 -1.9380127165729852
Ni 5.558404751650897 7.905493398258772 0.9412613997495213 -0.8034962202644033 0.3946368244535591 0.3880666274352091
Ni 2.208178208990728 2.746675267482679 4.835497736468322 -0.11866052465840209 -1.0888447053030796 -0.3760333504197589
Ni 9.350343801322008 5.648402667270185 7.959595259501171 0.5676095894012805 -1.1481441143943452 0.4603627058964587
Ni 3.631356371567372 6.344248440644477 6.320771742418406 -0.5787594353705129 -1.5826050128233775 0.24796824461800523
Ni 1.4053491827299727 8.888290134338785 1.7938672129617965 0.7365860887054153 -0.18149185816232616 0.6571657404945586
Ni 6.593788541852795 4.884053116440861 12.699288944641987 0.05343497989068862 0.4570567814516774 0.35733037469361684
Ni 8.674539226113952 9.02528831544241 10.12152966918718 1.6290000551481494 0.8132095908974253 3.5066119020355737
Ni 4.689996575544028 6.866378833094216 3.8367852144358032 -0.5854736141658949 -0.46319014804292485 -0.08608927559060012
Ni 5.300653196002156 8.720948941792642 9.588458169862028 0.5257566579212365 -0.44215029665349015 -0.6201603669148029
Ni 1.747436874908942 9.018295455839036 10.824777937506221 -2.6414577997500572 1.6796176201947008 0.07394287003605331
Ni 3.3967768654354398 6.435324344004231 1.873893273291448 0.14377788855132012 -0.23221818087260004 0.05163469345715623
Ni 7.056845206124974 7.797807109889395 4.214414631108273 1.7994811640222685 1.5814647285713472 0.43989595340167464
P 3.007979495771739 0.37838682023272724 9.426938111114403 1.0265008529585353 -0.0635818385167034 -2.7442492185866865
P 0.4909906074599177 7.4016513021712065 11.926318304030865 0.021963134534652498 0.351534079726814 0.511909467625499
P 4.757366122419959 4.129696043275338 1.1145549593843271 -1.0010525880887597 -1.1500642142351936 0.3215791852359365
P 1.1838367627737818 3.8045186979120333 8.985032503690817 -2.648069134418988 3.038095713794045 1.8386676044137433
P 7.530138067028364 8.98913354400781 7.981477473251995 0.7698877881813386 0.4285689584246297 -1.0348283989876241
P 4.366244048759426 0.4898629385453254 5.315268835001594 -0.23172350062436867 2.878265399765553 0.04825600679291044
P 3.325667169790412 5.639741270120697 11.4509369590529 -0.12746912408896757 0.5427056270707492 -1.1653404236679739
P 5.4918507259351435 7.032679533125648 7.516455121769592 -0.46576459363832046 0.2776086931922574 1.5346454542249635
Ni 6.030366532039973 0.8618108911352146 7.151186943648018 1.1146102443029577 0.5475521565297731 -1.170103906494888
Ni 0.002597481764202127 6.824684142054263 1.9607106563860377 0.3106969911057939 0.057646446868874913 -0.3172977842517632
Ni 1.6203655548240483 6.8842453081666415 10.187863410451618 0.20146418751919495 -2.4584039964172497 -1.0876648260623656
Ni 7.022752672106918 1.1562121551985252 9.502533173140414 0.05407029948184235 2.1044913891559305 -1.2328933310172832
Ni 2.2789504476039584 9.287764269536323 12.989813202362196 0.8436555660921082 0.3762197553989521 1.1803343259736445
Ni 0.12671886496279333 4.505763783795097 11.106384893161161 0.2360776638280063 2.0344578814766123 -1.077950426988079
Ni 8.056186710569538 2.1608873555067882 13.902531361505455 -0.10933873303684394 -0.20433456708845454 -0.2883265938303937
Ni 6.787648232814411 5.355649318378822 8.29492724937967 -0.44980087122021245 0.6774003223738786 0.71043848377577
Ni 4.7118000493207655 1.8712554841595588 8.712507829094468 0.16749374411102122 0.18006900967287054 1.1821672654173252
Ni 2.4251349590176434 2.471938374566764 0.6464729974802866 0.22563307145591463 0.10055121665220101 1.744016555296061
Ni 2.13601864702455 6.014787265738622 4.0445809434300415 0.35197990901498094 0.4159695244930643 0.16584361010210794
Ni 0.9286123853409527 8.737774924350356 4.29884450570289 0.6469060104397634 0.11364815904547525 -1.0647190158994695
Ni 7.6636773135560565 7.35900985668093 9.324549898144259 -1.6909376731932104 -2.598807569179699 -0.9588420161589809
Ni 6.062518688125188 0.5696677770430202 11.455326712608208 -0.37070242512514867 0.4539819991810956 0.12721458487600026
Ni 0.7450591945588382 4.534428883885065 5.319645465227887 -0.9567933611600682 1.6502563934237642 -0.15851879430592053
Ni 9.233705527803542 8.649539284341571 0.15539802576241946 -0.9359792526281945 -1.2339143160826298 -1.6156040934572176
Ni 2.405843665366514 2.899580798113011 12.156366512130262 1.0443404522431174 -1.8883927395530122 -2.4988837016988508
Ni 0.11051342839132947 4.55867892114234 2.961260444480568 0.5132019611846774 -0.022484811366077405 0.035597694598951596
Ni 0.6202535234902118 6.97279028378791 6.045832375283412 1.414164845638687 0.521578872394463 -0.055598563200910694
Ni 8.276011845366737 4.726591915881253 0.9415069934782188 -0.005266647715578027 0.38743336472658435 -0.9035057054805214
Ni 5.97211769882903 5.765003445562895 1.519793048161107 0.9364291956814195 -0.13677548909155798 1.2979250146066355
Ni -0.10130085142323905 0.9087521016389858 8.376421247797643 1.0285309960146867 2.1383708155121948 0.7906029092415029
Ni 5.476599542859153 9.114498831320834 3.1029830240293665 -1.138038136308595 1.0753705820760449 -0.6986039530346873
Ni 0.6666641765495447 2.2731293138054394 10.790466056417497 -0.3300442852841542 -0.9927713219165741 -1.2721761877773057
P 3.575216644805168 4.314388151539772 5.1157736116089465 1.0344375913071089 2.3323250678075893 -0.5419818615308473
P 6.684067671665247 5.910766135686832 3.686515598176072 -0.9669147658647864 -3.209481593870621 -0.8651908690607228
P 0.34660024259862615 1.7510832856136502 4.62270764340347 -0.7144270361098728 -1.1057000862975215 0.06708728056680058
P 4.699464120047255 8.787015529573576 12.805464175413425 -1.5480578709761275 0.9460749463012997 0.3142870224498974
P 4.645902190055732 2.7602860344318723 12.599396976326506 0.12870196805480416 -0.10740372079766018 0.35088076241353117
P 7.874934789268158 4.550814297540155 6.337770203014595 0.09498400697706867 0.025282942936504845 1.1210454584053404
P 8.201846288822647 1.322437864778447 11.510493438262062 -0.6992726969669377 -0.06886648395441043 0.815026589501506
P 3.307097659235073 8.412991278857483 3.0244258391686807 -1.0764221632690105 -0.10189667493650194 -0.19250337878148138
