# total energy = -381160.1539140409 ev
CRYSTAL
PRIMVEC
9.32306917505341 0.00000000000000 0.00000000000000
0.00000000000000 9.32306917505341 0.00000000000000
0.00000000000000 0.00000000000000 13.64525412797052
PRIMCOORD
 96 1
Ni 2.664421222824267 6.0634070464936505 3.6234284527376053 -1.06713508154013 -0.758993509866338 -0.3640795204919923
Ni 6.286041932496714 4.568527528424002 10.067250274545938 -0.36709311050733556 -0.3807189288208863 -0.18469391003939162
Ni 2.1732260132783123 8.808482138614924 10.232043908612166 -0.7334385442153691 -0.750885536047223 -0.03914298874804872
Ni 7.96218055666651 1.199701832737027 9.942654916777004 0.29564883852341983 -1.059577066687214 0.14870309376707938
Ni 7.235587179754922 7.33754426155264 11.693272741692725 2.1110980958391705 -0.4989361952942827 1.840248575747618
Ni 5.493953996365211 2.4920190322058144 5.946123771685026 -0.5449687120733131 -4.558545593244918 1.675578674238637
Ni -0.2945297320421181 2.6830207453358295 4.380890510870138 1.6469905781882992 1.0233175701345474 2.002831512820583
Ni 1.1611416196503994 4.787759494268308 11.002058546749495 0.4841441245867727 -0.6053914361357445 -0.4205103497862113
Ni 2.7597962179587454 7.100934095226352 0.16997726039025346 0.2255381977492632 1.7130036518543144 -0.3005354771917598
Ni 2.9516463303612177 6.077680665022573 11.81291475294016 0.8986972283482846 0.19906997625540554 -0.24060974737040494
Ni 4.936322597637606 8.817917084370162 2.0089087880343093 -0.298032508264248 0.9048233958506804 -1.4322553845918107
Ni 4.07761201094589 1.7718678959235434 2.834719196785647 0.058698028061840844 2.551524982043651 -5.760185108454241
Ni 3.18391194656701 7.10364710828443 8.63956024962733 0.42743972991619283 1.4829349132245493 -1.6306856703806882
Ni 9.053734789837561 4.783545467112806 8.358796028857554 -0.4121511791882386 -0.2363473725496252 -2.0106921465155825
Ni 4.352549313635603 0.7317620863253287 12.997800364536648 0.32196716470297454 -0.6482172730520191 2.194905517374129
Ni 7.541355871389866 1.848466230236825 12.085642488293912 -0.3839693174373839 1.0128922610361653 0.3052187416000421
Ni 8.862155046434003 1.5645974275139911 0.747174983877266 0.5037750114438226 0.5075141667712808 -1.8633059717877136
Ni 6.028725230081113 9.181255726636133 11.404635189213167 -0.4223952255137499 0.6678270768631466 -1.0045433748508377
Ni 1.0511014370920175 6.4292163020255675 9.300864174835425 0.3748912663955156 0.5850228997817215 0.2669129040413081
Ni 1.8145582285453201 3.8362004641216303 8.694878679112222 1.8698422302443345 0.7260265680220142 0.07373743889346655
Ni 8.625395711004867 3.4636972450993353 10.219271304180667 -3.1390516220838327 2.647299603242815 1.412468945993503
Ni 6.65131977309973 3.2106878005285173 4.194919525733727 -0.21135856381477147 1.3455040499371795 -0.8603721075158407
Ni 0.49318102322764046 4.83774046679186 4.243346342666965 0.13238558755397847 2.3852607394643566 1.16005423556837
Ni 9.118558088094652 7.849082407499711 7.567398932133625 -2.092859461343957 -1.1498281869649876 -0.23733981836988155
P 5.305171173640085 1.7420340753536185 0.9831968645541904 1.8819007040707654 -0.7028835542466475 0.991187522369222
Ni 4.3452493506649 3.400925022006428 8.489994916348262 -0.21684298396811041 1.3014417695106426 0.530480802869783
P 2.9110070729036233 -0.05092539940596874 1.0039826467293926 0.5739162483455987 0.754170891666714 0.6432632714808535
Ni 1.1608246353068439 1.2250605802214631 5.695665118772937 -0.16029542659036908 0.7396536718871455 0.06753465251686433
P 3.247057092417041 3.724500775294046 5.346701716487205 0.6994752998960468 1.487153579291587 -0.983535405140603
P 4.91287507928343 1.551526484876793 7.876450276338154 1.4429897402901795 -1.1539406664714642 -1.1514603232517717
P 8.487712629074663 5.093630739661462 11.878138943161156 -1.7463742568949603 0.945647628955894 -0.28718810935057637
Ni 0.06757173897709394 0.47804222390218926 3.6977547551531087 0.49683637534246045 -0.6950208636691191 0.160997080643084
Ni 1.104149699292915 8.45831699274436 1.7799416736152793 -1.6541019924220994 -0.4550443790073389 -0.8445533953160294
Ni 3.405428064298701 5.237858615979192 9.680979679637515 0.7235053442620571 -0.6054140618435637 0.5007678491863827
Ni 3.023769591589011 2.2125320718791883 6.670032104745323 0.2748702112151718 -1.4481681991673252 2.2043203829301263
Ni 0.585710617725262 2.003863143130421 11.065345403247235 2.290676281918552 -2.261310427161925 0.6195353317362943
Ni 8.410359126178205 7.544040915241159 0.5481936560516889 0.2571483684553765 -0.7490811358486326 -1.4347524399820515
Ni 8.161004324627203 5.234455695820435 0.6241692093605735 2.0366438333843377 -0.077887199395782 -0.0626626691365437
Ni 8.918811336310076 6.706381818189097 2.971322667333976 -0.6133415442207565 0.6555606007909677 -0.12474504028958515
Ni 0.6028818460770394 6.63295332731137 12.540438572130771 -0.28661449623529345 0.5746394996648684 0.09316546571109116
Ni 1.1251359274500714 8.310126812132186 5.306066188257183 -2.0978561432276 0.11528003822194341 0.17867778575229873
Ni 5.012314932470561 7.416305547857242 13.347473252367807 0.740890372507724 -0.0140554496518016 -0.5184824928573264
Ni 8.009056947237005 6.151705832311699 9.867169756893736 0.3442995096515877 0.2593446047757469 0.07320162099465458
Ni 5.0963903680641796 8.440547223367398 4.510479304356964 -2.368921893095017 -1.7370918031517697 -1.8856362598537977
Ni 2.095760633554717 3.4548962680312076 3.453804536659727 1.9739896488882263 -1.035537509239507 1.8152546248064416
Ni 5.9954698432145745 2.2934376640372527 10.130768343153091 -0.9473741247286974 -0.9176326318002068 -0.44305481074563047
Ni 8.0953139809598 9.107687389724484 1.9557738212923803 -0.899871965382676 0.3030559296207684 1.7334716899006792
Ni 3.6314285781848095 1.1331071513835982 11.011610963173228 0.9922486166438848 -2.249978289978557 -1.2683365023162414
Ni 2.760467478921569 8.936804859341311 3.2088455621083245 0.4143523006046154 -0.32351753990922993 1.267138111132766
Ni 3.529173158181392 5.547067520048606 1.4212076950928973 1.5938890703776292 -1.6465840867784995 0.6315907202389316
Ni 5.354713961924015 6.545157987215438 10.675528312918562 -1.4158172936404456 1.4145664519524799 0.7424662016352762
Ni 5.229794161356384 7.14833257765682 6.367612259469352 -0.24870537989434588 -2.2555616976036057 0.9238287333085896
Ni 6.344273821021635 0.7700892226887539 3.683386041321119 0.2670625422452949 0.5028352732383727 0.06820211089753415
Ni 0.17603352596594818 2.3894932432034826 8.57515462485822 -0.42147065681695156 -2.6793977693289404 -2.619787256755159
Ni 2.067437150151145 2.015722086806966 13.099212046802071 0.11519210649382741 0.09111552516059791 0.4959426598835975
Ni 5.5374834051905175 4.496758543815477 5.738101863919869 -0.11852297063927329 4.318772739953511 -0.6031265513609677
P 8.120393036376393 3.0217278394937566 6.424689952060976 1.0231296224934572 -0.23460005084121535 0.12148565281202303
Ni 6.076403404579423 5.649518724499512 1.1615518346832359 -1.1668234359714034 0.16965604186966263 0.46667553548836405
P 2.305007592577027 4.535356049177817 13.332436074493671 -0.4081672548398261 0.31590244656613337 -1.3398203692888409
Ni 4.291800196500094 9.193217224070887 8.908467391334348 0.7309232339926832 -0.43235927870499735 1.6818513946212261
P 4.031295004511082 8.155233344960708 11.440003183498813 -0.851297141797766 0.48472082302584907 -0.04085148679872319
P 2.4116448549766516 1.7595800910763058 9.296320111039869 -1.2725279146897697 -0.40298185398414466 -0.4282306012486044
P 5.278311412058224 2.9841092563688667 12.030665283131789 -0.10235818795395274 0.014917026321148505 -0.027681010855036194
Ni 7.85792999991248 2.1564165200009455 2.7020062429010157 0.1655247933101085 0.0784844666601487 -3.2989485276842028
Ni 1.3867598877104552 -0.06942143585242927 7.746465252421884 1.4247770739368946 1.5704251829277343 1.0121785227985924
Ni 6.923627970351718 0.2703550143115509 0.019172891250640704 -1.6915889336239642 -0.13286484118324215 0.36891653686931947
Ni 3.750064630294901 5.449557542129592 6.833665949036895 -1.9985364849896547 -0.5438793356638761 0.6521783145822962
Ni 7.514607986635143 7.82316427587959 5.041375870626346 0.4576913297118827 0.45884138415592585 0.31312874047573813
Ni 3.9426139728669805 1.1140041831499183 4.627392453329142 -0.5856919008242881 -0.8553162902594883 5.781968779988236
Ni 5.892683008282256 -0.1492744535285113 6.2900937382528666 2.209381085282485 3.66813683015767 2.843449063417316
Ni 6.9329510392798195 3.26896630439808 0.3755938163719605 -0.7864032693378586 -1.2142818865636829 0.30508735822850036
Ni 7.750313815275405 0.5213842390420402 7.795438401194309 0.4351705229015473 0.12461751357278537 -0.006874615632646225
Ni 1.3977704321145432 6.1506057101781835 1.5489952716628133 -2.5722606719291057 -0.5330444498319014 0.45662920699595555
Ni 4.852526854111829 6.579010050493375 3.109057026143283 -0.42369800348557357 0.6744350690979675 -0.031709158177822806
Ni 1.1270937719249727 6.137497475265273 6.832205956442755 1.0451714327848451 0.18933397991456424 -0.5819753712046493
Ni 1.3050058962799334 3.8398830763482303 1.4863367900108289 -1.0635278238048458 0.03486827263209479 -1.361167210395733
Ni 6.762180385723784 3.8290869625294888 7.843523993804778 0.023567245796978768 -0.27479719188539126 -0.03464870042212097
Ni 3.0426581292373442 3.11687908097396 11.033170560069463 -0.4478990262118092 3.7131560751808372 0.2801520284394014
Ni 1.4856123875551153 1.5757944332966412 1.950330081345262 1.1689800773030898 -0.8780273587037588 0.3399216922988662
Ni 9.045828827386531 8.48370370943558 9.889998223471087 -0.19551851145872134 -0.34713080845279565 0.38905701637293644
Ni 1.918268047301521 8.902244242824839 12.852901227256092 -0.9051661239020797 0.8202323020721616 -2.1914946919203677
Ni 3.660675045412264 9.05688598713526 6.7305621297610205 -1.704403054669497 -0.5510745678607348 -1.2233164859621255
Ni 0.18471796467247473 3.5605359620555257 12.961407764975803 -0.13380997870533082 -0.5040434346138609 0.11852065664642815
Ni 3.8975928730131786 3.3377052916049723 0.6065169106521061 0.44442520873059593 -0.3571329139708301 -0.1893517205263771
Ni 7.840747583877989 1.039839169826871 5.57606506133568 0.109494798998734 -0.05341518239634671 -0.3938762921384507
Ni 6.885496618435782 5.753191250980001 3.971765344791369 0.5165708776569105 -0.8424211794643749 0.17350524041242374
Ni 6.0944435429553 4.991459227278398 12.497455495144653 0.48745210591408306 0.254484191359652 -0.19446821581733606
Ni 6.760325095007093 7.901804362288126 8.746880892979386 0.3776516027494722 1.2778323576218187 0.2872526440399246
P 2.7615582779861563 7.197623643079693 5.292803190400065 2.636511768598692 -0.42215585580943427 2.016165768035644
Ni 7.329284022482342 6.11177512809264 7.028451895844827 -0.16648407189958425 -0.10393813084656292 0.006243924027182795
P 5.560763108303987 6.225423338326197 8.623663484798024 -0.905268453807899 -1.7998249205149326 -1.9217489464159547
Ni 8.890422591424008 9.18038868122582 12.40569132460603 0.38365615707233924 -0.12977488940400875 -0.6559395813969413
P 6.640346520971354 7.875783676909795 2.9723454079953884 1.1748892436986733 -0.836950643268107 0.356710738831747
P 8.677707450760444 4.3292136721085654 2.6240364851484097 -1.1444874914783643 -0.047134491593957537 -1.066003539038848
P 4.992643257032266 4.503797460856193 2.745738894628954 0.7934298371673367 -1.048922158076529 0.4126885397489473
Ni 1.216781695013309 3.8420833206152625 6.275070544982124 -0.6849187422381107 -0.8636842026082093 0.35892574420519474
