# total energy = -381172.5396099731 ev
CRYSTAL
PRIMVEC
9.18305881085330 0.00000000000000 0.00000000000000

0.00000000000000 9.18305881085330 0.00000000000000

0.00000000000000 0.00000000000000 13.44033480749488

PRIMCOORD
 96 1
Ni 4.42447114282348 8.48285965084501 10.203969632147944 -0.6405813537733162 -0.6451841426526501 2.558113948115078
Ni 1.0820030735776893 4.865046749744165 10.076917423599033 -1.3608100841666306 0.4291927080515576 -1.4848647832574104
Ni 1.998123374922532 0.7038575728764329 7.786698399459295 0.08280494841237353 0.2410398929292881 -0.45184309846122184
Ni 3.6698349285974703 2.3215231529187763 12.87243976216391 0.7406265773233761 1.2031955468425344 -0.4718933322438776
Ni 0.3279297808495693 6.909544571067045 11.455331265673834 -0.6815853069895036 0.5294019679833076 -1.4193124512778974
Ni 7.084601218934337 7.500547862440026 11.838341032564845 0.27215512627685384 -1.6359870279889437 0.6347711748494422
Ni 4.879767192829266 2.072561248689109 10.754283708757502 -0.5212963081570378 0.19540358314741188 -0.3315872042912419
Ni 8.269500465168639 9.014319989651682 13.326629253597174 0.6765747411487896 -0.4665492943231449 0.514944654907397
Ni 2.6125159167869363 0.8300034135323322 10.782884345057278 0.814456833040965 -0.7879808982376236 0.4795878726746579
Ni 1.6452551615800073 4.847828514694532 5.746159394739028 -2.071433430259697 -0.5207520056177934 1.5291461216732891
Ni 1.4135665907521333 3.670955261758033 0.06428967560479049 -0.31301278372316416 -0.18985874206978268 0.7193753812540836
Ni 3.202821295699239 8.340283481575346 1.0524372978092618 -0.5409151108292297 0.4215357057269321 0.3350378818440036
Ni 4.10805048943402 4.6012450226663875 11.771838239815008 2.0033665593884464 -1.2192312601491584 0.7179121664449959
Ni 2.1949989702447192 8.060227740610713 12.228217890746585 0.7824846510097426 0.8350462271565425 -0.7064866982168736
Ni 1.6117002651152808 3.3667939917239127 7.968814982849871 1.2127291973645824 -0.15988070765045367 -1.0476273505245055
Ni 3.314716865875127 6.1763691650069 5.237993720919237 1.795146798312973 0.33961033170603444 0.426530330728046
Ni 4.618279596542159 4.167345499415613 6.06339183051696 0.351780134299349 0.959086270959303 0.017315865570628242
Ni 6.1420153424358706 3.273273721992995 7.932754029667787 -0.2412054719728749 -0.8955016042291223 -0.34454196467969694
Ni 0.508353926523 2.7443662735030125 4.774383329572682 0.4637555336280916 0.04874143106976121 0.5440734539525534
Ni 9.224749779604942 4.787146862850276 1.707675166434875 -0.575328555312093 -0.3589419421551108 0.44474094019880184
Ni 3.255623883184783 4.311795012658675 9.662283039180592 -0.6339941874741016 -3.1223034560912164 -0.1751124369985436
Ni 7.963328105280721 6.69608437174505 1.400657965147189 0.38630619310067665 1.542467007151911 -1.4425238563973544
Ni 6.6773141997762755 2.173942216661354 5.4900135836937185 -0.2913432691695305 3.261981977762182 1.4833372908692906
Ni 5.423000212880543 0.5539680156635556 8.766296594020455 -0.18982043263267953 2.4642535132194916 -1.0039779892656708
P 8.549565389191963 4.448126702017003 6.021203022268945 0.0030393010469560557 -1.6113725718743734 0.2355007082786138
Ni 2.2001506661715697 2.952509481841681 11.253565691597549 0.895471008101503 2.494350075494556 -0.5459835264910726
P 7.137449721713346 3.674802963350458 0.8153472518580838 0.578473785809294 -0.04994882111430107 -0.001699756299926105
Ni 6.882417815687516 7.557308348222313 6.260844121925077 -2.7680733175894776 0.3751735735226248 0.3072470848839805
P 3.2785172485067764 7.109367928229729 3.097406210043099 0.24495414038202976 1.1975152086283054 -0.7586070730611967
P 8.42428091944148 8.679909724282366 9.9525411583533 -0.25533342673382475 -1.6319971901032602 -0.9325643134093746
P 8.103048343296818 7.544755106988793 4.48516105942056 -0.19772580352268526 0.34305303883899624 -0.26108678427783416
Ni 2.9827952094116505 3.54300770498654 4.355475149638456 -0.26416362343094507 -1.303971735021348 -0.031155856777514087
Ni 0.2354168926572882 8.231363222416036 2.9214716617647434 0.74656891094974 -1.548553065444991 -1.2846182701954003
Ni 6.5409825104179475 1.5069399315439613 -0.07097218741578709 -1.5378631898313129 -0.5811585317303088 0.30380206375817354
Ni 7.04964131448956 5.541424937787252 8.086887996608633 -0.5014450777590654 0.30767517356033464 -0.5142252602428692
Ni 6.6852024471936815 5.114825946197522 4.877456735262072 -0.9502061948608539 0.2262586208550555 1.7240187720178954
Ni 1.8280714940430005 8.242529821786892 9.810650963568015 -1.1799877412675033 -0.8339573649677379 -1.3372688065115808
Ni 5.373310682291973 6.953329394915927 1.9389697840448137 -2.0301836795812904 0.23888762247297565 -1.9822104941361218
Ni 4.5525839946514495 1.7248447312734352 1.3527021960398833 -2.5875674774895048 -0.29959239655220016 0.029740721597542326
Ni 0.8706347750259911 7.14507166042865 0.26275761330436825 -0.967795882918159 0.1295871988732349 1.6824144662135478
Ni 0.7857787211720485 2.042899969110273 9.668587208973431 0.8318485461548513 0.4678114488650202 -2.290702764281113
Ni 6.983670220838056 8.617666952460276 2.297880450007423 0.17916475269104626 0.9777684207498388 0.5765932809571296
Ni 8.667953381863901 5.537797629603463 3.8961918155481086 1.4164132753532317 0.719374095702503 0.22024172523701427
Ni 3.9576411710991115 7.854664971764818 8.167193844880124 -1.1297720396450606 -0.6947596395879325 -0.7727483975585853
Ni 8.701976614321977 2.2079654491194307 0.38691532175320326 0.10006964903009218 0.48419143288494026 0.21257418138942746
Ni 7.63850495318704 1.6282756860563952 9.253590093736612 -0.7466478438167915 -0.22629050253425545 -0.6499460828176677
Ni 3.936694614220063 2.167431428047919 6.938492326985424 -0.9135558906276718 -0.4256019053765057 1.0447202041800394
Ni 6.371812203172958 5.260487623188078 12.81636708747774 1.5187562937985326 1.3339927068634703 -2.247171673767698
Ni 8.865233031768586 1.0854008052941502 11.191940939625509 -0.9456792535247778 -1.0148283017166135 3.019638535530122
Ni 9.182470977381735 3.4386330598803325 11.523635774539263 -0.41432941778647997 -0.2530747126066351 0.06453803178238562
Ni 9.217862485585089 6.715304513589788 8.952700747514857 -0.38592669827407083 0.3108939376079485 -0.29464507984925387
Ni 8.529573870417003 8.834322856207482 7.4021431237902275 1.053113313339741 -0.00388802220049653 1.3844166678419771
Ni 4.3515943890347355 5.164322632553536 3.3006640311570177 0.09419802074066358 -0.35659889584423105 -1.242686405848305
Ni 6.573224229489555 7.736965708494867 8.819090916753174 0.9484305910176698 0.22541915567289564 0.7061959064493322
Ni 7.711684747912658 3.2956161037933995 3.63667214873894 0.4709836759454147 0.16773131404312405 -0.6628234530009681
Ni 6.31326102094551 1.8244809180939836 2.4728066984412718 1.5913079399140142 0.2637234505697329 1.4143029138784482
P 5.950364907510078 4.098748050977871 9.885164138415877 0.11436035462115143 0.5525367542285582 0.5977902267497189
Ni 1.3280814973777109 7.2570866103675495 4.863882337901876 -2.063371222076853 0.124984667104217 -1.2251196006091352
P 4.8703545576688 6.567246058280323 6.685840669772854 1.3086940801976814 0.17071790747527374 -1.1846982593692952
Ni 4.140604432501195 6.789255685245629 12.559212976587924 1.2848684385329936 0.574938518962526 0.6980527085169075
P 2.191913462523825 1.2473532284063338 5.3304900796058705 -0.08359581974478505 1.5696623366197806 0.9966989391057546
P 2.0496311511323437 5.497438086647121 7.946785743350902 -0.07490857638343229 0.2721127030746926 0.8045223475360725
P 3.258929784314313 2.1812794805571714 9.341086276964832 -0.6047028947091522 -0.35745507319693925 -2.8400693483118054
Ni 2.006094269868176 5.269046233890084 12.123773454394309 -0.6680469061834367 1.7361947452587967 -0.024861539128370087
Ni 8.76861807125808 1.1581306301438041 2.664021856385009 -0.38799180833321567 1.7573844919625348 0.6679641166616432
Ni 4.4829121283466105 1.530062873333283 4.59128507720781 -0.2735023843333677 1.0446592690351169 -0.371684843643076
Ni 6.460658296029068 0.31014862430204604 11.119041228190031 0.33472446436864284 1.0119633214639927 -0.3520045916053292
Ni 6.701630939195706 5.260166216133818 2.4391388503546194 0.28092361649810327 -2.5922630831929614 0.8005888168096212
Ni 1.7735608576405328 7.447873837776187 7.013609747095294 0.533869516836358 0.28472576385301285 1.7799505501885087
Ni 8.548601168029185 3.777745051300536 8.391097018547956 -0.08599594454584544 0.7150345877868847 0.692993034605813
Ni 8.779518361926835 2.0010803198217224 6.974713983694638 0.005645371211235439 -0.1369762922484544 -0.4707872436638924
Ni 4.562703725331287 9.137905593543936 2.9399654236668544 0.6881968987687502 -0.7796055296897348 -0.4016209690808761
Ni 3.1565019476510505 6.373556984324654 10.369110413238385 -1.0707073722724205 2.066742452541931 0.005261248398939326
Ni 2.710949122918683 5.929298970868019 0.8692903752333155 0.7703629280455442 -1.048586114893349 1.2991056651782982
Ni 1.4137961672194619 3.132451516933722 2.508880507905526 -0.30718666395969035 1.3183891959982583 -0.46333490115090525
Ni 4.540260329885258 5.374403466276457 8.432358337867965 1.601103328737881 1.2225050458044238 -1.9605602628561978
Ni 1.812001141330009 5.549643775317611 3.384424546108869 0.14283043703638626 -0.948873077871727 -1.423522375594187
Ni 9.316304874775529 9.430358463744303 5.060971898491614 0.7867843068263611 0.3226891304706636 0.5550273818608957
Ni 6.928388207505365 2.8477491482703616 11.529400898786815 0.2528834225314354 1.141025501071693 -0.41444666009063463
Ni 4.778698448852588 -0.017898699698795463 6.378285341245751 0.15404276081243792 -0.8115057208324412 -0.006782055918839933
Ni 6.9606482926943585 0.3287580927436904 4.518841763789382 -0.46292969529268657 -2.361832590348403 -1.1443034004920163
Ni 8.744503359129899 5.214122359846424 12.941846238072518 -0.4454886169981037 0.33943266847758957 -0.19160040735123776
Ni 2.2253948945190065 1.1686819645822195 2.990797326756851 0.9412474430056693 -1.7674452186326464 0.4938952904362655
Ni 4.251297021988281 0.12423576444772667 12.390443050701954 1.2925722349351547 -0.3205108918724222 1.3725811086596298
Ni 5.443175392829367 6.350884012411296 10.49261428790827 0.9918729784720209 -1.048150570017827 0.1118023640859881
Ni 1.5283180921815869 1.4950203213602682 12.74106049635879 -0.9962284272272391 -2.4133670107822693 1.29634610015529
Ni 8.81441398496076 6.545362829414574 6.494893657142956 1.1560535990494092 -1.1505743211023927 -0.20692366797186942
Ni 3.1288517579260122 8.625353172586433 4.82802341201104 0.23134631979060802 -0.464248156993794 -0.44233798718426404
P 6.185836898519526 8.17642098225499 13.8145132239873 -0.0957162571574029 0.6141442426277101 -1.9399981224341296
Ni 5.3793439518533654 7.160177791978863 4.229216357360631 0.3694238155230412 0.8621405122701734 1.376392769096236
P 3.149926877626764 3.6143141557387573 1.1995903035315838 0.37164190622028254 -0.37491646320649624 1.0453547524402447
Ni 5.0854126092034 4.433139950229802 0.7880607112572933 -2.4755684240116786 -1.058767683412041 1.8720140410846728
P 5.409078695901746 3.4911877047811615 4.031427966004345 0.5783999951485651 -1.2085640102432993 0.15926518555364183
P 6.657644088055574 0.6804178155621979 7.009175248052377 1.417434003308262 0.4459388171616449 0.596930706962901
P 1.0449677978682634 0.5230863075844016 1.1847881312241146 0.009259828035371148 -0.8828589757644473 -0.284859975438032
Ni 7.7027312656868485 5.324824132392203 10.635565125972612 0.060001577364612785 -0.3180187215781878 -0.5139375537991213
