# total energy = -340870.37119329785 ev
CRYSTAL
PRIMVEC
9.25706886931643 0.00000000000000 0.00000000000000

0.00000000000000 9.25706886931643 0.00000000000000

0.00000000000000 0.00000000000000 13.54865600910420

PRIMCOORD
 96 1
Ni 7.326099860630738 6.763621840838564 7.3672716002184355 -2.102584401941205 0.036149196227047424 -0.7073151076554399
Ni 3.1394701139919206 4.83628158415231 8.48002219447353 -0.4134063917515784 -0.5163973281935236 -0.006034636229854123
Ni 1.0321354098411502 4.5309279098021475 2.577943720881467 0.38119766822951767 0.3622586652331697 0.43414825228462
Ni 7.717784959433384 0.7558804058345356 10.921599107854249 0.30465001358076566 -1.4167966268345793 -1.120514782712851
Ni 8.082263532773256 8.621478538449077 8.459388187921462 -0.03453942853776632 2.399655831843764 0.7966426876776795
Ni 6.000404282203145 1.3295372620162458 9.126848774562308 0.12573620055826087 -2.9148575970672894 -0.11977252677565825
Ni 4.018475090282462 7.987137892876867 10.513025412571748 -1.1086252303641166 -1.4301424520138661 -0.8912374296361296
Ni 6.988263131551455 7.406627102890243 10.375384832391966 0.2215833268665732 -0.2264802499475583 -0.2456434531395705
Ni 5.321768562000317 5.291451661391065 2.066440676629723 -0.010249188531833962 0.4503210053897406 2.1009293828362847
Ni 2.0640671641667576 2.3505364179847454 9.408240526095053 -2.6139719356249627 -0.5654740311155164 1.3544576595860416
Ni 5.268049791241389 8.00040327259383 3.01770540695561 1.1411448002583766 0.342730622502571 0.5885818207775734
Ni 3.9359575782119665 2.584471805861511 4.757610384204913 1.2374097308303982 2.1645577583202074 -0.2456478240149447
Ni 7.129137205893927 6.74677397546182 1.31376043950988 -2.202554035058323 1.3019583041357448 -0.8452457933973637
Ni 7.666102743829887 4.8664688857971266 10.059552156060224 -0.41957909622119355 -0.4220638103162602 0.16173293036784403
Ni 8.448723118855227 1.2307273087023054 6.128545258289732 0.4997679471669587 -1.0120617947150699 0.9398657321667943
Ni 8.194237038046388 4.277256451055481 3.7121012869408054 1.1122944516855877 1.1650318912886193 -0.23151884081273028
Ni 2.6771350654336064 8.73406301026884 2.6685028486952467 0.522026758565159 0.7423792983484248 0.7697422637424098
Ni 0.4202089051682313 1.4443341733003172 2.417079931981554 -0.01139770031398037 -0.2043065420639965 -0.586523652696964
Ni 7.4605587862336025 3.2661438446597084 5.577426587730416 -0.4819370896331248 -1.701708281446153 0.9505833756946144
Ni 1.0054935655805617 5.41339502985692 12.629325587940858 -0.2539799980297239 0.6241653743091379 -0.6044419277382816
Ni 1.709576968157385 7.0606256390514615 10.843125083474172 0.874446583331036 -0.23264318422516062 -0.9790295468504493
Ni 7.684848308328738 6.029351136616926 12.608108386048826 1.5081504932582286 0.23968363601170975 -1.2407526791607018
Ni 4.246856236826234 0.21087602927595722 13.24778110330071 0.2693675362293877 -0.06460230936141778 0.7354730581468947
Ni 6.518244715815833 1.7864754394126692 1.5929156831992055 -0.0796535472675854 -1.2283216524862006 0.14867943961799554
P 0.2849529459340812 2.7920152903376727 4.9201672910045 -0.7772516847455776 0.09103762073481096 -2.078453570331272
P 4.870921535932409 3.1039507406674325 0.9033982785181559 -0.2653273047217431 0.642426634512171 0.5109103369370234
P 8.978606999091621 6.560993859942101 10.472989515336646 -0.12766298526732853 -0.6809121921818789 0.09873396093780415
P 3.7701727314910216 5.890606188118767 11.29451179665827 -0.7148001031785755 1.6814546734034397 0.41894634773320105
P 3.4385845239113557 2.7576808218308893 8.058509894005823 2.6297441108575548 0.2158376826320476 -1.2961111013263484
P 1.2191467155230153 5.181607281962245 7.004411162520242 3.493843803736628 -0.9360658988047298 -0.2296553052414303
P 8.292195341022605 2.722920528155243 1.1102530370690264 1.4067518410040676 -0.2574077927643502 -0.23965432543567114
P 1.1704452761015574 2.9742777196798285 12.036829670864526 0.6803722605180089 0.3724703156588488 -1.0329011000579242
Ni 4.483605773645049 1.5911512858690917 2.6974830285570253 -1.304262269678573 -0.4523290369587048 -0.6118389915333011
Ni 0.3581060071171508 8.808304702753176 4.093685997879406 -0.4441519004645512 -0.11309177232137298 0.24135845261097139
Ni 3.363259754367086 0.4210253786441812 9.077206816941798 -0.2740939951707796 0.8570067905880338 -0.649804672143797
Ni 9.068085826966135 6.5467379738540865 2.782000067507398 0.770868149816737 0.4366108548924997 0.043503579709589596
Ni 0.37064100409882655 6.407372801740411 5.310842443591431 -0.09295566369313023 0.7739527022793316 -0.4200184977514572
Ni 8.470588315569442 3.710983033019096 12.699412707908117 -0.9222122807510892 -0.5186807249110615 -0.34629751391822294
Ni 2.0094967430701036 0.4926519491675666 0.6167864658392875 -0.4103503785340739 1.0124047798767855 -1.1221775151272544
Ni 3.292156208235891 2.5656429277426653 12.96286611134907 -0.142685941038722 -1.6972736427135675 -0.40121293500918
Ni 6.374038096673566 5.211322473093756 5.36308656327645 -0.1189369182482403 -0.10674500416773874 -0.016820671101764578
Ni 5.638091862983141 -0.08265266527626478 11.399311073542952 0.9716651360655782 1.0167861967739327 0.07415524315717552
Ni 5.794360442886892 2.5121370695681686 7.150032261788646 -1.8127956217429877 -0.00461718705703721 -2.8682499245110793
Ni 5.364971302502112 3.5281744366125287 9.1311847856296 -1.3223157847461742 1.7943366437068518 0.5281148737407679
Ni 3.3133086106457053 6.737109595542412 3.5919519384255065 -0.2672497185554365 -1.5373106597619524 -0.7795031997839156
Ni 1.3260936323897903 2.5593666350363837 6.701287516065276 0.019996240616268788 0.6796973459381714 1.798242663629477
Ni 3.42566165574326 4.156738671198427 2.828796402151639 0.025670665293226758 0.14011818031154577 -0.6533239981509652
Ni 4.221464096865569 1.8196898025839656 10.68986227383846 -0.18256040863615658 0.6740458040793489 1.564792924342621
Ni 8.526445469241573 4.779582037211344 6.932698501256196 -0.7219940498238534 -0.2159837212916087 -0.4638470649006334
Ni 7.742269906642994 2.9394248553152997 8.279475202663162 1.1838251127357224 -0.8155212697497375 0.7063599428310222
Ni 0.8941541695262784 -0.02296771361881376 10.088152796097582 0.3068133397806716 0.41015368914223554 0.2375295657831845
Ni 1.3671579899783834 3.607905570947639 0.503441062956905 -0.4661605435251584 -1.4223574087518085 1.246987090106188
Ni 2.8098444050165794 7.3694877425103 13.037749318707368 -0.9255698843694125 -0.3165526785556226 -0.6572282183013778
Ni 4.187851679732074 9.232019259909416 4.933513207220792 0.5720817662400213 -0.826635634495344 -1.6026729872178462
Ni 3.3736924710042246 4.783007152700022 13.392846778435814 1.0112074171345746 2.0044142839266708 0.25530385904747
Ni 6.136362852965918 4.740711604949282 13.680349121141738 -0.8621834496929667 -1.0293419219517563 -2.1070804900393454
P 2.6014492702026923 0.12553418548763515 11.805676032188702 -0.4131613656203078 -0.2589304000564637 -0.3514181229742399
P 7.314028642800366 8.147294441713711 12.64863213081434 -0.5426197522251622 0.5232138368947248 -0.07714543613375101
P 5.757517308711373 8.205549176227917 8.697763266037066 0.5225335229982484 0.5593836019470624 0.616067684902668
P 0.7391214083191189 8.46817222058959 1.7974191462524427 -1.516689383967175 -0.4615384713721148 -0.5018978490257678
P 6.517531921511433 4.680920196999615 7.712762073854582 -1.035415381839346 0.7865145981047422 -0.4348257379676189
P 8.713623402163426 8.311644442756966 6.108994328797597 0.07643272633744255 -0.5331539788265721 1.7379832046177877
P 4.092883410006787 5.065144098278276 4.673039654254988 1.2626042278181544 -1.3474138653653827 1.1718908231919818
P 2.2732121215605985 7.912090835399247 8.586812666876092 0.04295927717034537 -0.48197282796706675 0.40525522339935366
Ni 0.908085132496313 4.622795061449847 9.047778594945825 -1.4931532485184478 0.015399879494837993 0.9753970923041847
Ni 3.3940209942829775 1.3212336712234216 6.460473200297598 1.389909058415116 1.4087303048866773 3.2910616687369583
Ni 4.460648242802013 7.24855339455327 1.0004651257604258 0.0036861906023355874 -0.12436991633835355 -0.04368021449676993
Ni 6.981625813158529 8.154385356482166 4.916888437204257 -0.2216334633782183 1.154724081604708 -0.160763110255407
Ni 7.741807053198578 8.56875953113009 2.4289761912099355 0.6237545120239645 2.222894803498204 0.8476672583546627
Ni 8.398790489271622 0.814030535470303 13.028279337234615 -0.027397675286662492 1.8217759708647272 2.104076670216015
Ni 5.959617636681202 1.9842712303494283 12.881343734184071 0.15127753936247496 0.6187773705243472 -1.8577729577846263
Ni 4.89319404367771 6.267554033251207 8.220945533202974 1.311958095660934 -0.3098130458389438 -0.10766340221695006
Ni 4.128282441435728 8.423377264239004 7.262784286555287 0.16665607870107427 0.08558842469478163 -0.007363639453922803
Ni 4.978155421934722 4.159608362553807 11.411179561564671 1.6371661358987093 -0.7621320554953197 0.8373108548210031
Ni 1.8716219590474477 4.432080928212653 4.9705275971707445 0.4932967376203181 0.07361788259646677 0.22779074122886578
Ni 6.200264399502 0.20286496186000402 6.937290933131692 0.4333792353290794 -0.139328851641031 -1.1318826582301602
Ni 4.956336510564949 6.973840618223451 5.4303280602674375 -0.6449763975172184 0.572249402166137 0.30180277393995764
Ni 6.081292550149296 3.3603808059428184 3.520970585603637 -1.5783832614325464 0.4302576589809622 -0.24425685720468898
Ni 2.706979855529554 4.183482343216787 10.880749514263865 -1.574289808089463 -0.9641122634189846 -0.021225485037679577
Ni 8.020833623630356 4.807982724560713 1.3771806184637687 2.1202684494845285 -1.673977648300104 0.036398593233692156
Ni 0.319224466372424 6.941922244696519 7.872378935575237 1.6061195510055502 0.5111160251899262 0.46929060451370797
Ni 5.419726864976532 6.8988768743658255 12.171977322392683 -0.12445450563235985 -0.7077833055411101 1.1739597899058685
Ni 0.20699546599797297 8.08990061460612 12.763958546438824 1.409505749600121 -1.0998469699508542 -0.22873305053747703
Ni 1.6106281588101194 9.335291120427527 6.744480073791293 -1.7790966868286457 -2.021545287180002 0.5527542695560028
Ni 7.714285787393599 1.6461382750657196 3.6263382465180647 0.609867212518911 -0.41250959096892187 0.9770469692027819
Ni 2.919892439960942 6.618322887567475 6.744195881776421 -1.693401561352671 -0.8440474022138883 -0.6099841977127495
Ni 2.0526531982274574 1.3052004279088494 4.564203369628107 -1.2492851421117452 0.18171554413735802 -1.4478046451803195
Ni 8.96825759607448 2.6625551819345 10.45029488525004 1.089617321803046 0.3979224371833663 -0.4237805358970508
P 2.326144041464019 2.4054956359747086 2.2580869967039705 0.27372195654334147 -1.2662847619935353 -0.16879060854557384
P 7.0520350791231 6.493306172230697 3.6139282199663807 -0.43014427333154953 -1.12425985157758 -1.02800212009441
P 5.91606312756165 1.311763689750669 4.7466361290378085 0.002962939283065865 0.5359860489587285 0.6844510585730729
P 2.237887146682765 8.061055587950111 4.91182111769479 0.17149309507840144 0.4509139017787331 0.12890611364581026
P 6.044773413384868 8.905105872118352 1.0168047780552014 -0.4099935094152874 -0.1825490957822469 0.10713992561331226
P 6.769259395791552 2.6411898669402554 10.622972545465228 -0.5114554108072159 1.5942932477945835 1.3740499798956725
P 2.4695545526818914 5.974919571553597 1.5229905619374937 0.0254444082150336 0.1394121553834567 -0.1388637390791544
P 0.028577497365136418 1.3040988367111392 8.532496815173868 0.4383211527153871 0.8661195515225794 -0.339691321455615
