# total energy = -340889.09780780546 ev
CRYSTAL
PRIMVEC
9.11240888128689 0.00000000000000 0.00000000000000
0.00000000000000 9.11240888128689 0.00000000000000
0.00000000000000 0.00000000000000 13.33693149416891
PRIMCOORD
 96 1
Ni 6.453745052324695 2.268561501321436 11.270426732480551 0.45643354604538167 0.14008604152202972 0.017326149983273385
Ni 4.901655803207086 0.41794518458848984 5.898471311319272 -1.0757534193367602 0.42546486557800917 -0.402690547995971
Ni 2.5494788389825094 1.776509652384669 4.566191586629469 1.7192815144432263 -0.9627297812491613 1.511896847674538
Ni 3.4059814768045307 4.473217679916224 5.004297064387848 -0.6191758915143465 0.08043901928335824 -0.1532608883410909
Ni 3.8605813256833303 2.893262684770083 2.3794422025149515 0.06578501681560929 -1.1592517942717326 0.03106895349066262
Ni 5.110721797691256 4.845988098011436 2.71067826142179 -0.132144675187766 0.47272019902054707 0.3502217886732936
Ni 5.347562414116226 4.76546174168242 11.273467543288177 0.3648493087784814 -0.016647121638377782 0.14875040206524706
Ni 5.960098531852613 8.145409066621838 12.516629732657567 -1.9493736501117591 -0.9367876074621028 -1.5061596880804449
Ni 2.17016571138812 6.315810520724343 0.10324541388242814 0.31128731639162516 1.1785774911835378 1.1915811025320575
Ni 2.842606804399708 1.523694983380231 0.15615843790593129 -0.33301750897986515 0.22211477389001102 -0.16439865012546526
Ni 8.287398620126277 0.29138202789624856 6.554968422700344 -0.9589754564130516 0.05016839332427488 0.7859145026268981
Ni 8.990885689828254 2.5364754316631126 1.3916288430298371 -0.22625167887652003 0.17699577006418551 -0.41524807294600746
Ni 6.9532235144116425 1.1057452425873544 4.496519931631123 0.008920956638713668 -0.5335231892405327 0.2819877960965595
Ni 0.7969758275109095 7.5066383240273264 2.5744012769772877 0.7288020738846221 -1.028327621754629 -0.08767950289585545
Ni 8.022382435774487 3.8572279592547827 3.4053053360735577 -0.4336525435951241 -0.3590000490865559 0.25941273900952094
Ni 7.862569010709613 3.982213757988378 12.824272854009639 0.18053412223474713 0.22339029816832495 -0.22891277064845092
Ni 8.512229081788131 7.36451208439129 9.099454572916 -0.7675503982974137 0.3099662835873565 -0.124652737686095
Ni 7.252347444801626 0.45696816391896156 0.22798244385651456 -0.9019195919403241 2.2617318309700596 0.19321377458494465
Ni 1.823657255377351 6.877936793127232 8.99932104662963 0.3328573292529171 -1.0025317437374477 0.31598549319824293
Ni 0.3401844443221485 5.110320851705234 1.3491376809202749 -0.42709391654099993 -0.37465806733878704 -0.5287913309825021
Ni 6.6146975284862215 2.179615279285957 6.708650107901712 -0.9644729891925132 0.29029117375593233 0.8929772951453717
Ni 3.778360061322494 4.392108129425721 0.259120455875512 -0.8973044617658159 -0.061456564643584476 -0.26659254458741183
Ni 6.199836894267469 5.762559734466576 4.826942252434511 -0.04474208010238101 -0.4179299906535448 -0.7282364311891394
Ni 5.462068942760609 3.2416847466232297 9.108803904317332 0.3113343675794767 -0.7573667728961924 -0.0420979576113146
P 0.36001942449883395 5.81160271848409 12.487248593050046 -0.866554582177469 -0.47851212311197594 -0.8944183984672724
P 4.152615802047742 6.281301828700127 12.403653177446207 -0.43127350183998625 -0.37027793599322034 -0.3661675133692726
P 2.2867407568240257 8.493065686138033 1.009294040686245 0.8626087101558434 -0.3153833408378698 1.1892771369892294
P 6.700864465845866 8.269046228856995 5.781612869970519 -1.3793377106571727 -0.8869742834844014 0.2168807791845813
P 4.793436836616229 1.0440997972364667 12.694370910742887 0.6518564124665032 -0.6000988202782375 -1.2860064087921788
P 4.283041708818955 6.295298488575806 8.074244799066436 0.6486543605894377 0.9910772220436027 -0.9164267844175638
P 4.822596544690559 1.2580682676406338 3.631833439489865 -0.24115584968186213 -0.4679299767207554 -0.18751595286921896
P 0.5997413845778982 5.332809424312369 3.500717723374519 -0.2485521421459332 2.327333013909637 -0.16691061791404158
Ni 0.7539096724077565 9.100927138173756 4.7590702981688775 0.288325051168497 -0.1563827217995242 -1.0360337321496351
Ni 1.8987799533038427 6.505202824667113 4.9354382362520735 0.02358138686436584 0.869734008346715 -0.13141293922806402
Ni 6.262530266627278 5.8764375069056065 9.045160107722477 -0.37928271059499197 -0.10881319955067711 1.4068850241478223
Ni 8.676124865983411 2.5377785061176845 10.211287815804749 0.596357093847618 -0.10858000049394848 -0.35183669856889727
Ni 2.486667005308649 5.340308936732736 7.205050398305063 0.3004709425024115 -0.0843478674194612 -1.137684352513602
Ni 0.652085794293952 0.36058895004716074 8.932076026087595 -0.3638697184740314 0.1469899677307146 0.7373062547008915
Ni 1.4935420227496192 1.0779706206465554 11.434991367479787 0.4329112945537254 -1.3418546261100504 -1.0077276861160902
Ni 4.089721956694922 6.991869240018902 1.496497176914777 -0.5564546012257257 -0.3271649068538301 0.12061533439192776
Ni 5.755825664383161 8.035850575941318 8.063615174232465 0.3689229646272227 0.653859558939461 -0.22086573197425835
Ni 5.036337204875395 2.969679344742373 4.920554027761883 1.1974193064803895 -0.6435530348071303 -0.2304657169578676
Ni 0.7574607781066836 7.887236301258741 6.957423423615223 1.2264614593490104 -1.506358177244496 -0.0713635393446513
Ni 5.39994053974474 4.557671484426501 6.931923258904222 0.0807912604164544 0.825013782621205 0.06581432739164794
Ni 0.7894289305649219 7.820679267579084 11.21011716625582 -0.6698150538274529 -1.1646056023844782 0.8458176067404336
Ni 5.050516112926538 0.36994648261638857 10.412329423123216 -0.1145688710875317 0.21245385376147927 -0.03920572366518409
Ni 8.225744062366616 7.19423761405475 4.877782203462106 1.1857249008615967 0.06307018898760751 -1.449727316124329
Ni 7.324554171920684 6.3755605850503985 7.005209806462908 0.726250253997046 0.2605111142800223 -0.7368928213125566
Ni 2.724591998377632 5.225574597869022 2.44818074685492 -1.214959886467314 0.0487026074120258 0.03463841600947583
Ni 2.151157226687166 5.610710554669504 11.145327028637292 0.5768768736358193 -0.5469710872153225 0.28316793244758975
Ni 1.4553519175810206 3.3448007643010778 3.3311257724550942 -1.0490805380312642 0.26351750520651396 0.41290399819386303
Ni 1.7374720932001604 1.1284807024765584 2.3765207642622546 -0.16081016144325855 -0.6950226634413321 -0.5889844555326308
Ni 1.0721295666229163 3.5802380697749703 8.143517330560515 0.7509169035057907 -0.9508453711067496 -0.11295421830224417
Ni 3.67025955604569 3.0153325126962454 7.214546439487644 -0.7517080319485182 -0.8043709095598729 0.03240695557579581
Ni 4.549278955946358 7.046151859081022 5.932973624657346 -0.789599407677653 0.3777516186624462 0.8197779881435625
Ni 0.33552709219815163 9.07174920528188 0.34363895848807924 1.8070826305186105 -0.4739491863316418 0.33126041707944237
P 0.4092801950860273 5.805716102416584 7.6835129120383145 -1.5284133572723226 0.16391142607640158 0.05206535323667163
P 8.55309823513606 2.1034902163944103 7.846903868787557 0.5899123666635389 -0.8633067646641326 1.042023374074167
P 2.3670939773863506 3.3015350474457916 10.049644619058212 -1.6680453419760692 -0.3544983045614604 0.3300147175977993
P 3.9310840323617953 6.279597808259534 3.9732717512592095 0.6145815872754449 1.2637203437004687 -0.9299507870459275
P 7.2845871470413055 4.2297979043569836 10.277666246272451 -0.831040191320943 0.10043834522342057 0.6558344232776447
P 6.733878722831271 7.94614802397766 10.254979993390622 -1.530721436580209 0.473379686981417 -1.5024465008949157
P 2.738998716648106 8.612702500921744 5.986055228243154 -1.3550392431211244 0.30445255285797895 -1.575745309589067
P 6.685801654143719 3.9819859477690476 1.6235177765274347 1.4180448974193838 -0.42117960793909404 -0.768700709851773
Ni 5.548290554572892 2.878318334381989 0.056917016438459554 0.6570122456358298 0.2741184206508118 0.8646514516174851
Ni 1.4390498182857159 1.1867181069462587 6.829669275096321 1.3512265542432536 1.2258073707047792 0.18618746386578258
Ni 6.994101780168343 0.9715467985840254 8.820419858907476 0.5640810074227317 -0.4733033252175268 1.6309466373515586
Ni 2.985653397321842 1.3594802648778885 9.1406262582352 0.14956775576021986 1.6595650724192 0.49539578624119196
Ni 6.7129019578353 1.7045033982586213 2.221599791467728 -0.9735248149821364 1.2981073058207708 -0.1884945147324044
Ni 4.3039455745447395 7.1150598942241725 10.284561605991152 -0.11175119913307852 -1.3883957070943831e-05 -0.0570833752765533
Ni 7.967680645908798 7.191868387773711 0.11344493302230227 0.6133993940418856 -0.3195349011123981 1.6032856811011806
Ni 7.69295974621352 4.18504686487166 8.102506023635726 0.6682605648561394 -0.6288275556714977 -0.7565797582185227
Ni 3.370871365801283 8.360953983743773 12.319683241841787 -0.39578867866981515 0.3149904762748253 0.0054245134496809806
Ni 0.2580606827351856 5.08755805458971 9.780064940392789 -0.8466424166345741 -0.11276524221988966 1.1921030364737986
Ni 8.704400670406738 2.423089729297837 5.618008682855983 1.773964764918719 1.0232877453378764 -1.3092460960464096
Ni 4.003381883568586 2.7809978086839138 11.35894467130369 -0.5927675767241469 -0.6250606324298977 0.22982936892544933
Ni 1.2686386618175787 3.2140194735877095 12.02555108897778 0.34125892305305094 2.6111941157695093 0.9558703351251666
Ni 3.3260838766808676 8.458028474404971 8.095463954135775 0.9562955955880434 -0.3294735003823487 -1.3513288841490727
Ni 5.6967863679414155 8.121006035927133 3.7099340726034473 -0.38550195203182647 -0.10457370754803282 -0.1164437195127414
Ni 2.974180874676348 8.381675601294093 3.489901294160697 0.6713255769347084 -0.19112809570050954 0.7309386606116508
Ni 3.6781873516783983 4.849314127213664 9.395961419506312 0.06976508450927986 -0.7914552299394693 0.4283316456028429
Ni 7.4828002626765615 6.355030328084316 11.381603586959196 0.5547908403700573 -1.9062889031071426 -0.32852784863962775
Ni 7.9521166517241255 8.731683222273782 2.3519409528373494 -0.2989876730886657 -0.2701560935689541 0.9267896157091265
Ni 4.453553101783597 0.24356739658136647 1.6641290487070797 0.2817859644983986 1.0350765104426882 -0.45620934584971756
Ni 5.855333168186811 5.642458186835431 0.2660513539884293 1.1428489274336768 0.45889512021199685 0.4128597752194889
Ni 8.02730313651203 0.24803247688024818 11.23856519520496 0.16376564452715667 0.13525468157165738 -0.5460837995143627
Ni -0.011803303083962258 4.9468533507222965 5.562620728609671 0.11849134607038947 -0.16164139909530226 0.9816564429503353
Ni 7.245576925083117 6.195317139515947 2.600355239645196 0.39343534794629015 0.14755586753651362 -0.5552556958216178
P 8.898485864867721 1.478105602287771 3.3826728464034908 -0.5573537160012272 0.08338498928555962 -0.08871540035953754
P 2.016530499471495 3.3514710475230807 1.1806009469367906 -0.01460438017673614 0.003955127993006092 -0.27831908899572066
P 5.021256168355704 1.200559855872792 7.991689109303622 -1.2025813102973029 0.47761737921184844 0.7549838744863127
P 8.874611353881864 1.7264825282196472 12.6681107711402 -0.8227373278822024 1.100778223515872 -1.0717697520986638
P 6.063250999165554 7.789478379939552 1.3796123095805812 1.9172320323822076 -0.35519121686342703 0.722729128217665
P 1.7123947442562368 3.425974101652993 5.997044793223667 0.9228059484710299 -1.0429165753123975 -0.4452682734571815
P 7.103751394936595 3.9637975798576845 5.560299798095129 -0.9544233182659949 0.3364792422762205 -0.012951417954345436
P 2.4381343161824365 8.55608710521368 10.112301541782928 0.8792260069975504 1.2295915203375596 1.2414314503952812
