# total energy = -340888.7660319192 ev
CRYSTAL
PRIMVEC
9.07336857623553 0.00000000000000 0.00000000000000

0.00000000000000 9.07336857623553 0.00000000000000

0.00000000000000 0.00000000000000 13.27979206147682

PRIMCOORD
 96 1
Ni 6.574998499603172 2.1142854535940634 11.518174317494147 -0.09116566167224299 0.2957200580809875 -0.8246080625423541
Ni 4.8853739224303885 0.58822014306301 5.991351334377403 0.27797841782685034 0.490287261370033 -0.628124358956886
Ni 3.0133474137853273 1.488404478965517 4.526138385872172 -1.6990513034392805 1.0658351317817838 0.8389697305806647
Ni 3.495760282139206 4.257732714269254 4.521397550713526 0.9815338013295418 0.5383036413483117 -0.21935186643289317
Ni 3.6561774411915797 2.983840818692663 2.454742746239679 1.3636125866124322 -0.38273647347154727 -0.08452733042011894
Ni 5.645930909039386 4.787426907047449 2.834266335266284 -1.4634521219095893 -0.7562339448433298 -1.6853568366713232
Ni 5.2558395674591445 3.207825999030156 0.47489739703922484 0.36891756531058395 -0.8204259061402064 -0.4110605172272211
Ni 5.634144603066025 7.92655843146304 12.18602869584307 -1.3097310061026284 1.138586552612897 1.9671998796599024
Ni 2.261391980727329 6.541653869539967 0.43386671632934154 -0.8165486825729873 0.48775318209426965 -0.9365618646045419
Ni 0.8278269423337878 0.265049432511658 13.13236018507931 0.05902610082522093 -0.6003898691560949 1.379753715148669
Ni 8.55194037081173 0.04268294115464784 6.705631418479905 -2.704512819229013 1.1500539298225485 0.535898888561561
Ni -0.34241714029014675 2.3323729442605137 1.1077993443869298 0.5040812298303319 0.7776934002686865 0.11429479149053864
Ni 7.020736811571887 0.9390573695296613 4.784097888062364 1.216884871404169 0.7271663380534122 0.09217456255273157
Ni 1.1125311061768515 7.398107290200126 2.2496628369769325 -0.8871779148547753 0.07488337957245168 1.0872732470509017
Ni 7.72145493144161 4.218318000529236 3.714185302122215 1.4068377158496546 -0.5241913703166456 -0.39604707453752436
Ni 7.54751845298946 4.06256455300135 12.54802253649359 1.4009113230628905 0.3109733846956322 0.2712166736229845
Ni 8.377559297292072 7.262124713123321 9.310236273934535 -0.4561095870470596 -0.4785080093469178 -0.12590383648437672
Ni 7.047975064483382 0.7556700702138838 0.19009070412957232 -0.1553357685922486 0.4253527654801771 0.11375614537824924
Ni 2.0023200835314907 6.897484170815812 9.046473445108038 0.8502766709530518 -0.6144293779682966 -1.2083300398556223
Ni 0.19593304625139488 4.974674017418706 1.3632237473554456 -0.34640421469941635 -0.10771559561112416 -0.27079089893947556
Ni 6.298614614880642 2.3965216611440137 6.982302021654137 2.375873898932818 0.2814792318912572 -0.858772881349521
Ni 3.3190927197009286 4.341171413061427 0.09835259496493265 -0.4465764507456437 -0.33977848185278253 -0.4589552840259709
Ni 6.227688091559806 6.051710105144602 4.6100670465754785 0.6976531590856436 0.1255521095719128 1.6771676159923117
Ni 5.90284334447875 3.0650383954098395 9.23905660362628 -1.1169034112125087 1.7406414681762408 0.40271857302042896
P 0.251295112861913 5.821827235136066 12.46358939648919 0.19460165607140678 -0.020310686532894057 0.12654172717869175
P 4.261879243776433 6.176595952271122 13.026626404656849 0.34794816214776847 0.8314811355131035 -1.5064949599326762
P 2.574123780560934 8.753450816818185 1.2423084063828467 0.6305913324401398 -1.1425933597794453 -1.5751526703103906
P 6.659535076011032 8.074617662312397 5.908020608673053 -0.7606454436474642 1.076472814001288 -0.9073014250775276
P 4.878804803473719 1.2530140741410987 12.622269912767662 -0.01971521904074024 -0.023306793046740507 -1.2077425427832684
P 4.218626495065876 6.5299945907287515 7.835290322798339 0.3944823011535658 -0.6614579401120092 1.092646852657989
P 4.823647794996378 1.2811868840312355 3.643696115173907 1.4394704142830113 -0.5073712134355133 -0.26610403498676755
P 0.24612692203633424 5.87361802381655 3.6535361835558247 1.8748921339634164 -0.7753647521355097 0.29877015776122096
Ni 0.8100340662646869 0.19112416082731357 4.6054849953695145 0.6865534496280563 0.5593031264181142 -1.0608042542260956
Ni 2.2977126757322295 6.415506824160717 4.637993968173176 -0.822950215223957 0.022037953636645916 0.1603854152010141
Ni 6.272982348233417 5.705742555672488 8.757943041673776 -1.3873456685633139 0.41641458245028284 1.8647162218716786
Ni 8.976247385852746 2.9416224340167183 10.18623826751202 -0.16902817847767665 0.08635204233368354 -0.2877707213269238
Ni 2.622611863025633 5.174242762518081 6.9922092329646155 -0.3000672793060897 0.9633327049404831 -0.3716496195297664
Ni 0.6357092476311217 -0.0639917476045629 8.804236276243975 0.934062752331772 1.032050579132171 0.727813741829424
Ni 1.69231029431529 1.4645778126945028 11.30908397925509 0.34162453392258585 0.0028490394130209 -1.2661155834055227
Ni 4.547409084173443 7.3447558820989975 1.6441180036710152 -0.5345572869320019 -0.6547409331031498 -0.7189904871108392
Ni 5.942630066336479 8.416547562702029 7.908886231197978 0.06432025934462471 -0.31175551427729536 1.1476003260757333
Ni 5.551740268308465 3.0633598221957734 4.771602044654732 0.6033252976353352 0.2276511303272079 -0.6224391356466507
Ni 1.0106643955048495 7.6049075101730725 6.314076542524372 0.7835143778258377 -1.844725380572049 1.2096999236199555
Ni 5.052832015613115 4.712689568862246 6.699283689720119 1.841996154566344 2.0128770699820433 -0.027036435292501826
Ni 0.98841649539193 7.624369886087514 11.2779831932775 -0.7374039566210203 -0.08412109612063577 -0.08820015128601583
Ni 4.8383012854867395 0.5072312538265007 10.4446233106954 -0.40043491919257485 0.5543938620419548 -0.6101181521874525
Ni 8.291634495469333 7.620132622893088 4.618312924072469 -0.06197361348931908 -0.11460255253894457 0.0338143774462837
Ni 7.4628276293132805 6.5068484271120886 7.071369838403102 1.100926061947646 -0.5857291818201268 -1.4586184479663717
Ni 2.7545930844948536 5.2303615480802375 2.461382637472401 -0.8352745411172646 0.6658483558702211 -0.6124773964482484
Ni 2.6944457232189385 5.774155755856588 11.203377418938803 1.304038326593225 -0.12387729297265117 0.8655695925563803
Ni 1.0794949706502852 3.516275168825712 3.4742191974499392 0.026094640204522804 0.2182005264372694 0.846710036647716
Ni 1.9307765711373754 1.3085521641048758 2.299023777512946 -1.7759630262956703 0.7741990139621828 0.7226103432516136
Ni 1.3894049528105146 3.500904882206101 8.09328974781092 -0.8219832233249973 -0.26328070660535946 -0.07294631045073889
Ni 4.007044609775022 2.81983967899404 6.511520304668427 -2.602558808692015 -1.5798662737359759 1.34991580585163
Ni 4.520751526860328 7.304016456525177 5.769618164157375 -0.7992050490882172 -0.8206735033746383 0.15350231492793562
Ni 8.441299712582959 7.328269571126251 0.34710716458393476 0.38575700546542596 0.5007501085745699 -0.20318811218883717
P 0.4448963033510646 5.944290492813097 7.7429424832554 0.38514816823683345 0.011693634287844378 1.6393567157921252
P 8.820766139386599 1.8838672548307707 8.105706652910646 0.3223165776225933 0.17347798671891412 -0.707709257770065
P 2.1621565469854844 3.9294400870728197 10.15965238981183 0.6498509520007002 -1.4929460176036482 0.10651309066259075
P 4.238206824773739 6.303015198712113 3.6171628630123203 0.5812235806402893 0.5311117515855627 0.6081438020699009
P 7.121659891896522 4.257778081112877 10.408249990151896 0.7657064031101394 1.6736428906685046 -0.1135633126411528
P 6.628676548978389 8.18724538829187 10.230313970765907 -1.613296014149331 -0.04246536825306235 -2.5574626876843247
P 2.753649454147487 8.705116981621806 5.684282223964871 0.1201211683643286 -0.3397481428354794 -0.9491787820376041
P 7.032904199031686 3.880942931239396 1.377035229228156 0.9303665344271074 0.92915631616909 0.5518644107518819
Ni 2.873109426776647 1.9351227147564978 0.05516971119355484 0.3513044802145111 -0.6551196565988072 0.14622866408465782
Ni 1.6313644765916027 1.080983003121133 6.89759032922989 0.35509454338456264 1.520112293605795 -0.5974896647901645
Ni 7.088033987402852 1.220277359782447 9.219456312507221 1.2611767513430086 -2.318279131237485 0.10331386699900272
Ni 2.7189438187755792 1.6115210191907237 8.995903931857896 0.7344384462347933 0.46831667063621285 0.7661134087405709
Ni 6.521765045295465 2.229916464621408 2.691322669703903 1.2851340334895545 -0.45021507593949567 -0.8649916085657231
Ni 4.680497256627075 7.242154228560296 10.002645002726192 -1.2551269456045029 -1.0885685688235576 -0.6183803921962447
Ni 7.17218040895555 6.448688133586878 11.411975980592981 1.5242736240723362 -2.490777527651949 -0.6297662654356831
Ni 7.846150237824911 4.130061342944257 8.06395463938715 1.2426480964112019 -0.4602655181969622 -0.551956456245056
Ni 3.071970449115496 8.252736963746624 12.089019866786263 1.3232956321609404 0.5799488276929238 1.3006838082986956
Ni 0.48700490026544013 5.406548221976108 10.353908677522906 -1.1439691570810493 -0.7888561017537253 -0.9007749368129196
Ni 8.982644110803646 2.4720937492518877 5.642384129204908 -0.12058062449925039 0.4825793512028141 0.29201535553589064
Ni 4.046368589827793 2.731546727934162 10.998443590912524 -0.9393389131290467 0.5535579964042209 0.3827367305818634
Ni 1.152825936683163 3.827754843775311 12.351853582655353 -0.24602706173123434 -0.5192011161909058 0.07639210290749424
Ni 3.4911147173521697 8.772958559576251 7.741746613257487 -0.23688061934527588 -1.079333937599167 1.2258482512450435
Ni 5.8087888042786995 8.292333144861134 3.7722848040769694 -0.7124935665325858 -0.26374119118154576 -1.497974066945859
Ni 3.1260295799771503 8.310144167667685 3.3385396708885384 0.46578670512550746 0.7987252812383212 0.8688338651299488
Ni 4.127874661081609 4.535078376076601 9.113841393215054 -1.8351215389336977 0.7622829792508872 0.11432898716258375
Ni 5.263461197187876 4.787073045667186 11.540829611862803 -0.37151155129000535 0.20004545279479743 0.08915788721359483
Ni 8.396967232994164 9.08933785363718 2.0995620981645224 -0.05153493465449834 0.20671592283643755 0.9886210471936263
Ni 4.927174932144998 0.7504347364597425 1.4293568099790335 -0.8630529967821137 -0.5241134658908586 0.7146581782840724
Ni 6.356257726388546 5.991390349862918 0.4153325460354341 -0.3268499467165726 -0.8451820300389637 0.5600418043563515
Ni 7.989455023462534 -0.3492911244359656 11.585011473530768 1.5188694223376293 1.1463335435481676 0.5500705520762528
Ni 0.22804732751553342 5.102118554525586 5.7988471141670646 0.3088411688439778 -0.6502397027986866 -0.7780297005621826
Ni 7.704832519937992 6.545038236074274 2.5803299647686164 -1.7992873028439076 0.23277096805227654 -1.1085594101231877
P 8.786414365394954 1.7232777017726288 3.4560261858200803 -0.6211610402651755 0.2966158304223795 0.011398214534612627
P 1.7738072922003814 3.4494588815371556 1.4092248194527095 0.30440550167012737 -0.7350804506941663 -1.0439879539997052
P 4.90202355404018 1.5180653213265016 8.278303902139031 -1.6253927974128655 -1.8427482022410198 -0.47341619664630724
P 8.688975458660597 1.7270159296871976 11.996592181598547 0.014425174286394511 0.4281287855634175 1.1678079113718598
P 6.541145760891386 8.045328828069124 1.2739290963883627 0.47826066922280214 0.2870089034602347 0.7379791123982
P 2.028687293045416 3.414172550566868 5.685038942916509 -1.4159389068199744 -0.8944019434070403 1.0754667413342769
P 7.177960144833173 4.348139760241983 5.778861204877209 -0.9311746321506995 -0.4924683281817518 1.6034417470630709
P 2.5845037143819702 8.674421775226207 10.06460885242079 0.2503408586152398 1.2552164199945157 -0.3969554452844067
