# total energy = -340854.9923605167 ev
CRYSTAL
PRIMVEC
9.44038293981919 0.00000000000000 0.00000000000000
0.00000000000000 9.44038293981919 0.00000000000000
0.00000000000000 0.00000000000000 13.81695468095078
PRIMCOORD
 96 1
Ni 8.250592433523083 1.3765022091564003 9.877298771001255 0.7807686967599005 0.6525233566265408 -0.6111105980077088
Ni 1.1799251190990399 5.489525928339564 13.474294176238427 -0.7089377308605275 1.0117182953327222 -1.5909071049311698
Ni 0.8706411874349553 5.08502440815622 2.2525914414778803 1.7871848631534186 2.65921435240253 -1.868711716184317
Ni 4.805381390258745 2.6841934684291093 7.60370531001367 -0.034009524176225304 -0.2458846226160991 -0.23851661228680213
Ni 8.078805788574046 6.790561717771691 11.475892592680465 -0.4180588029219252 -1.1085617241160326 0.6443804158044322
Ni 1.2385876575236876 4.974571929950817 9.162368200725936 1.326636009388083 -1.1466405332656253 -0.5388014069203365
Ni 3.509641655550825 3.396092731802569 5.620640572275581 0.9125102229719769 -0.16491107098550956 -0.7847893878835194
Ni 3.2929376694649246 8.932008700988403 1.2641314451756687 0.20977373582615488 -0.7302454911993682 1.0438390871266667
Ni 7.178325439334678 5.452614031776903 7.255752626556665 1.01263360805814 -0.8520011098433261 1.4507840395236176
Ni 8.087141646544593 3.721181752271054 11.447484592901345 0.7722550028619346 -0.9783592602563022 -1.705823074945475
Ni 8.610752475917472 3.110020813250574 8.066283120852725 0.03988218090691841 0.5718542236102474 0.5352892800020201
Ni 1.2930114640924184 0.7159057618136624 9.949146692016459 1.0046822144215473 1.1936084173747312 0.29350351004564296
Ni 0.19666771773178537 5.6209832581695 4.63734257726249 1.005400066424178 -0.1435161502495012 1.1842583436183993
Ni 4.250305765171452 0.33750595590297794 13.02160894248582 0.19713907778127981 1.36716713673291 0.4965412126995448
Ni 7.751677645431001 7.863064721528913 6.686010422824937 -2.498474382075574 0.5870556139410341 0.6818408746437354
Ni 9.363018815941045 1.474040243756249 3.130493227287859 1.032278893092893 0.08214083246581338 -1.2361390916480903
Ni 4.8874371971443304 5.297650148892998 1.3745093443573269 1.1779264878631004 -2.22603772000256 0.8713728295017186
Ni 5.778467723248349 8.507106513676693 4.745805966821921 1.6280142941961122 0.29374673640470056 0.05679026951616671
Ni 2.9043148730714505 4.756952226737913 0.9549768467552949 -1.4728376768895473 -1.5571354077973634 -0.25079003033751646
Ni 4.703547981506463 6.250921118484898 8.22036904814064 -0.2584596310676323 1.2944293427485514 0.4040540040024008
Ni 9.124554747610404 3.8693579999558416 3.3535817442293423 -3.0032215276246794 -3.3389998871791335 0.7144306356542987
Ni 0.025322882695570457 1.6111618032377435 11.98075010171531 -0.4280357116289789 -1.2889289817556124 1.5975107262906165
Ni 6.730530323847917 7.202152965402236 2.9547557821568606 -0.9058248405320013 -0.45726015571173506 -0.2795521900718734
Ni 8.309443779602784 8.908285019131123 2.4106574341342903 -0.8791804984715955 0.8023394809521408 -1.1378602159698339
P 2.4639965407247475 0.36285715974680616 3.550805500505256 -0.2292164179317988 0.26874018705803393 -0.9087168173678156
P 3.0130208804676233 1.2951544309772582 11.299077055839119 -0.8349613807522202 0.8191328983603957 1.5502651630400914
P 2.495168684573828 6.899494294353926 0.987858643920871 0.1248057183241915 -0.025334364999730564 0.0003586688909993823
P 6.469239410021493 3.6407213700706564 3.3897827799707323 0.8007433401096145 3.7736266217620686 -0.7007904191630446
P 2.7365781523232795 8.285776740042019 6.696400508082447 0.34162093437816005 -0.5237388561602594 -0.17658876443375393
P 5.305438464663892 3.6060185230721036 13.526880884323502 0.2598824795570879 0.037504938923993474 1.4698472268026557
P 0.9318299722841984 2.1158824267226746 7.252892190582629 -0.2412538087123071 -1.7553507493619576 -0.011210009783206501
P 8.501989826224785 -0.08193969017772998 13.237734233108986 0.3458015481184109 1.0467539467806166 -0.6151102060854052
Ni 7.40752849218502 2.308683363678995 13.407226865049141 -0.14054781164979666 0.23607072184947084 -2.567763298279384
Ni 6.676625738330579 6.430750969539149 9.670168277064766 0.13564728902438575 0.3786440485697285 -0.661869573728131
Ni 8.687908724154461 7.5592165622537735 4.363325083447288 -0.8933043394674873 -0.917287332645646 -1.0416122546786772
Ni 3.773793005351286 1.8474545835352862 1.5748843003960575 0.1449287143263117 -0.08379970822547504 -0.06619690754204728
Ni 8.317184893459913 0.9452183231039338 6.965016214886613 1.134959497383271 -0.6582708006332793 -1.233119073874844
Ni 4.29643147530065 7.314918337382028 3.3784108949069522 -1.7083337571824706 2.6238025485621392 -3.0263537427667684
Ni 1.4866525951137206 3.9590416361055283 6.540711603803142 -1.3170722769590477 0.6446832917568316 0.8093781329664771
Ni 7.0698176799763095 5.047583850159414 1.8143178960353898 1.1782769292239836 -0.43713535993740205 0.3350738772882616
Ni 5.2485129566657225 4.87348431143599 10.50591497773129 0.009533393411731969 -0.6028879529876005 0.6851835658637232
Ni 3.0657737392891447 6.402363738602085 10.33914400813871 -0.6906900975042491 1.1154656503247176 0.1398145330281979
Ni 7.235826810680757 5.345003108780033 4.781826691252735 1.0241683481706165 1.2664976493352897 -1.3667930412229428
Ni 3.8118849497580216 6.214009221922237 12.95629659845024 -0.15373140021960618 -0.05639791917375449 -0.6188023102250118
Ni 1.918880519441447 9.112423855773315 12.423763663337878 1.881000560853999 -0.5246356569429158 -3.601758402732436
Ni 4.9908754709645535 8.767547793055382 7.009409614780707 0.6838293658286739 -1.0863288808597613 2.093042009668408
Ni 9.347328899806225 6.724667846158553 9.31359463607809 -1.7196856918601804 0.6339245105784308 -0.16974140249461733
Ni 6.939483755693934 4.93880231970122 12.790810464950289 -1.008306955658328 -0.21168303703372576 1.9128002218630995
Ni 3.165048804315471 2.737767640550106 9.20823996455909 -2.0561937304918074 -1.5074794353331329 -0.49367854643976916
Ni 6.912880757097112 2.2177347162404604 1.6080313723169817 -0.8363212372142242 0.0459911220181337 2.6920995331663247
Ni 1.1749028354746573 8.100499788139519 2.6143884462415694 -0.17290025983857318 -0.23250460176476734 -1.468777904997877
Ni 2.3602750554219467 7.892943532940887 4.559871020241564 -0.3086282815022233 -1.397123316775368 1.4024670975857845
Ni 7.48461865774274 7.1194457721067215 13.942964810106009 -0.19062107415710397 0.42419062685127595 -1.4351496754204702
Ni 2.48747477263046 2.45753931892197 13.535917218694289 0.5363686291091279 0.80053842318766 -1.9611300193167382
Ni 2.5586269374367956 0.6344446990414893 7.78213704038226 0.7938358143565039 2.583153150471893 -0.40821533446894215
Ni 9.23432751825762 8.701030856180573 11.100002040505421 0.2525844032337779 0.04813850737843967 1.7491358788004974
P 0.9779198089589353 6.743595813577514 11.28267627888303 0.8185916811449451 -0.08175388144003985 0.5079124306509639
P 5.608172658774223 9.263517181728655 2.577345328358648 0.2348985559182406 -0.5274366167268207 -0.9136152831106975
P 2.2099936023833298 5.0958430867906985 4.908113523449073 2.3003667697334382 0.11836510490517034 -0.7614903081462627
P 6.2358448272289975 2.1786043297309394 9.815605869713025 -0.4514571758767128 2.0725881126894303 2.5918571060037947
P 6.043289340224244 1.5156723316952088 6.0120057998586836 -0.914577904134283 -0.261996183465981 0.4319440455444497
P 7.755387715852772 4.636568465876777 9.390360996507395 0.8009145755801562 0.030726225439263212 0.4820329917810408
P 0.7360279376508264 3.5113409244462925 12.614271531323594 -0.06425623887590869 0.6919607366865567 -0.8535746249780333
P 5.9473656110750905 6.760701787125222 12.392440473364756 -1.210661001981644 0.8630817931375201 -0.4924251336486422
Ni 6.836526941394094 8.755728433849129 9.863315676068106 3.074229997622757 0.8520250211027262 0.9331060448454574
Ni 2.032986425772106 6.268574634232257 7.113727732273472 -0.3199452491769393 0.3201792195646163 -0.10660282216291964
Ni 6.860996413488829 0.728858910988503 11.728411502853174 -0.3766977234766351 -0.1130552626564827 0.3964445670862592
Ni 6.389741946861861 1.049770562088963 8.22769195304183 -0.05375919599932678 -1.8857036227566233 -2.1719417094891047
Ni 5.170573156660268 7.308310069455208 0.8926278388657576 0.0951282458644168 2.9743022734871682 -0.6206290790211054
Ni 0.6091454173028003 8.02747842754817 -0.018507870386469533 -1.6889044448132655 -3.5406826184670375 0.8467668580275804
Ni 0.7136598947568192 3.0284747870336273 10.285381972400938 -0.16393405178422088 0.6541441800594152 -0.003084295352278559
Ni 7.247986023666103 1.9363263467682492 4.065625445458917 0.6567965300805978 -2.4180111944225002 1.9982698615918297
Ni 4.3505154280902865 0.8438805344461642 9.81393397792754 1.3481137196458848 -1.2034534284896112 -1.005212118783088
Ni 6.0057732591654185 3.8847930257563403 5.9677502295527765 -0.8217366545318299 -1.6692758719490606 -0.9452827894173074
Ni 3.3945067475001323 4.051302496746675 3.1308944435548445 -2.1540843695927094 1.4501122102675734 0.3459231612979397
Ni 8.48090001115548 3.6140711695600705 5.660211824659648 0.6029558301110584 -0.6868966919000881 0.5801462884157105
Ni 5.028939094223031 5.756254502631484 4.41790182421661 -0.09601527645506044 -3.0035033205311565 0.9602039295035141
Ni 1.5160405066225602 2.015021377393911 4.716555884901268 0.7026374996741125 0.46101345210658023 1.1058736357609082
Ni 2.8636645849387614 4.091452444593476 11.007456080305147 -0.3477697275883752 -0.22801648408642666 2.4972963026070736
Ni 8.828919721330026 4.004619804035074 0.5043382879834507 0.4373387341974597 -0.01008000994382135 -0.07772342012440807
Ni 3.878099794384748 0.200034158221362 5.301026973803602 -1.06254463395597 2.1733676433023534 -1.157358948124394
Ni 5.1477935130782475 2.5588912681538685 11.688936542373185 -0.7990140161233336 -0.2122597354728022 -0.38218882849819336
Ni 0.4760341324146096 8.26906726256992 6.205470395722512 1.8922815330844573 1.0448526159928457 0.5232835137903956
Ni 4.3757967731017455 8.157557461496225 11.480023704173004 0.6843944943035245 -0.5944539632876343 -1.0323624539456349
Ni 1.693840675385002 8.280962144838194 8.765033819128366 -0.3009386261674495 -2.210046486780626 -0.17823452756729302
Ni 6.585884779312602 -0.11472708351578013 0.16413804684288116 -1.2909889496084346 0.7747464018252206 1.69689491921791
Ni 4.819154908694786 2.5097446355438398 3.470003376449214 0.3151894796595088 -2.590785213095854 2.0061664907310868
Ni 1.4027181520603667 0.5720456571233631 0.43294161726382285 -1.2554851002748701 2.6615501996245583 2.885073166716005
P 8.544971888897367 0.09573586553237755 4.643491098549257 0.0370717080413168 2.019753999607534 0.8363135239047405
P 3.5764984462047282 4.730141539720534 9.032654509590408 -0.9300276630304499 -0.19604275939330754 -0.5673149409789972
P 1.7341511097385978 2.6909244613317123 1.782290453508924 -0.40420184243417484 0.6839280961900673 0.5946156856764792
P 5.053474648997035 8.24734494185619 9.279259019968613 -2.8647910194282016 -1.6083954915239203 -0.9530873730633908
P 5.593464542445675 6.463008757404778 6.340379129486798 0.32368389028376515 1.2866201311167775 -1.6188290281524185
P 8.954259683136277 8.92564588301315 9.053697122745948 -0.13473377607118087 0.3465947334436676 -2.7493610858919553
P 8.538212574846504 6.774210974844191 1.7947394862447756 2.6121266548861075 -0.8081725426941501 2.407606197039092
P 9.134316103376591 6.250005401357896 6.805734300931668 1.3435422982251184 -0.6341078302338305 -0.07509395292136099
