# total energy = -340889.7465925041 ev
CRYSTAL
PRIMVEC
9.09731916289336 0.00000000000000 0.00000000000000

0.00000000000000 9.09731916289336 0.00000000000000

0.00000000000000 0.00000000000000 13.31484616600738

PRIMCOORD
 96 1
Ni 6.522350353433114 1.924637965281773 11.602716467597482 0.5516137281936565 0.11364018862567525 -0.05873556616799561
Ni 4.556901813838239 0.12683664493716487 5.927956074104672 -0.02985513568821955 2.0213861358943186 0.47635239645649574
Ni 2.6852466360730745 1.7988584288455405 5.009044950432791 0.9828237237855589 -2.070543828565892 -1.0646750500354114
Ni 3.3690375428207227 4.369051267919553 4.697331673251249 -0.013903497454969604 -0.13349039058238302 0.00862913642990772
Ni 4.814728939698161 4.5544455376312545 2.298821624262387 0.6678787560366884 0.7117466610642322 0.3828426600321084
Ni 7.000741985361056 6.084641933348282 2.5847976754543627 0.5947786936169047 -0.15502672199226203 0.9762967213003187
Ni 5.099174821786377 4.809570759663491 11.5709613649008 0.5954181269731165 -0.4570616665476838 -0.1598179727333183
Ni 5.777279903980818 7.589202083319808 12.645295639899516 -0.793056255878002 0.5999329841243345 0.06851655681415943
Ni 1.6441858063597294 6.758598637948703 0.2010261934393434 2.176207169633678 -0.9469519495896143 -0.3897607273081804
Ni 2.8517912602259825 1.6554391903154373 0.2683354393661767 0.16434080030433632 -0.49126479479195395 0.6578910486963573
Ni 0.10583912229515212 9.308831958511135 5.1965980140108545 0.6281549550845053 0.5040678600938933 -1.5629149905936182
Ni 8.717779124556122 2.3303329188022266 1.1591467632301418 -0.0020761658027383598 -0.19092292166823893 0.9019129070721047
Ni 6.902208920183794 1.1503196343277782 5.147200480024518 -0.48599531886289843 -0.3643649129428951 -0.4578764491394953
Ni 0.9537356618953647 7.554368447777039 2.268849596145592 0.03430160149534738 -0.03327341734114915 1.108270418127859
Ni 7.75017005075093 4.025627464905827 3.736239009249998 0.4276127651589474 -0.40429028838292314 -0.018889894925967467
Ni 7.6434584955363345 4.081703340979379 12.600784276101223 -0.1150949187943308 -1.26813004273239 -0.11002856001501696
Ni 7.816771525237381 9.225864406630734 6.943918309642266 -0.567952574562996 -1.05344678541976 2.2876187260391503
Ni 7.107380762021371 0.5871700980841201 0.4115790996340768 -0.644076254300452 -0.1384672749716841 -0.04877922628623212
Ni 1.6039119738844507 6.773745674558447 9.299287960849105 0.010156628818027669 -3.08514073099799 -2.6123966207180427
Ni 0.10917510927700996 4.837599600380982 1.4619564940273255 -0.15898030732337134 -0.2727163980969626 -0.28886523994268315
Ni 6.222675558861587 2.172676375590892 7.378262541055457 -0.32401530548125484 -2.1253083259012815 -1.189191005033326
Ni 3.361504962452633 4.193090918306534 -0.03470991200049195 -0.5327053213249278 -0.4456529104901099 1.2339030032287202
Ni 6.036935591017051 5.500721397712811 4.688184318710048 -0.6407543890160706 0.14096741568571852 1.2835162953804735
Ni 5.415743338270394 2.6648868355129496 9.512459075534098 -0.7817323462247505 1.277476774054613 0.9054018940619697
P 0.24198323459293536 5.512766248446326 12.51679418553317 -0.05952515194882652 0.41897668675050426 -0.37101764237272233
P 3.869963234617936 6.161141291216955 12.773944470838279 0.3145024808948132 1.3952785502571454 0.05289016313081214
P 2.63317358048498 8.7997823605923 1.2840347623764312 -0.42270632899626553 -0.5901401664036288 1.0920295307889645
P 6.221129014583115 7.75908542365036 5.954106318389782 1.0534766102164308 -0.3884222110024149 1.1055414492324702
P 4.908640566678576 0.9966477169633315 12.765782355975658 0.26145908001558843 -0.6794466633799461 -0.35934380557921985
P 3.803698360945036 6.125598064769945 8.32051374708527 1.2403778123197864 1.0730049100573456 0.8373620197739127
P 4.9147539652381855 1.034428883954484 3.9482383892110673 -2.0943476158537093 -0.4072766247047566 -0.19552416788567617
P 0.046900319842568594 5.8672250997529165 3.3993470814829965 0.6221491152100576 -0.3225312647365607 0.6967967246226193
Ni 1.4853102223641872 0.921121772258167 2.9851352176478025 0.27760072277245734 0.290008609518507 -0.7738794258392349
Ni 1.9225910684426184 6.51378067866652 4.58218417386355 -0.6795263675779458 -0.27089939949288183 0.6346392772572683
Ni 5.986045186936023 5.4949718919246076 9.30658492064771 0.016572045426068237 -0.021640975308543375 0.32606884557617394
Ni 8.782133561179144 2.4542838940621476 10.334904044970298 -0.014293276694220544 -0.4217928160430607 1.0013073844120433
Ni 2.644963706278511 5.1752375083293645 6.961307835455795 -2.1654836125685866 -0.09821074144448247 -1.2168185369426077
Ni 0.5740590415303882 9.041197922461842 9.206603562240252 -0.8565259942968731 -0.28001087487584675 -0.2105826048806954
Ni 1.7458938359675031 1.241338313775522 11.413886140391787 -0.6542981891387764 -0.41051467202608016 0.0733905970770091
Ni 4.366367558730439 7.093216235894421 1.6264087347446532 -0.015979920368024092 -0.7476490313877963 -0.30513415230603574
Ni 5.442371191817975 7.652555814821467 8.142787607799008 0.41749727399150033 0.678876906919405 -0.012278560257036917
Ni 5.121263113010678 2.8168666514903618 4.997967144739286 -0.13839039898716166 1.116248037016697 0.4167236290502694
Ni 0.49456120722533525 7.473575155205783 7.0115177600542955 0.4671658448612212 0.07501887670905145 -0.4468135064571143
Ni 5.102959306608993 4.460533910650838 7.3059761517477275 0.07910487385296698 0.802827733442469 -0.6423623569331388
Ni 7.918343095055877 7.024213069116697 9.07506633242846 0.7546637721427325 1.1068341999019646 0.9455147029224557
Ni 4.505229040298691 0.36915829980750714 10.420585327193455 -0.17736498047814614 -0.3205263184913899 0.3643502576548757
Ni 8.001938361966953 7.238636884667254 4.687611187595085 0.6544293154000019 -0.050175078192494234 0.3647089265458751
Ni 7.3300012622478325 6.08238579816557 7.061861415246286 -0.9133329759835883 -0.7898423769263945 -1.1296018326157835
Ni 2.4582594225897507 5.388578742884991 2.4135424593756136 -0.2929057285606439 -0.41083451725934406 -0.4108813113368795
Ni 2.275148580018617 5.335705123199805 11.174751276467026 1.1728781268059154 0.12035925251706367 1.5596180650099012
Ni 1.3738589638020375 3.3371696333649057 3.6855360099462446 -1.3053287632698747 0.7624470156325772 -0.40286846833473194
Ni 3.556342249582302 2.5984400154543468 2.7152696091778665 -0.020159248556694313 -0.5765570284025554 -0.08015671215624905
Ni 1.2608884529192703 3.3700655398999424 8.26298048046224 -1.5814729561014635 0.37226385607499757 -0.4458555134192192
Ni 3.712797946647999 2.5911621600262413 7.124255379563363 -0.5635025092114424 -0.34502507496370255 -0.3582618853689507
Ni 4.076363214559007 7.033383166956109 6.042197480491571 -0.42254306394552393 -1.7328741655259963 -0.18254575334813722
Ni 0.6353531399458924 7.488249131212701 11.290590172120394 0.6800698987862417 -1.4787848956119176 1.5106925429537916
P 0.20922651704296122 5.519461875440182 7.931534208019319 0.0777298478823113 -0.46382315364123344 0.4445000278325893
P 8.64268075385736 1.604894484367245 8.394824289933942 -0.2615603814801431 0.2726608622686788 -1.957965762656144
P 2.045750576924733 3.2842869163604345 10.482206019371295 -0.818203701677907 -0.6432779267688729 0.24438232703895973
P 4.128718287044941 6.200405321251584 3.8632093847806543 -0.5128821159514135 0.23315843329868235 -1.4040583533323043
P 7.006764410727814 3.9257479964743647 10.448572320242235 0.018412955289548935 0.32448016093281534 0.18328237440384565
P 6.18972506841084 7.849449096109574 10.416524283864572 -0.23820345192175751 -0.7608639874161734 -0.8130437547435222
P 2.016702836447307 8.47789191232648 5.57926674268871 1.2394738124482783 -0.00397543970798025 0.5075900143145388
P 6.878947074771712 3.7263620497021304 1.6990672044111441 1.4286604681517008 1.7917791673923205 0.30330352685520023
Ni 5.456572107222066 2.715804531551832 0.6833005612381796 -1.6548131595565112 -0.3073386161565223 -1.1029448921498874
Ni 1.4974642409291234 0.952170922978322 7.017869508379174 -0.6376436113012308 0.9051812934107314 0.1840922718996507
Ni 6.797917251899043 0.705417963884192 9.403091103088244 -0.03205034356732545 -0.5334062040466943 -0.9066198256294709
Ni 2.553954124150052 1.5255385682430402 9.09177628849139 0.6651245903303191 -0.16614571472355902 0.9553645991333418
Ni 6.518465798098363 1.901649039448245 2.9415690653232343 0.9153039836670301 0.9299872967108177 -1.9611966108886159
Ni 4.1584665211073215 6.8987246468975885 10.387457439016647 -0.2209060982938905 0.29687911138609513 0.3901137397722249
Ni 8.229735236866654 7.089713767969646 0.5023357762864089 0.30660765152776875 0.35602425428768364 -0.4059609912171267
Ni 7.73910771050021 3.6399011272162376 8.161082316881407 1.071216450698355 1.7566057048149812 1.3232413818842375
Ni 3.2664652678808612 8.564462002643795 12.357748481666997 0.048326197909213546 -0.87420258564103 0.7145728176591177
Ni 0.1939193676137984 4.806013707823005 10.336820850143674 -0.9896191494408375 0.010885279453936093 -0.8919524534252833
Ni 8.643290274249463 2.590288817374869 6.052236372322714 0.7192465689857033 0.1617974650571923 0.325503202880691
Ni 3.8749485655861884 2.622993680204918 11.54813892001019 0.46896818817728264 0.06667256162688516 -0.5782094764043139
Ni 0.8584257769408241 3.345166177016537 12.640702403392453 1.0724559795324111 -0.010689875613678363 -0.977967167024206
Ni 3.0177445586253575 8.434115611926426 7.982343645958709 0.30375526968063815 -0.6249732149224141 -0.03788880462597346
Ni 5.9958793890832505 8.23321951015286 3.8330517713504424 -0.9800037378382604 -0.2337310179727007 -0.6213448741412073
Ni 3.255184591967298 8.32914164469529 3.718477403077707 0.7683122161641026 0.570481768742753 -0.4061605088224424
Ni 3.4170349993690783 4.074871254196245 9.026507571280211 0.6917535057717571 0.650408367166067 1.1884523270950886
Ni 7.520235305819224 6.229425769771154 11.432686660426441 -0.7835925393619408 -0.34139262041743784 -0.22256780226702957
Ni 0.6946239945523832 8.919967045668177 0.15905116225774515 -0.06081224619136623 1.1860072079887058 0.18989550884498907
Ni 4.8036211128510145 0.36723330704677326 1.778277563426787 0.05196662287527824 0.26298168730770194 -0.3791659825114696
Ni 6.38812850470028 5.548527810556179 0.4781996784910256 -1.7417956363853424 -0.3321330494923828 -0.5607809965152213
Ni 7.956469960179865 8.692697815287014 11.198891013190122 -0.6157696940462749 1.712291456278638 1.0049493520400046
Ni 0.031778755726822476 5.037140201581064 5.585564816829807 0.5438040023412505 0.027542685504959016 0.37522088182079255
Ni 8.363402149123097 9.19875439516104 2.9005592597177885 -1.309822280264854 -0.810563925744462 -0.854446228949709
P 8.61496122199556 2.0192136965700036 3.8448619112464004 0.4841294692987534 -1.0596788823724008 0.16420144651299462
P 1.7657077973705204 3.179194683978592 1.358926623927422 0.5590760980089726 0.9637733920223274 1.2703165088607478
P 4.604626350808042 0.9910437682836902 8.327650594064457 -0.0024710872483118735 -0.7110871731033624 -0.9518524722150251
P 8.723073764380068 1.3648799096676123 12.37263442521326 -0.2511782669148706 0.5813037990589214 0.017078295638525427
P 6.684928546377706 7.999864173169943 1.7380401202286488 -0.6865858455278886 0.5234622054601049 -0.6203421439083059
P 1.811849400784709 3.3338309171872624 6.052875913868459 -0.8420149451648918 0.3896010618018645 0.20281041713444428
P 6.745134605406708 3.817771913879135 6.1135386583255755 1.3487868344535092 1.2256340783517086 -1.3534402740651208
P 2.285164728551547 8.34949234793613 10.286863831021302 2.4794693017279816 3.0755289189398387 1.2521097560447338
