# total energy = -340864.10650088364 ev
CRYSTAL
PRIMVEC
9.26809511809913 0.00000000000000 0.00000000000000

0.00000000000000 9.26809511809913 0.00000000000000

0.00000000000000 0.00000000000000 13.56479403874915

PRIMCOORD
 96 1
Ni 5.470205659300932 2.825953329168945 0.06249661702147515 1.5736670869037996 -2.0014523730848692 -0.862639820504095
Ni 2.586196984150476 7.200234579741325 12.547949390601957 -1.4948337215446643 -0.7330389947841053 -1.864122811262054
Ni 0.9272543510150293 0.6755783092425979 0.590012477393125 1.6257285834857294 1.4515551133616873 0.1021275600003854
Ni 5.2060464206092005 8.073974951238915 7.181160840592227 0.7030871856170213 1.3527813003248832 0.9136983297428071
Ni 3.139391028043258 3.0774523503302262 6.726916684285172 0.8425903580523877 -1.0673690519278067 -1.555608943850508
Ni 6.223868594250558 4.991842213022248 12.469287362587353 -0.3068907299858263 1.5294878212834242 1.0109649621064654
Ni 2.2933344557868516 7.78895323109693 4.654813505581311 -0.33542843241420295 0.4850388684869002 -2.5708028564366567
Ni 8.147090951310457 4.777480447823278 11.033956053285863 -0.1142582818256484 0.14956338488484563 -0.8407977849283391
Ni 0.32670219618733 7.884590701592334 13.603182229002952 1.0695136090746356 -2.5833084451028347 -1.0483598578151556
Ni 6.0994629574194885 4.84421999865547 2.948755585595352 0.19773377394248526 0.5247690971969866 0.28167797816562457
Ni 8.925740669907295 2.905649676565977 3.8094687230074356 -0.48634061801745926 0.15161923897260984 1.083876819774843
Ni 8.078015840582456 4.777081919745818 7.13472861233029 1.132947866269881 -1.1541586960195414 0.3660986078045501
Ni 0.8937937482696515 4.457573618761369 9.675170865950511 -0.11786991043630668 0.24311143074633615 -0.18365467014159984
Ni 8.008486593208048 0.22042958688065883 13.227179329205462 -1.2955881389433428 0.329648078287 -1.5259178445439785
Ni 4.378804080846801 6.708191425501481 13.69162487748599 1.9705716243456124 -1.1299322193720087 1.4275538653510833
Ni 8.805005198626784 2.493451159240359 11.02079813906333 -0.07573801426326311 0.28694076922646067 -0.12502580475479758
Ni 7.869808090347042 2.2381151468216793 7.059511535162005 0.7307100895406126 2.7146247108520343 1.634960386496642
Ni 0.880861975560839 4.548113637103223 12.267836980288582 0.0846877672573832 0.8795923891980335 0.4261773182640015
Ni 2.833488290261373 8.43565308367545 0.7353463991477006 1.0304490389730059 1.2805536132077238 2.0520866503019692
Ni 3.512932321855326 2.252425085230915 0.9573432208632051 -1.697085180851845 -1.561217805396853 0.14470322857906692
Ni 1.2323322283575222 5.808268686124299 5.542276218276253 -0.39990861437545966 -0.1736664485806364 1.5461565401883566
Ni 8.03729183192301 3.570487190716306 13.079241999614647 -0.0996724135916735 -0.26402838340466145 0.32372837036845536
Ni 5.139353210251131 6.865035394218769 4.939837079342259 1.8665447904399854 0.3744395235700777 -0.5862164058691904
Ni 1.8448606153176144 1.638117224064493 9.79867749758359 -1.419781420494516 1.441359660885924 1.4178309816363648
P 1.1617278819834567 0.8708718961493656 7.786530551109771 0.32024144026111945 0.7403157309511766 -0.3702149439657689
P 1.1050256778463432 0.12067708228311802 3.2578428407589812 -0.9325234328691101 -0.33484941998228135 0.2792804244677255
P 3.182024264236577 3.1722278880069386 4.55169390213398 0.7925181239863447 0.0945345781444759 -0.7466650702079721
P 7.0171433664806715 2.858817993417099 2.699489248477325 0.09161869004926157 -0.08788262004559703 0.4788821048568849
P 2.6543730896804876 8.64407400009183 10.826563895395019 -0.13941189827314054 -1.1450101967510538 -0.9611583229969832
P 8.033186065915698 3.6102751217984617 9.097689779569775 0.04176114309718614 -0.13953016901855972 0.09193673551031263
P 6.721435533005883 1.2541863959540103 5.778344788364001 -2.7661737865739195 -1.7439278522369965 -1.5216377291113858
P 7.389220301310446 7.057394702304059 3.5006938026393963 -1.296430175228664 1.3348391140241656 0.08258974707777389
Ni 6.412706026302485 6.208029420195257 8.11700949593814 -0.2655224514516847 0.12225801220167332 -1.2609366103077444
Ni 5.251070825267274 7.552626081163576 2.393724605308327 1.3727364032905713 0.4960619590702812 0.453361077767645
Ni 3.1863895368989796 3.906010759557723 8.859614666952494 0.03368247985410973 -1.3325914556405694 1.474932354635047
Ni 3.0852468180777435 7.169121585415026 9.205760399272425 -0.3900731163422766 -1.954161044198073 -0.5658136738431223
Ni 8.654148419166207 8.628772375536359 2.00527002011394 -0.21567878845668015 0.7232608323514189 1.7321182611965782
Ni 5.537668121529445 -0.2812514591673225 -0.06309533594714654 -0.7604824357070387 1.3176818855185888 0.6369180459891159
Ni 6.952720839354637 6.5665007918224685 10.28729516397625 -1.0761254579641983 0.06362477593949688 -0.4675656514028012
Ni 3.2263999022569267 0.37460434428845324 6.136617822761965 -1.7301997040176267 2.3237766640169464 2.4563813095602662
Ni 9.163263404073028 7.903618100267308 4.894137030571469 1.020782205307203 -2.2876652630063696 -2.163662243089132
Ni 3.3147619183149915 5.503005446885313 7.122655992011722 -1.1186530469137637 1.2015731807477628 0.5670256918733525
Ni 8.0984612577656 1.7769069440633942 1.194403477097188 0.27915212641997733 1.0906434490747152 0.9062171908744134
Ni 7.19654587800112 7.173931726629012 0.5587335841694662 0.014138239173595007 -0.6225761754451472 0.10541060162703136
Ni 1.2639364317095256 6.6798310553380995 10.706163002337673 -1.0873771196186177 -0.7533507097582638 0.20919112384980748
Ni 0.968108113002018 1.6376538193232613 5.387271039572172 2.0366363771851703 0.6041827605396239 0.9558937321639344
Ni 4.539633330338683 6.593313390150136 11.294752827175218 0.8624112494330567 0.011464548996173803 -0.3936402648682446
Ni 5.492532499733477 0.46091440415234414 10.967325865972601 -0.1585560753017592 1.375045253929406 2.5490796058269516
Ni 1.4255071287873784 5.221996811802396 3.26111169780363 0.9065794593098387 -1.4747999428222407 1.7457453650617094
Ni 1.4774084598053314 7.314018979903362 2.449462927583679 1.1479471678921906 3.0235728375875217 -0.4292001642507253
Ni 1.8437299077490088 2.8902461029674344 2.7913221660472156 -0.4635377611903307 -0.39599539536398254 -0.50868041916524
Ni 8.301608628226763 5.366773721058011 4.573071689656482 -0.19173050517119883 -0.7160452884395861 0.4935872722775435
Ni 2.9713975412519336 4.921163721889585 11.025383065573077 -1.1429543426632898 1.0338130703492323 -1.4845467377963595
Ni 8.337735661853188 0.6672286826150847 4.63321791783043 -1.0743539678860723 1.4827251112065885 -5.460907157818665
Ni 8.44874890166266 7.082844890692504 7.531946181181369 1.7690853253392305 0.43251251645340993 0.10983804127076567
Ni 5.68018361564785 3.203072107583322 5.148571257363711 -0.7525505824544717 -0.834187221590357 -0.597810538464693
P 1.1478906164102776 6.296363631968848 8.25187047054088 0.19257794077315865 -0.5189131526368418 0.39909126068048684
P 3.922535772630046 3.0770445541579425 11.25963323545623 0.9808889686566913 -0.9949127937396092 -0.7960389926554097
P 4.61603950407297 1.7514752918645973 8.15706620177021 -1.2833910826565187 0.6048373634044873 -0.44964994746464493
P 5.313491443911187 4.708711184224489 0.8574090616071015 0.24498679339217808 1.7289254652908932 0.5620290099897094
P 0.42626655845993067 3.7601494832076257 5.833350004338724 -0.8310224507091301 0.3753381241249471 -0.9860653706513082
P 4.600376423819338 5.56659384547713 8.9163965767051 -0.46458368595634186 0.5054318303209554 1.7193815303562
P 6.3511566085720865 7.611209708550091 12.142334927839759 -1.5141146812614634 -0.7547763864611969 -0.12614860550533114
P 6.717339035093395 1.9603503449273845 11.984236985892698 1.2444422121971472 -0.005358436098435932 0.15802694227116654
Ni 5.132114828193091 8.17055776740643 9.630922200829259 1.270438893371225 -1.166674826208681 -1.9403372509411037
Ni 2.2349639945813036 2.6089038164708303 12.497013795064731 -2.948491225961335 -0.7996951013507582 -0.7380449326391288
Ni 0.9598317043236195 8.409711686261298 9.086960106191295 -0.6901198268230759 0.22096034857059363 1.8048123464271952
Ni 1.6559305023174404 5.508427282357724 0.9253441966716721 1.4552284484482163 -0.26569394403254243 -0.9610091990136288
Ni 6.69605022128121 0.5276641498888441 2.718058803267963 -1.1661158683814175 0.08896299759396938 0.015548746367876447
Ni 8.823013106871047 4.089639522318206 1.8079291110604108 -0.21685943902834262 -1.6668029849285357 -0.18010963310281886
Ni 1.2557619720741982 8.162411112055578 6.834635116384486 2.113181717841077 -1.3930599453392718 -0.8310440479756849
Ni 8.459045755012827 0.901958013000672 9.249358444136988 0.31827660322526474 -0.10339948473427354 -0.3863517016266314
Ni 2.9364568237630615 1.0335593986535867 3.8537581677459163 0.6499260282130097 -0.1263460662281179 -0.8617221937858321
Ni 3.4945629579129007 5.448953917868044 4.829622749306671 -1.0494777734696827 -2.004319153109703 -1.6890743947322264
Ni 3.217715697406244 0.19314246209797 8.812504014149395 1.335135819328978 0.13013612939816943 -1.3702812568818594
Ni 4.906288429696048 9.319347389014698 4.819652132894329 2.7964148448466486 0.2063819365357865 -1.1061150623477531
Ni 3.5550650809281144 4.282703205610166 13.063262877327492 1.0527924396652129 1.7350508614623408 2.1980137239858077
Ni 1.0671933147721853 3.0364224945415694 7.760933926823095 -0.8858810504202227 -0.20348147505953987 0.2996175933631808
Ni 8.6961699611011 0.15595793885205406 6.5723193017533745 -0.286559474627642 -0.2709693334988688 4.682522645020226
Ni 6.249050007889089 2.0871749545076823 9.445016267170365 1.3148534149308582 0.2982914183525895 -0.1941977357647688
Ni 3.2049349946430734 0.6471234045120051 12.360484563393557 0.8724629772421039 -0.9135510055316653 0.6004952843857077
Ni 7.126071284954599 7.883969739239083 5.811401302175025 -1.6213836762534724 0.0215512438082145 -0.7317171906488882
Ni 5.762660391492273 4.225389307214627 10.370325245081702 -0.8658066482678508 0.1380281305517365 -0.9903629695853978
Ni 5.340832323643859 4.027561823182804 7.5426081974676285 0.6758283499010683 -1.281487952096535 -0.007335100208832529
Ni 8.271950724787931 7.838861921727588 11.537073654031664 3.048842410787588 1.0267096265352318 -0.4586878892971971
Ni 4.8471857889993535 2.43269879766488 2.8724939941403296 0.5129085983139747 -0.05752766190282351 0.8100882716596243
Ni 8.915656982738094 6.1737096650596355 2.307738001953816 -2.7439298875740548 1.5525241342775973 0.5159188458952082
Ni 3.5283080911693943 4.507732547952291 2.096235444008245 0.5068680485468496 -0.5990091867584845 0.4065454029656869
P 0.6240606773503847 0.7920356279520598 11.69769437138999 -0.1838207634058189 -0.7606678122449675 0.765061827547605
P 7.2513203184147095 8.464523199054186 8.690813929101944 -0.6964665949767102 -0.7812561779192804 0.28836181794370336
P 3.49166204423279 7.614240375557746 6.221723030298654 0.3037424141648317 -2.2764935626602667 1.054890716955138
P 3.4466376395747154 6.536082904608018 2.6272018160831063 -0.6973325425214314 0.1789035286098596 0.7997989739184742
P 6.388405081672293 5.075088240737116 5.851621126476008 -0.5020598285249289 1.4197410541748838 -0.2844907650240714
P 4.601711029474084 0.3582656199221051 1.8912168452019884 -0.7253367410438412 0.7610118258479475 0.45110544896424887
P 0.9156173311532183 2.839419870949139 0.6791548670354244 -0.06405954948407033 0.20806060978979007 -0.06777042267675426
P 8.978235158994025 5.785376491907452 13.816284460115254 -1.5647772406133376 -0.43267758127636446 -2.3391996834402358
