# total energy = -340892.63833919255 ev
CRYSTAL
PRIMVEC
9.06094961167847 0.00000000000000 0.00000000000000

0.00000000000000 9.06094961167847 0.00000000000000

0.00000000000000 0.00000000000000 13.26161565151815

PRIMCOORD
 96 1
Ni 6.321507308344965 1.9918322770444845 11.241181533569792 0.38174119943781354 -0.2840007127615302 0.12068783950107602
Ni 4.517961561178586 0.17705457692156545 5.741152589030931 0.8397184358212311 -1.1428335008147092 1.9595176805242964
Ni 2.861982436995596 1.556952007482422 4.847889759185062 -1.7859329930241885 0.34969805495933964 -0.16341468894564112
Ni 3.3030332131431734 4.403159331459838 4.820517536946911 -0.21245565353369217 -0.5606748099546602 0.31859567712758036
Ni 5.058456257702113 4.918210881886265 2.5435380863407815 -0.08999503840290952 -1.4040714659584272 -1.2812015312043676
Ni 7.334331178568486 6.392028678029339 2.6120479252439748 -0.2554720091942181 -0.42929658061927356 -0.3765043765189064
Ni 5.083092979296845 4.603868423054155 11.450834688380793 0.238194453060693 -0.12002372355451588 0.5232470041255053
Ni 5.679421246422339 7.781851472633915 12.497427811164597 0.5048926699880337 0.9550964330736197 -0.18310008318971047
Ni 1.7914765624792939 6.501285606675643 0.5011919221251008 0.909093226870628 0.46672232956589943 -0.9426906032100991
Ni 2.8041373356124475 1.706883538276118 0.35313328958577417 0.22062353405646523 -0.9467786572365438 -0.03779341669868975
Ni 0.6555850644352541 9.153099320835693 4.386106624567124 0.7201569966151147 0.21931509965768678 1.1750098284369377
Ni 8.39572173792322 2.6004924963915417 1.3227001870644395 0.9305357130151201 0.1646771005978325 0.9248196364669493
Ni 6.760546553711362 0.573984871840295 4.621288098400193 0.3214483160850271 0.7572752416236507 0.6250758019385493
Ni 0.8668284158773234 7.38350495131384 2.464857331663374 -1.0525150176341098 0.08931215340327199 0.8888445039239208
Ni 7.531252793286526 4.03529384413928 4.038970777432087 -0.29313867050705644 -0.852834404377899 -1.0127148549180367
Ni 7.5214035412183105 3.603684577334002 12.540223581581692 -0.07293191227303569 1.0869683142159732 -0.03497523052360428
Ni 8.21053405276207 8.736793997676427 6.644560057897567 -0.48798689537163054 1.0753656969800383 0.6560434539646571
Ni 6.902649424167489 0.9804853415837239 0.29267319818709064 -1.079296142382696 -0.5203154323010072 -0.007883773623450939
Ni 1.869899080096955 6.419555842503337 9.33810035043787 0.3556678993895294 0.4117570290736134 -0.12825125367063073
Ni 9.042238604134123 5.132819469959553 1.3577107897013987 -0.004819018655198152 -1.4158509750918584 -0.43054742230723914
Ni 6.560109290600988 1.4929363995137588 7.043336974317219 0.0038232304008321252 0.7417293234692516 -1.8359046969566253
Ni 3.448715158637888 4.297943586274825 0.6330921634838871 -0.6107750690451611 0.012089069954050149 0.004383988000308579
Ni 5.5718587153259485 5.116437273327231 4.797587898231342 1.3943488393540244 0.7864966003826132 0.7128895164194239
Ni 5.5629246191536765 2.880167762571407 8.98644218342496 -1.0453766068171157 0.12632678295440825 0.2905829939647383
P 0.22779951830411319 5.725958282873443 12.37251718622294 0.6168860670389053 -1.64275005774439 -1.0745426868581107
P 4.070015402488313 6.127648294546021 12.918404959867901 0.2005288201891192 -0.045177367867586714 -1.5625907744849798
P 2.3062744063207066 8.576623593987529 1.2929675874907143 0.36276183012183333 0.5728340710250135 -0.3922359283215503
P 6.407441353068929 7.685841652105118 5.7786033053587555 -1.1836716178769937 0.2864129217474487 0.22717881867647968
P 4.7167769143347655 1.0311179271929083 12.670439392434977 1.1514940047031845 -0.5585685622449348 0.2449356284392685
P 3.986591240766093 6.222761081077805 8.338572517458966 0.24246402697032438 -0.2442224044223278 0.07253801926872669
P 4.741268660738061 1.0486055596599315 3.819994811716775 -0.159481415329506 0.7252819765465057 -1.268939426007563
P 0.1228121090456131 5.472478221596254 3.48995335184199 0.7234739768034895 1.153868161362316 1.6351241657680162
Ni 1.2644011321131057 1.2505469403814586 2.3391765260172117 0.7875427822589405 0.6427616492540866 1.5468998461122843
Ni 1.8520037049040168 6.499908342356997 4.940111196742635 -0.42012751252549585 0.1919135677162824 -0.7243584362909719
Ni 6.067383919655776 5.72407360538477 9.25525518338645 -0.45383621763185067 -0.7686379749346375 -0.33870864582737154
Ni 8.77458721789402 2.5284760700454796 10.288984476215107 -0.18104962841858496 -2.2030106629797674 0.508794319035285
Ni 2.479139200209758 5.219895194316077 7.1163020820722425 -1.4318036417663729 -0.17471494444980876 -0.24567379215687365
Ni 0.7688514632197228 9.042510432618066 9.110185758075554 -1.7514694120296803 -0.5036107179518166 -0.5912789079937624
Ni 1.4278515995082521 1.0086830163181157 11.458075293098098 0.37840930685110313 0.8387714985269297 0.5805504658326647
Ni 3.976171148881597 7.024129573641781 1.6244017152982357 0.44522045093838164 0.4357505637747334 -0.24355057516628373
Ni 5.619174993431024 7.75397093113079 8.001090205883704 0.028917711475614713 0.5505420923960326 -0.42374196934963154
Ni 4.995555146517617 2.637497414005699 5.390342526887927 0.6139778922531748 0.39523409171792573 -0.6411737359416764
Ni 0.8462609666872217 7.346309753760923 7.14079654676038 1.0184206470535624 -0.5956726661860838 -0.27722508460059353
Ni 4.802339460130672 4.546150174963514 6.9600541634066495 0.0009641636854822104 0.25966984932564957 1.459820695804589
Ni 8.215780342502176 7.211075082999098 8.932506881735865 -0.013231668198925598 -0.24728484539773546 0.5911205280390271
Ni 4.820506663807553 0.20121469257445188 10.433217575890403 -1.0853071244634664 -0.09377867381505783 -0.10604206456344319
Ni 8.188044776190488 7.4040642456494234 4.689082122295669 0.5366812752535401 -1.437012696771138 -0.6564178065849404
Ni 7.34437071057546 6.044994313528307 6.931992402914229 -0.9653476784879826 -0.42250681139094975 0.05658740947674125
Ni 2.2888773833483307 5.28925676246896 2.7225833538597586 -0.43612671616722953 -0.40061283953133586 -0.5124177747204852
Ni 2.3774481643665446 5.220946264453992 11.742205828129794 0.028972990193582362 0.15864297858861062 -1.1349515269634711
Ni 1.0076681899780606 3.4503914342888726 3.9464847601501423 0.4560010864936534 -0.5173645772027994 -0.7767798873154816
Ni 3.427530658789235 2.843797111419785 2.8450538651105495 0.4487680590803239 -0.03779881601532845 -0.5636830006533647
Ni 1.239220753550485 3.445163266447695 8.495775460198148 0.8093953593576577 -0.9272110195172613 -1.4866077340904462
Ni 3.5611252976979353 2.463490940484085 7.447272289267168 0.02913316992053047 1.0186312204024714 -0.8570785243662336
Ni 4.172820935115693 6.8009221445264165 5.946879634438842 0.14004618942302977 0.4755869790453809 0.3093186227010286
Ni 0.7461003252086094 7.660688456390892 11.340179655232072 1.7899061187393237 -1.83187577830289 -0.2300782517114618
P 0.1717539214846698 5.345643050988278 7.894692912888486 0.6996506491316467 0.7869447436636253 0.4816774082138349
P 8.608083210529243 1.4297272160474614 8.105989723932396 0.4646317655854578 -0.20435436458279643 -0.7368162024383504
P 1.9235761447263053 3.2826279549484916 10.704072913861255 0.30655545813359464 -0.5924631581098505 -0.7906599877316834
P 4.005773270783029 6.257845077405429 3.7496691585408404 -1.6131705443150606 0.7424700582900181 0.7482519550791178
P 7.033525778236756 3.9343005014048535 10.302843198421487 -0.7411418263968977 0.5099826829164313 0.14379948581787494
P 6.5391331925900245 7.777031047518652 10.264423866595878 -0.9579192472343954 -0.5178757125112629 -0.2313884858824531
P 2.3683690930028365 8.491006682494834 5.785194239999435 -0.3400882997837175 -0.29300188781887604 -0.2654106084641687
P 6.893851242237189 4.199858808318593 1.6184477654049296 0.4577211545085536 -0.21109759684390095 -0.1271035132194327
Ni 5.3339634871281785 2.9828101981084223 0.345827446032323 0.04159504983296707 -0.1131629918789406 -0.09813232279806325
Ni 1.5284553214156922 1.1051187014717576 6.932112007447165 -0.6288254987889687 0.14018991408974565 0.4501901362388311
Ni 6.815872711143302 0.646394543393129 9.161481605185559 1.3365967201452205 -0.7070914216804081 1.20081959041119
Ni 2.663185205738347 1.4487823927718915 9.309548392579405 0.6511174774179496 0.6591187504558713 0.8460847443588912
Ni 6.19285088689457 2.333665656552733 2.598017044997764 0.2424776538170792 -0.04809736972785909 0.7563380745213619
Ni 4.258954320727882 6.8651370933833045 10.669420218728154 -0.4242338213843855 -0.5207954572612192 -0.8998729938239405
Ni 8.340739896570941 7.230057772127809 0.13209233348743962 -0.9609593196122999 0.5210595095558833 1.3866555844748247
Ni 7.754306186260988 3.3683626587842292 8.119172499308704 0.6776846863835168 1.5915758488634202 0.29194362175769073
Ni 3.3288025534210046 8.297890666552002 12.404477873270055 -1.2940393063989843 0.5029592004107467 0.8500200748575555
Ni 0.1513704095687032 4.7335849755919295 10.061958762995285 -0.28314839206356396 2.4047805546648395 1.348266443173665
Ni 8.760850818505414 2.1344788044684986 5.573910114284774 -0.32880115690567246 0.3262066567056188 1.1179488217578875
Ni 3.9043450024742947 2.4779793986782668 11.391939422954675 -1.022013506611143 0.8905360326937308 -0.7816546989092796
Ni 0.9144400809349505 3.509758775182104 12.783335198386336 0.23993046191519324 -0.04472228260803911 -1.2297105624139273
Ni 3.1018076474293634 8.37518962643603 8.014431547875645 0.41949784936129686 -0.34836750907337427 -0.2554326713158504
Ni 5.5714237897516385 7.806325097138283 3.553621925446152 -0.10872192538845146 0.0003560977878380964 0.12525720403931334
Ni 2.966627342364327 8.414641000405679 3.428671432326851 0.47479816459549845 0.23073876811359614 0.6478030683327359
Ni 3.5499712689067926 4.341427082756299 9.483486908980034 -0.10327170090715763 -0.12271155479932416 -0.07270976895990058
Ni 7.292605506283178 5.9675503784528425 11.333124799978796 0.7060478109072421 0.04456904485962647 0.4715050956665235
Ni 0.2800014603605973 0.26837535610233954 0.5749371776290432 0.6480720057234064 -1.0694459890614938 -1.0155127293781478
Ni 4.844645033181724 0.4360110760552673 1.7376563348484002 -0.5765184618551361 -0.2803428042939688 -0.9492147774818621
Ni 6.1795856568781335 5.789910464195853 0.4127389334499292 -0.26732299499553314 -0.1429312242803087 -0.21878596662709418
Ni 7.958476560550849 8.709357442697076 11.612799160063716 -1.5851555471593732 1.8307203245422083 -0.4338145230942852
Ni 8.946283149302115 4.799421834403013 5.715610678584666 1.0843067082234101 0.0384935280895079 0.8131134316391931
Ni 8.087939406503612 8.989567304895363 2.629446760406243 -0.8051633235541811 -0.40734964403453716 -0.6225743756729342
P 8.28770615935359 1.8699353238948142 3.499767266207292 0.2690386921350592 0.15233272009986668 0.11324346740788883
P 1.6621133869706455 3.198750745753033 1.4905923318872205 0.28398657169414315 1.029671023156401 1.323566883544456
P 4.799702723836421 0.8485198613887911 8.153453695513749 -0.22890994243497353 0.05615289304248394 0.4902800622811815
P 8.638174623701774 1.6269206592494443 12.40614871235136 -0.9462626368320736 1.0884199590608352 -0.5838797873162138
P 6.572314389530045 8.09449953391611 1.2582949582687912 -0.30126335649671987 -1.1081747730902594 0.9841154460137889
P 1.9103834023055872 3.217597520639773 6.085940744159644 -0.5588920070226245 -0.14965697303991646 -0.01733412040307337
P 6.691728642526366 3.781061724056513 6.320963651377079 0.5489588070693127 -0.06828181509553402 -1.5387185958530725
P 2.4321762991338094 8.531753772237945 10.219255033513956 1.9650915750676479 -1.2175921818838384 1.3883370859423056
