# total energy = -340874.5719712267 ev
CRYSTAL
PRIMVEC
9.23849020674762 0.00000000000000 0.00000000000000
0.00000000000000 9.23849020674762 0.00000000000000
0.00000000000000 0.00000000000000 13.52146425847477
PRIMCOORD
 96 1
Ni 3.250950725090404 9.086877146229371 6.88569696433715 -0.0668291418094075 0.40429980146461986 -0.17025922267130034
Ni 5.457074422984682 6.5444169811871 5.234794505749224 -0.3973711926655866 -0.1511978351644751 0.9386557710190931
Ni 5.9963343231081625 4.448037306070688 9.549263571015311 -0.05187123494799454 0.3292050772123104 -0.45426173520504354
Ni 2.5927452661433668 3.4633343718317433 11.892262889136234 0.26081424734273795 0.634284722131327 -1.430582367764762
Ni 3.7736090586736184 1.1574442203657693 12.655075770417962 1.1096025066757214 1.1235057470203749 -0.24655748031340766
Ni 6.906685889781129 9.188999414752523 1.525573103170422 0.1893800026611513 -1.773366469213088 -0.833831380912835
Ni 8.404060349907112 0.7334132345365464 4.300690781271569 0.13231102556230118 1.4952502402567927 -0.2811935823300383
Ni 3.8902542334857526 2.6683623068401285 10.043865534300176 1.8760645570049626 0.2811683855190577 1.249792677875783
Ni 4.233344036827921 2.5103933662324396 7.776072144070762 -0.34297641996478995 -1.0112117880099487 -0.4767804851328499
Ni 6.739173588997538 7.0285415729564855 9.811607124009548 -0.13784403956538843 -1.028619699073751 1.5590976737300568
Ni 2.277417125268366 1.8157697796828811 4.8285688617080105 -0.28387884247168527 0.125308626102539 0.10288063611632606
Ni 5.47065500329308 8.87499237794834 5.3573800296350305 -0.19343643211871203 0.09918956041798402 0.5590825257668758
Ni 2.7844993647019485 1.3546675050077333 1.548748779198754 0.14527118526739496 0.4270010997168775 -0.8055153075769611
Ni 7.448892868216433 3.7574139856936033 2.313265238037535 -0.8487196108785771 0.8055849844726319 0.4562057463052917
Ni 0.6610897155268212 4.685364875827453 0.19489610900952473 0.5438173720776892 0.9613311011294219 -0.37890450131996684
Ni 5.435169963181136 6.9656644099776015 7.899928884181356 -0.3683598930349011 -1.0285649345764156 -1.4094612695154307
Ni 0.6025241558336039 8.564662260166429 8.23879023064791 1.273080701869446 1.2752702533215972 0.025046401445666545
Ni 4.786036701419709 3.4977847010630474 12.972248837747102 -0.3781511680937101 0.24735837894814816 -0.2743079109537986
Ni 0.34368938134353927 2.9184944237448116 10.971018218897532 0.4472133129986943 0.6415038655875854 -0.6951777009619575
Ni 7.242929972029064 6.373597300981464 3.5177980419624237 0.18986799804116333 -0.1925208622829781 0.9187806293617209
Ni 8.120919108212018 6.276352955181328 1.2929414578835616 0.5235907606181692 0.14280986821109598 -0.35112373166227273
Ni 2.423209736048525 0.8114747796888201 9.897684906939778 1.1016236022353025 0.4733478053022171 -0.07693203457136429
Ni 0.22344766237218114 6.697526476051784 6.979604367547222 -0.7637346240957492 0.5106424279876174 -1.177859896291223
Ni 0.7362429840252963 7.5855763278509585 0.28621396347099615 0.429135629561377 -2.193456957853061 0.8712257624008931
P 5.046617550520853 1.2997169664537516 1.1777171628343062 -1.30390385789789 -0.14492588611283427 -0.3326159026660723
P 7.625708328435777 7.744690841219356 7.8384328754583255 -0.1262874450760406 -1.2902261033004812 -1.402535746040191
P 5.255656863880125 1.0861138390316583 10.83798026741926 -1.3576268013426425 0.4699035555073584 -0.07555752282134084
P 7.765163335072016 2.9678279603753195 4.339537707896592 -0.35682618136368865 -0.4761690768010961 0.4186568415172403
P 1.3202079372864233 0.9253548744422441 6.781338981232614 -0.7567607638810774 0.176898839475005 0.3740965384083622
P 1.126606140726699 6.004519625253225 2.032884457156146 -1.3134146256018027 0.6563838680232115 0.30554295770868023
P 3.537020568117311 7.578444213566548 4.500159942833921 -2.5699513070696383 1.6537009003289391 2.5048440330473443
P 3.309920006796871 7.735581690073722 8.704874822983138 -0.04911706924162508 -0.07929590681785054 -0.4714032799813366
Ni 3.5419446832903563 5.821385037869973 12.19338592777845 1.68080315586237 -0.12097348906229488 0.9265857272284365
Ni 3.868996467982607 5.649733893563823 1.0750960158508447 0.4005485619523037 -0.04609293770332062 0.2606401836587189
Ni 6.6747166442276775 2.858656723977808 11.367832613169924 -0.9444772627968766 1.3778719247449238 0.2903258836486097
Ni 7.839440794717949 8.953029903026598 9.46706687773648 0.4080734095744391 2.352914719033483 1.263295083237592
Ni 4.881932227679011 3.4328381163228845 1.968292630432202 -0.7171279799808037 0.38595086664378686 -0.29898098822044633
Ni 8.083955909699158 0.677837250209178 6.870363842474667 -0.8053654122626582 -0.49653889870669965 -0.6147795622188638
Ni 6.004408763373156 6.823502525769688 13.17235360742185 0.12171782342748716 0.9693940806432145 -0.06037207333015409
Ni 6.2810276311242195 1.689211705094617 2.8899964536241884 0.3148413522914707 0.2539157204506918 2.2322032253833233
Ni 0.11036854470225246 0.5771635769189208 0.786301742121253 -0.48738320034936067 0.11945216732176203 0.9566846034963459
Ni 7.239862793347167 3.2764120035461497 6.744424746716786 -1.1240207389835803 -0.7777967586157701 -0.3169727968121767
Ni 5.035568316474021 1.9246823383602332 5.352227723758845 0.6181662193029096 0.13021146272079512 0.4176813649778484
Ni 4.480538313910787 8.52722789866328 0.8750263524381207 0.40343153992705355 -0.07178442893215378 -0.12012888167381247
Ni 6.65258122217399 8.987775863938085 11.578132056565975 -0.8918095000895158 -2.077021465870436 0.740996301957969
Ni 4.492991798438489 6.248535861774126 10.09269095398037 -1.000732742855496 0.3502678114198806 -0.5895734952668814
Ni 9.381778985701738 4.34500042703697 3.670509357907861 -0.17609254152362577 0.8945567238173496 -0.07581077648272751
Ni 1.7829823786526051 5.996953301938546 8.367081445961245 0.768169005718019 0.3233285638268754 1.0768523088278936
Ni 3.609006882241828 4.746366625335177 8.105360567193395 0.7072495445248271 0.041338967958103 2.2106866914677865
Ni 1.308779925149356 2.218133734901705 13.223802758263666 -0.8307432289058144 -0.7472217140423906 -0.5665181561093147
Ni 3.2351251917106176 6.658161270137439 6.438082885070343 0.2292264452341278 -0.0968503707618461 0.27779406973018606
Ni 2.4406335281993 7.927252642222253 2.28714248369738 -0.7185677977511238 0.024342176289790338 0.5646438219047372
Ni 3.8325321479300567 0.5816266914406808 3.593004893702932 0.57232756370224 -1.1471362419551212 -0.29874521806055643
Ni 0.23912815145887806 2.9541827106368816 1.6375981091306988 0.37015580859305924 -1.3476830598663694 1.0108150667921625
Ni 7.302148692965686 5.709497685410782 6.268997269438779 0.38139487184198834 -0.20929139687309764 0.9030501060003414
Ni 1.8143655292020129 -0.027920564495266215 12.512857531421014 -0.6261327824481538 -0.06992269313306669 -0.6952764313233509
P 5.38566089524052 4.854706397632175 6.969043849621692 1.9226969121515207 0.3291770521878525 -0.308443676295243
P 1.7438666119684159 3.7898318471236507 6.8505278805834005 -0.1280861888476762 0.0641330830344831 0.8504260520467224
P 8.042743005783672 8.235578007672922 13.330040774084363 -2.2481265814817992 0.08395037487072639 0.3874464773527069
P 2.8672485196831206 7.405998559119906 13.68182861576691 0.33072999849726914 -0.08943608057564598 -2.0202422520978627
P 6.7481441627930865 8.518617625977955 3.6147606138173862 0.05322646342430833 0.9693089771285758 -0.10731964572428614
P 2.697491265828142 4.803719171290644 10.185231984518598 0.22207055091563688 -0.1976460993246854 -0.4103439507761707
P 8.967284893105413 6.309334364501724 4.935739965019286 1.2006761228547902 -1.2237985678048666 -1.2642821297412097
P 8.115727076828806 3.949011029922088 9.64734861940597 0.005150690963004033 -0.4424490588408316 0.1507304086097533
Ni 1.8735657731586224 7.892608304700828 10.329316398496701 -0.6021983831197435 -1.469421709229463 -0.29118540343542754
Ni 5.842522703003045 4.205859529060924 4.4223302837807905 0.9763250034350927 -0.9889501483982709 0.25210386405293356
Ni 1.6214843348627341 5.2288929583335735 5.278144272403031 0.2486030499885267 0.38511114435131094 -0.18005229750232218
Ni 5.033360317362655 -0.08429013511412543 8.605289443815554 0.10266054968571997 0.7204891831435528 1.860505269114125
Ni 6.7573826527988 1.999689638716618 0.24160868602541202 0.8222493325021903 0.7932701716610209 -0.11771153048157146
Ni 3.852274801072266 8.216001647350817 11.571087707936618 1.260521634257513 0.17352683767897856 0.4440827377895126
Ni 1.295421068601095 8.632334199458278 5.174299025493813 0.09598982253376372 -0.475495190662523 -0.37611511150028776
Ni 6.747534422452709 4.664947812914828 0.2715109066269037 -0.5548682305752122 -0.9557541212622765 -0.6081653993364559
Ni 3.749709085028839 3.9889952146668146 5.980543895990398 -0.8921221462339279 -0.4569526517736453 -2.905591084163699
Ni 8.98964203891924 4.575103497609267 7.818705003900126 0.8179944138805783 -1.080961703010577 -0.19502974474776089
Ni 8.79687170646003 1.8764758975104219 8.582425104900414 1.4130297035929793 1.6690100198821836 1.4255350351488418
Ni 1.429259073313861 5.877139325054452 11.564557019351579 -1.84201698050195 0.03681331217360757 -0.2822909291592752
Ni 1.931481867004438 2.887887306355884 8.87876075802167 -1.0628585656519631 1.2747596322337658 -0.7461917301159795
Ni 0.227092246679435 2.5789983930148654 5.704475642243676 -0.49222510182269424 0.5304370941160413 0.6452828730140435
Ni 8.26817140041308 5.23577563338783 11.879025056807048 -0.5153953692915705 0.12360707003040003 -0.9053648701764472
Ni 7.875055173689973 8.02540236004295 5.532685920587441 -0.7083836581292704 -0.5752977020741576 -0.13402672270182725
Ni 8.950923527305296 7.728745207469495 11.457885718349614 -0.3041535335603213 0.5999756644368118 0.12328722479713607
Ni 8.8736343199175 8.1668159265604 2.8119506139049246 1.1145752772999642 -0.30153563632150004 -0.04435718595913651
Ni 3.9127407181596583 5.408332149714539 3.879402703125042 -1.7306915560523806 -2.030007559014743 0.6357150268199503
Ni 8.241481402786574 1.2711515553560864 11.952677070679595 1.2649696427265376 -1.4250850920956166 1.0442885159592596
Ni 6.419032194829562 2.092591894214069 9.174746272371708 -0.15993264393431167 -0.3902155554574118 -0.31557231692022425
Ni 2.3994206242838136 4.280451097367052 2.5391555571672266 -0.6694471289650729 -1.030531057163851 -0.12412797553087654
Ni 4.7374330054996525 7.17647751341797 2.9907311009484827 3.042102263850277 3.624575914847583 -3.397840868576742
Ni 9.054856539869569 6.523214646623988 9.437454745721169 -0.9008145318016035 -0.6978537051322239 0.17260046920996727
P 5.826826508483339 5.180935956713917 11.703341311613405 -0.2495872682786669 -0.015391651964721878 -0.2606029026628802
P 1.091499878704989 1.1396046961647373 2.878665445632181 -1.0784870162178393 -0.7518407008716406 0.5239774545336265
P 3.931300844581136 2.8555433528458822 3.833010701712353 -0.5099515725681798 1.1890364817333328 -0.2760675739573826
P 5.874543309362847 1.321214932697046 7.2549954399765255 1.3980563701125988 -0.5997671479704316 -1.6352275241150998
P 5.7626651953936605 5.481815099219982 2.257422261349001 0.9934143548172116 -1.5771889840141289 -1.2249249680998258
P 0.47533232083094784 0.5732270563274865 10.600056815057128 0.0643246302199989 -0.2900772579729134 -0.9647419265831835
P 2.7042815559823414 3.619751246118472 0.47580995076424326 1.1308956117265425 0.4318895381574304 0.5787380952142743
P 8.344388942960212 3.2391162193930856 12.831666735330167 0.9607189214667196 0.48696102521027756 1.5669562505425272
