# total energy = -381165.5233195444 ev
CRYSTAL
PRIMVEC
9.26534856678775 0.00000000000000 0.00000000000000

0.00000000000000 9.26534856678775 0.00000000000000

0.00000000000000 0.00000000000000 13.56077418328358

PRIMCOORD
 96 1
Ni 8.40645059871374 4.081691724460663 5.961452092566541 -0.42820154778288194 0.19337986784916372 -0.8318793993927867
Ni 7.64598786385203 2.286595330383075 4.444285574686942 2.638114080088805 -1.0846697479897836 -1.194053218221634
Ni 2.068183272669552 1.0255165563952748 2.1671742549209108 0.4132014748296238 -0.6025979325510074 0.5914791969300265
Ni 9.201371164256168 9.215973353326566 11.070717280766154 -0.004206324771863723 1.1204494766925543 -1.1112901787907894
Ni 2.8552653534698758 4.683327857136601 3.616658329310435 0.44656308100920505 -1.1279882082717605 0.693589016318599
Ni 9.186018481965782 7.280849748956506 9.255445590558619 0.9565874157968494 -1.5207476131969486 1.447671976257197
Ni 9.02640432516644 4.860750013550983 1.2112997632012361 -0.18529683373071315 -1.3755317066475214 -0.25667142881895794
Ni 1.7866649270382087 8.023615668383911 3.4927129842270306 0.5345637146899052 0.8357177993022703 0.7406857126960857
Ni 3.434136525139487 5.876454565996035 1.0861851311503918 0.4557953982407505 1.22092664557371 -0.6744965184635222
Ni 7.109987459205729 7.01165431669041 10.669385935435539 0.525429870709437 -1.0578886232411973 0.5326366728705213
Ni 0.7799069950032951 2.5833459087756725 5.0812764237682275 -0.026422712967902884 -2.449430846384362 0.8904236754855827
Ni 5.24730961393557 1.3648784720561236 1.1299147959699105 1.4824716004348855 0.6699009286730399 0.5871679711491823
Ni 0.9125812248095571 0.9073036823638088 9.178894355584925 0.9652263224187698 -1.424425604134747 -2.3494085056524376
Ni 6.520841016166147 3.8470189803140507 1.200227671869303 0.9467791714571758 0.4282863941872043 -0.9996122560978075
Ni 0.04412714826566081 8.717442017589333 2.0286647086955263 0.5196808840408017 0.6035749517522959 -3.2733917622610207
Ni 8.189141117459213 4.8975427120272235 9.842030164767003 -1.047384381275764 -0.19242675990727504 -0.5241967696332844
Ni 5.367824000508335 1.3858922822158093 9.998087354317533 -0.8825548142604672 -1.1908210844375815 -0.10445260858913623
Ni 6.233318724774893 3.278571325588728 9.610126833255633 -0.284883886697432 1.9374812695495471 0.6780590390038
Ni 4.053071063268746 9.282303982485821 3.0970094115114937 0.9981012187699198 0.02602727730169711 -1.2639969944006233
Ni 3.9781699868441875 6.763111345996597 3.3016818840901845 -0.29677189638426954 -0.2286536034497933 -2.150061107365929
Ni 7.795771486004357 1.4706053625905913 9.391229271286218 0.009111475382964952 -0.4407313048187764 -2.7644771155977876
Ni 3.408063834756174 4.959018298627538 11.357270416715297 -0.4392135826226694 0.019405915330437545 3.2886731139001237
Ni 3.2683979730511026 3.065329332279573 10.161928363054638 0.17723565398913346 -0.8851847956841464 -1.388025468239158
Ni 0.2683995388389722 2.709299054856257 10.282985699043346 1.1916196690794767 1.660401452277566 -0.36983493491853076
P 7.738808124072371 8.648637540408636 8.933498823740868 -1.157083325865504 0.983999489261215 -0.2278043680756206
Ni 8.774257133947003 3.0158709025474733 12.293099327182556 -0.750659536079346 -0.8756251770201694 2.2850951882863484
P 3.767216534588578 2.6609246708863634 2.901273367459706 -0.6867771356030882 -0.6421528120254941 -0.4833113442728321
Ni 7.711512407700927 5.9413861275476565 13.106243906482959 0.40887353687823136 1.3920351036191831 0.6298135737338508
P 6.819481725631309 2.3175323286737233 13.247533983761661 -0.27116113779470075 0.11613030203738064 0.0827103318160382
P 9.08632333323641 7.459115052074826 12.031688640637874 -0.32040959040786754 -2.272953924938124 0.5203478282008392
P 5.917370344508015 7.442029749634588 5.807238707346602 -2.950885951445757 1.7608390261700384 0.7059508803180616
Ni 7.320097764757399 1.1750870755345186 11.467478956268389 -1.9872706822678485 0.5677093482039385 1.5091570801458718
Ni 0.19769751830699292 2.900137435746488 7.753331557681412 0.8557978578815971 -0.5046479009670793 0.4231673277930841
Ni 3.3340707624743176 7.453120371663311 12.733037526205136 0.013448412195422 -0.15358330467751616 -0.2945597192242992
Ni 0.08413584916977832 0.7352517218791236 3.8139815275422735 -0.3502590696691323 0.019285844812805493 0.31569521565133374
Ni 4.473495512036777 2.615404014222106 12.208466855338811 1.3476730325640403 0.028320444211248005 -0.6870499296485006
Ni 7.4842148808766735 6.305653299694058 5.5204965582901995 2.027933192984217 -1.387096271556669 -0.4548590024694102
Ni 1.8066873449196375 6.645061542096882 10.747414993478223 0.18909795264435822 1.7211453071248421 -0.014269622545136716
Ni 1.759832478086511 4.348061225466307 5.568595761412764 1.3528481490070765 1.5361744892749802 -0.6084417929262941
Ni 5.679241625410096 0.6575488040999404 7.349437416984763 0.907739798166527 -0.652433882236528 0.6216264099373682
Ni 6.349302355982541 3.9739357226277074 5.086551186609458 -0.1142593102669129 1.7880312703141141 0.21274875929407877
Ni 3.6661037875547824 8.044657274588783 5.014570547998979 1.0397438340113707 0.1239235728295543 1.8095915129833933
Ni 9.14822512586289 3.494982068048947 3.2420009954739664 1.1321490245176695 1.7219048109986859 1.2110443534629918
Ni 1.8223365183586624 3.409620413286521 1.913750298692653 -0.06520549016305544 -1.0206323099929004 0.9652990846382344
Ni 4.80399975463208 8.172954553813282 1.0353721074829545 -1.1985904439703552 -0.46844368313238033 -0.556417577340203
Ni 4.84677786817144 5.407303650019103 7.59625703287712 0.760149220737336 -0.45461911854446213 0.6946344268639778
Ni 3.45484457880214 0.9135123923232468 13.471123518158265 -1.9847301752341817 -0.09235608243591836 0.5068644490024239
Ni 6.824031011693217 6.887341137275726 7.933689903002146 0.5000001177824227 -0.3887618537300208 -0.5745407693034751
Ni 3.1896981037846253 3.378766803131427 7.3907979322197 -1.573502022080845 0.6155701764409591 0.10791665587833672
Ni 4.296082620970789 3.170722670271823 5.088843433802362 -2.9882692771902213 1.1408833190668737 -0.9361322332662909
Ni 2.977104684863115 1.141416799467368 4.7336183151545645 -1.7624433945426807 0.6451982837200372 0.36095485882008155
Ni 0.04256593706111627 0.5499151048657976 6.249522892582774 0.6574069099710872 1.4299411346363375 0.9731754020625177
Ni 7.564415736583127 2.0239504994321895 6.474727377204615 -1.2139586988963094 -0.5538950680286654 3.707207056686254
Ni 5.941691884044689 2.5094547553261606 3.2709403846506695 -2.0570763902070768 0.3240613282278419 -2.7891489073128546
Ni 2.0093761064069753 3.0563048829429174 12.244171801913486 0.3530016654112759 -0.1812514600167459 0.01472805023879399
Ni 6.869533137660684 4.336025537901302 11.78382481998141 -1.2796138750022736 -0.7394991485871523 -0.2774598263192189
P 7.049642245109594 0.6446653371567999 3.0007961807089334 0.5041696757790801 -1.5761924244288144 -0.12794606372538608
Ni 7.525186251479022 5.060779620048979 3.206838071780394 -0.6965095323995036 0.876724066511303 0.02626536145443218
P 5.035892894260215 5.7619626558799695 10.385206581745173 1.8938527342263194 0.4402438236593966 -0.5902733495473834
Ni 1.4945933495850474 5.901109658074926 2.3496210097698604 -1.145622376413756 0.6613761790314803 1.304341973876573
P 5.868551223815166 6.14391737811228 1.5434597235547114 0.5517309704978111 0.6968198645510709 -0.7528462593180196
P 0.894464689092964 4.739827951648842 9.215685200991485 1.4010347360146322 -0.6153776008141789 0.730252947398536
P 3.3647205349647233 8.600077849470843 9.986574232402 0.26252788759973494 0.4111325081157371 0.1500161561515481
Ni 8.563433396568923 2.339435612279322 1.5672725954645033 -1.7778728417238736 -1.1992728147493605 -0.893117934488294
Ni 7.039431831178389 8.165727582065243 1.3389707048742396 1.2946170332793254 -0.166655564480442 1.0213789583509378
Ni 4.459421447824889 5.539547967659841 5.307062772269269 0.412961848014992 0.8271022897191176 -0.25717176549414417
Ni 0.5756116221042773 4.932519402218058 11.65583792992814 -0.06648127155168551 0.8719359010940402 0.6069410400110515
Ni 8.714579024935302 7.400752622535205 3.6701147568749444 -0.3120463060448368 -1.201851374109814 1.302004583992648
Ni 1.5689570358027 8.898737089632794 12.718473325063155 -0.9138294560040326 -0.16523502998383155 0.7999406417026611
Ni 1.9930042357931461 8.768123473309563 6.463146618245801 1.358168018558093 -2.1820129776821777 -0.4112304671461821
Ni 0.5350460737616249 5.216872944458248 7.159980499540215 -0.19739541676646005 1.9013153611519513 2.3042779318623863
Ni 5.276903136708955 1.2030406316420015 5.058195514381635 1.2379386067506744 -1.9587072688078588 0.6787694348072633
Ni 2.167378092585599 7.599818632800129 8.470710422506729 -0.09733965169343882 0.33073436937264333 1.0064565327131507
Ni 5.294210807510671 6.1157970457336885 12.642574370616463 0.14999507310562551 -0.2169147177463103 0.5207738599946644
Ni 5.581130851256255 8.207745937036218 9.504529657598694 -1.6012902479377067 0.5737244440497667 0.027824221301119823
Ni 4.622009781459 0.11882901969972841 11.765382144001315 0.5765138338694458 -1.2044078219830805 -0.5348043699458015
Ni 5.3510907813071045 2.997182694834913 7.08120558095174 1.4198896639376062 -0.20259984378553497 1.2242780785444465
Ni 3.0402387688261205 5.204772399454479 9.168439336456094 -0.6220244167067351 0.7424492323544116 -1.7292975039183316
Ni 0.9803572483184196 1.698421748924961 0.28441376700475735 0.7499640526742181 -0.4845477877830946 -0.9246751404692849
Ni 2.3930078566987665 1.0632357897110067 11.019512332861611 0.15949761327942208 -0.7585319968488872 -0.22758145343153707
Ni 5.0445096682674935 4.698838050349702 2.84492800426566 0.07316999642577075 -0.20533189800471732 1.0588720702003893
Ni 4.128518795248605 3.7907134581181032 0.6628791590315396 -0.17009415784834578 -1.5881264568622389 0.13598564620041098
Ni 6.731627692150648 8.266395592376082 12.637474722859897 -0.9457162774103003 -0.37306552604068655 -0.7249297354134097
Ni 4.32438826031728 7.896133739818165 7.314478330955879 0.7124205472028053 -0.05992907225546454 0.3957411132613314
Ni 2.650288050928992 6.212341976008787 6.689136804411532 0.22196744967886936 0.2526178275748746 -0.36472743848863637
Ni 9.28721461713513 7.531338442813252 6.9920432802777155 -0.47182648356168416 0.07860556561904528 -1.2194672874193644
Ni 6.143741336492777 7.722297273232617 3.5247025260953424 0.3851006028283497 0.2788572208873778 0.6489004151619728
Ni 3.615663230892821 1.2173926563057376 8.424929409552574 -0.8593254114188813 -0.8594573090110552 0.18150677056066158
P 1.881338256937533 4.505535086786421 0.22565385401899443 -0.37628634697082936 1.8795162629989888 -1.6454707991096629
Ni 7.445393071101945 9.09274421967409 5.376317545381961 -1.5388736333736983 -1.1559291576564028 -1.1547623910418112
P 2.0609192395279328 1.479555689140087 6.802029515394632 -0.24436844308188882 2.5335802246397723 0.7020533450358684
Ni 0.7884209236433899 6.768031245994301 0.31940528175302396 0.49594625942802334 0.5432825826201417 -1.17380295261303
P 1.0834249838635444 6.700060650169145 5.131627106550758 -0.2739993785744443 -0.32561787408168436 0.4029422589954609
P 7.0695442134618895 4.194034073749107 7.9462203601714405 0.27745545544384476 0.7946323421158703 -1.736262622382255
P 2.533155516520374 7.991112826214522 1.4587596146676822 -0.10076127578047807 0.45197551027402805 -1.051299914280086
Ni 8.21889215115531 0.4670958617029378 -0.04555679152299745 0.7734881039380872 0.6914830257191897 0.34187315959828213
