# total energy = -340872.343236709 ev
CRYSTAL
PRIMVEC
9.20777683296338 0.00000000000000 0.00000000000000

0.00000000000000 9.20777683296338 0.00000000000000

0.00000000000000 0.00000000000000 13.47651213138722

PRIMCOORD
 96 1
Ni 8.113358654107591 7.16970888107718 13.474476983941104 -1.5534078224341312 -0.17083489266911223 -2.3359117567175836
Ni 0.26221445700278606 5.046165411802576 2.5254306889242257 -2.410077284287404 1.8658256528857737 -0.3189584597836378
Ni 1.6736515065266058 3.7042608869756766 13.255847537287636 0.9514194984426647 -0.17733258457831397 0.38299126979483067
Ni 9.096758398549854 2.1768749111132535 0.28164839021146243 -0.33001317493590265 -2.0934281893632334 -1.4844526354206564
Ni 0.5082094155941804 9.117337779162662 9.193918856816676 0.6674768926125795 -2.24440876631058 -0.7160704852505668
Ni 0.6886136986342221 3.6875395647417353 7.0310195089670104 -0.2535531949049504 -0.4010357860013674 0.21733509311318056
Ni 7.782320671203046 1.9382461737702912 4.235600237289934 0.125824389396693 -0.29512973279515625 0.25042853323303965
Ni 7.7857275485304465 4.276671524638224 12.966371616222057 -0.39556190737098973 -0.7618975708870104 0.019877455650217382
Ni 3.944031388612146 0.13522724812340678 11.018328368191352 -0.8949326190995297 0.6573423752817389 -0.7252832620980864
Ni 8.8316665113719 7.788407011509564 2.4061098748091525 -2.2522462600771274 -0.25772198157065934 -0.2617735259322137
Ni 6.316939862699302 3.761717412713448 8.643241334169971 1.2211253918480776 -2.670545975365265 -1.4639164631405175
Ni 1.5250564083926064 0.027146366855784882 1.6393773998353065 -0.9208915050571366 2.5034294120880047 2.3179932245659494
Ni 4.528798862418938 5.381208777510956 1.8252860917032392 0.3629680325953684 -0.4688699720365216 -0.3171067512868797
Ni 7.243242184689655 0.7486198577016071 2.276667872698733 0.32926909768102647 0.3685858930027781 -1.3589048967241177
Ni 0.5069709696467878 2.0001408478102434 9.11814069727874 -0.03454508496472115 2.6808504426150668 0.9677398328692429
Ni 1.3074306093842367 6.826378516464314 3.649614574644182 0.32478072289236964 0.27140307860217777 0.5534741784411629
Ni 7.024189180314401 5.607959483090821 1.4926855491163709 0.3232246912591595 -2.263622106014237 -0.4896527131098277
Ni 6.250119028199461 7.70399011600253 1.3577179602919716 -1.4124396354174642 1.5562339790290165 0.8515146571252109
Ni 8.750997180925006 9.023142224948336 5.710711824062858 -1.2235805382567897 1.0636630638311295 -1.3716547401906185
Ni 5.178048395479195 1.4951863812302137 4.293899274582995 0.29452835176573144 0.6891209532449164 -0.2247468121962194
Ni 0.6284933631374865 2.90044040879363 2.3091869771775935 0.19471478461050337 -2.248251794205754 0.5045160033749053
Ni 5.002511343129054 2.529376221180417 6.607183712330029 -0.6168567564628668 0.6832040735398492 -0.895403130978045
Ni 0.910843385922862 4.317885532523203 9.56429430274316 -0.37700985540041526 1.0626780742100408 -1.6397642356431887
Ni 5.328070698980078 4.4770971970315045 12.915552055829124 -1.0591458926870663 -0.44077964155820853 -0.13439798999831692
P 2.2015885834017435 7.307466426199423 11.0777737736662 1.1788320303965054 0.36634697636993035 -0.02889945664316958
P 2.7896248178875283 0.6297336506401912 8.85850165537994 0.23333146854143688 -0.632599106898788 1.117168234838121
P 7.570348447002849 6.075861856791236 3.462493218603226 -0.13572493633985658 0.8440859687613076 1.3437634130969889
P 6.848937569037638 8.482185352016593 11.895918789843478 -0.25244504944243623 -0.14470914211633787 0.7954039301745721
P 2.8095872774707797 1.4225001930613086 5.7858979235679495 1.3255895704014395 -0.027676897089978142 0.5281745233341096
P 7.824446248967519 3.274156436056279 1.5811050650942713 -1.0062747557196474 0.7235184568881798 1.0552825530769179
P 4.606558535472701 3.9906871924444034 10.71792373712607 0.21702681784414238 0.5485924248688294 0.940678972096709
P 6.6704816515178065 0.53724245586722 5.6644878649512895 -0.44120773023456267 0.8998359699384181 0.7314464534860048
Ni 2.51544485524432 9.1145754461945 13.095813618332478 1.8562164119307838 0.3893717193998778 -1.2284728333520845
Ni 2.3361510300574797 5.741545905431139 1.7331466339948804 -0.6395287441390858 -1.5441508226122374 -0.34844772749200636
Ni 1.4001160882426351 6.868623795324074 9.008334278683673 0.30398718318578616 -0.4748349313707048 -0.27355689172038694
Ni 8.08538542891667 4.336835136684795 4.872675248181844 1.814948149309616 -0.7278070569612046 -0.5562252588237387
Ni 8.387483370091436 7.449045198594291 10.332212739338004 -1.0452169413108 -0.40745685903636275 -0.018628156624148563
Ni 6.112490391949065 8.260802780171524 9.857003994936798 -0.6182515799278643 0.7484597002145497 0.16058544702696215
Ni 6.5255696640080245 5.694429712770854 11.38090022348278 0.2709649626234947 0.9573489765532224 0.5146389507415201
Ni 3.304127748760838 7.839224730347185 1.4603285015049763 2.424321452911244 -0.4450767262716657 0.7805884624282944
Ni 5.311266506757091 6.076920751095699 3.988629254383123 1.4291610619372033 1.1460836323208907 -0.4966263162141834
Ni 6.637646720302921 2.9030093784540214 10.686523377499315 0.6179355913493422 0.6708645781378898 2.267108264790625
Ni 4.965928846854028 0.06617721091825911 13.300953672324754 0.8234351252801754 -0.5819532597174623 -0.5873991133233818
Ni 8.012487461886872 0.8050589241294388 10.782799889216323 0.893193782031552 -0.0951884096783909 -1.2002709169965717
Ni 8.506438635477055 5.764335152418476 8.169447825026122 1.0501236345837979 -1.3255887990704913 -1.1599483061181248
Ni 5.866513848910792 2.715815280978237 0.8122575638444691 -0.3426277783761196 -1.2397262947787164 0.211071628701972
Ni 3.1237197826101717 5.444447786928746 10.144484590821708 -0.6437160427475559 -0.7613303855296308 -0.2867430513933578
Ni 5.104782117386975 0.5124403889237487 7.844259542570489 -0.06855126670683677 -1.1137661511351078 1.7740611812872672e-05
Ni 1.11235465517263 7.333165330579891 0.5655738635663464 1.3272011378629336 -1.661020059698172 -1.5486281416573007
Ni 6.9327651668447965 1.4576923150756937 12.715924697663642 0.051961223558639545 -0.25692673936287364 0.2858709332010496
Ni 4.4161509239772885 7.12761092664239 11.272927073200915 1.0621684815634738 -0.21743356636425779 1.008078898807922
Ni 0.7098753754901657 8.688780234705435 11.826649607556188 -1.5355129444315814 -0.0052013416952813646 -0.8470296247706639
Ni 4.416915169431813 4.711849460442479 8.088669842815815 -0.262643844352309 0.251362872121851 -0.6639218282714695
Ni 1.2808569662305176 5.973600290309876 6.09630219997798 -0.671328662258502 -0.03100878967668853 0.3929519805519684
Ni 2.7436872206269927 3.8827260122720686 5.9107305127321625 0.5173614918790058 -1.4713029854125759 0.13704339804096397
Ni 3.532057049740452 1.2749916125614533 1.338284947860951 0.4012041932584316 -0.011457349907322204 0.3554120746249814
P 1.2843006746641594 4.132127848190863 4.190332966163006 -0.6819110657600385 0.399493381214912 0.5291805960011209
P 4.570592960227231 3.845517387190925 4.598279823567119 1.785067816810416 -1.0656209588884487 0.9493471892946682
P 6.577768549329726 1.2929191535248252 9.215926363574024 0.04741191362506028 -0.17752593153604265 0.43713176039297624
P 1.4319749951421046 1.5875127568027512 12.218950611028632 0.5480020995829982 1.0356346969390036 -0.7436483948688354
P 8.063691907340036 4.924898994500261 10.076724563112693 0.4655313945815918 -0.9019208774919047 1.5468180850317552
P 3.362090702209439 7.544842905930152 4.052333256517221 0.5813112552580892 -0.7077861337545875 -0.5158777082446276
P 2.3774847390377447 4.871079540503902 7.874797133533521 -1.4910269462040644 1.2207749504871943 0.5404481984951403
P 5.461159901386127 6.932553387983904 7.198451876388563 1.7994086589131204 0.30190381829419616 -1.100230835652834
Ni 6.1768895812134845 5.09992041136301 5.906512430289779 -1.3364895051433952 -0.885921673850171 1.961941202364124
Ni 2.391701546047219 3.228476656539439 10.855734687352363 0.498620978046709 -1.385752355934265 0.39869865322775855
Ni 2.9894704003574946 5.737347159319533 12.630106378564095 -0.6421111601542813 0.07982992494444961 0.6926749891447619
Ni 2.8119720915999595 2.643792052721691 8.174730326438905 -0.30561032061150595 0.3863033648871992 -0.4500872921123797
Ni 2.8831758277426176 3.0341649477823567 3.0038474226791223 1.238317587356648 0.4366537923152931 0.4113094000132336
Ni 6.533027963022062 8.254541492110356 4.029625037963616 1.3327696330896466 -0.040999582340813266 -1.181031094930353
Ni 1.0919594300910334 1.8684604352179564 4.471627777754544 -0.22900867279636689 1.4218059071237126 1.489196063642913
Ni 4.798623546749011 8.469957424744194 5.549182562194268 -0.5869481418288923 0.14287980221708296 1.0703296772180275
Ni 3.6197611214795984 6.384478903770865 6.180907854904504 0.847721765741682 -0.4845256762959074 0.5260145395683136
Ni 4.141584234718538 2.3835987026739436 12.32684365365442 -0.04745845059227956 -0.6412135880406763 0.8435882031892825
Ni 1.0200743184828953 1.221218197447898 7.021491301782164 0.9483753122997021 -0.7820527056786467 -0.18891720409211982
Ni 7.837162188397624 1.4614767112420757 7.487333895865985 -0.6293196648165679 0.42439657221449495 -0.5453093832421835
Ni 4.192365122449917 7.016132375823928 8.783114826345827 -0.45168291873427374 0.9603538248178171 1.4030743921524804
Ni 9.13553234564629 3.09693436059556 11.382018968334883 -0.2992872066069555 -0.5657905339146708 -0.1576145373240963
Ni 5.905913924813344 3.747049424652507 2.886345144434755 0.9958445615252592 -0.2681997411735316 1.2191721247764489
Ni 7.600310551930847 7.848984973501358 7.928460976106005 -2.7297829066497115 1.6800559932837003 0.27192064166854457
Ni 6.351524271460691 5.896208928318535 9.099421287531163 -0.7394760086587007 2.131329592394697 -0.6856337660272643
Ni 0.5751075954171299 5.9070464813302905 11.496367583107265 0.3285970113146664 -0.7050517655425599 -0.06738758541603879
Ni 2.9975272048479673 8.27507483384036 7.3147000554653845 -0.5321535625865158 2.031043713588741 1.353614594859456
Ni 8.023895897045382 6.556793234324815 5.633936462323417 0.07714775012659618 1.1268643790799624 -0.07563568435744393
Ni 1.8568494289751152 8.45897254730747 5.40195205654654 -1.1409653372577189 -0.09642485318865329 -0.13634508642235874
Ni 4.544534952560902 2.080543152736881 9.8183801345983 -0.3565433600159473 -0.6343166038105269 -1.2038930871301914
Ni 2.933910676591194 0.5075040999096431 3.7531541805121456 1.0901356562003612 0.06674686650824634 -1.3047235255857077
Ni 3.193256911195372 5.36236966666809 4.181856287061373 -2.423062640803479 -0.15939579759423517 -2.1416957661203697
P 0.30405459369388116 5.368990058015118 0.06510358417130012 0.880924991966528 0.13031662084009168 1.5395961133620193
P 7.834851036480929 3.8392745146828786 7.0969462683628235 -1.4701205350687006 -0.027445497805462408 -1.0265494468082836
P 8.973926659232246 9.078480962077181 0.4469878300208041 -1.1559882930291123 1.07025845766046 -0.08439414727636432
P 3.755262761344509 3.3701751300295935 0.9892715435549199 -0.3271615644197204 1.1698398542002242 -0.7104865634048861
P 0.22178403090310972 7.66749969749311 7.141661993673774 3.327740255104914 -0.6538348763491126 -0.11617786744586443
P 4.979648433929233 6.460553553714049 0.05119063378832374 -0.08079048908550603 1.7899937933571237 -0.5274286463070208
P 5.095270484199938 0.23015942446257717 2.522910520479606 0.07657773655573907 -0.652823661475779 -0.8462873472880006
P 0.382174290811161 0.18726407657764418 3.519957110562246 -0.4096111863752042 -0.44801009786837687 0.9169379197260272
