# total energy = -340886.8140088756 ev
CRYSTAL
PRIMVEC
9.08103377030850 0.00000000000000 0.00000000000000

0.00000000000000 9.08103377030850 0.00000000000000

0.00000000000000 0.00000000000000 13.29101084781042

PRIMCOORD
 96 1
Ni 6.454508272148591 2.235241997585349 11.35530795385229 0.04598520848086274 0.22670547858448697 0.1350417942299029
Ni 4.824744206948364 0.7145456895191512 6.147504852456998 -0.42852859210499744 -0.25640763363461 0.17859268223766017
Ni 2.774837029341237 1.9304552582581374 4.899079733891268 0.04782766100624021 1.2449024396630173 1.2144996590014439
Ni 3.833839954589915 4.756146077196025 5.204148893371417 -1.646192507767036 0.5113319978554742 -1.1093253417549347
Ni 3.7660137127153828 2.985671392388636 2.853314415826111 -0.010358974636820869 0.8024253557977277 -0.43798973751789727
Ni 5.102387736078363 5.104476373865369 2.47682020075408 -1.029731444080691 0.055780854415045864 0.8084412229745044
Ni 5.443798284949019 3.575166705186238 -0.08584755356284571 0.11491648423493757 -2.0078490206398323 0.229122829776728
Ni 6.200411863808614 8.156729906490192 12.573336127790007 -0.4237656234987154 1.3565394818157346 -0.10056484349895584
Ni 2.612032254361103 5.138566574962838 11.683502874151516 -0.2588578949473155 2.1700280374061593 -1.1727385159042578
Ni 0.49855329924123454 0.3548858950103828 -0.18258780723661683 0.85367644066322 -1.0506627949167195 1.1918577532322119
Ni 7.982737297798793 8.88171424442744 7.060796232753717 -1.0938516715993678 0.6570875789584554 -0.04859950617525823
Ni 8.883730233943593 2.2760340016689478 1.4260192652846333 1.373009711556616 1.8255441796579075 0.7596134028385241
Ni 0.6349849356951913 0.4340997533410226 5.135885853768385 -0.5939392284347448 0.35082882612967325 -1.0350500280801271
Ni 2.256900263333208 6.827929465363569 0.5088666293921124 -0.578975408036061 -0.36460402553689464 -1.0537365487460368
Ni 7.911986963022453 4.260639464813662 3.66086260548368 -0.26094820181744094 -0.5745271424567202 0.15181541414381594
Ni 7.899645838011408 4.074006056993954 12.760327328343664 -1.0452742769112966 -0.3819787693699163 0.19005131769656303
Ni 8.560245645905756 7.348454326020713 9.701348382044685 -0.754576868855881 -0.6394832356131308 -1.3350574006825588
Ni 7.095983422741056 1.4104389354969595 0.4246718239911578 -1.8804670569480324 -1.3237736002386233 -0.8280667105149158
Ni 2.1772959205467366 6.122142432999055 9.475892646384862 -2.133922292822538 0.40929262669352096 -0.3588995189529496
Ni 0.15731801432400977 5.077641918819278 1.5156399884148732 -0.18496541853322337 -0.1084982394134196 0.24104066426023651
Ni 6.708731814962562 2.2747444948613182 7.176109016870893 -0.9110416088462504 -0.12312884484240086 -0.45136487327322267
Ni 3.4717700536956198 4.61179396301239 0.49367315164672737 -0.18051458185072136 -0.1352420831661671 0.5178975668881339
Ni 6.007766811575873 6.006032334109274 4.837276941773781 0.15799788880544405 -0.7666338000204151 -0.8306457840960018
Ni 5.27461862420159 3.5374440905461513 9.305302701079512 0.6169696278916471 -1.1231861588974268 -0.5782722113214493
P 0.31983038001396313 5.952209046441533 12.707110653737539 0.2797925882174536 -2.0594605741685372 0.683811368106545
P 4.371155646847811 6.689134943900139 12.597193819937923 -1.7223735231049886 -0.05922613265116897 0.23241821269854812
P 2.3281137308362316 8.85537924624346 1.3394552181505062 0.9252721506233356 1.2354770325840592 -0.20811434584586094
P 6.296943253703684 8.073847310481508 5.677866473118388 0.1878216570350959 0.2992370700953104 2.186781088494782
P 4.80817132016017 1.4343492976412417 12.836777828071757 0.14819195845861574 0.7881547048113264 -2.151064866040095
P 4.05514474967391 6.537608812969833 8.178915780305116 0.27221246187735054 -1.1879440200001026 0.4499798200002379
P 4.83103736341095 1.3737697207842319 3.849303139040839 0.040620344624523595 0.23980293519839346 0.5914694267380136
P 0.2100234267240098 6.148985969079001 3.6768788248964674 -0.11770098895861018 -1.9535339521370356 -0.08539353507515615
Ni 1.1471979260634404 7.639719405935529 2.5762230135545905 -0.12910383147891313 0.5095054861696967 0.5884383532211738
Ni 2.190872066162271 6.919266503892696 4.878279625842852 -1.8786420879241517 -0.5529877257230477 -2.0601673704275747
Ni 6.3530095567339915 6.181378016845296 9.441881450281945 -0.8218623814764168 -1.1836034836432197 -0.23854849396600206
Ni 8.688606059468016 2.645741052036597 9.91008321006445 -0.1836847520485869 -1.5736380334380768 0.7361412878585128
Ni 2.3723292846837483 5.916175504098764 7.000960392569557 -0.7351128465939986 -0.9148890076167985 -0.23456611227948634
Ni 0.7639973674883512 -0.042442936038718806 9.007238651116301 -0.036397821902743765 1.0620283564411839 -0.7281955506488749
Ni 1.8750972758686408 1.6283565049524635 11.539614800797949 -1.0177015094993505 -0.3489138684951475 -0.5017286704377553
Ni 4.384205092499666 7.493732705657716 1.6798241724378165 -0.07640624397488131 -0.6792682288205527 -0.9579321027502019
Ni 5.687342531947692 7.950726653454473 8.08124018014412 0.3258235623345872 1.182560387090686 -0.8425980713618714
Ni 6.897898831228246 1.1339214545651721 4.879927833487815 -0.5470307368086643 -1.1818944713719128 0.5379290316177123
Ni 0.6904782254891506 7.5883479974090555 6.628400081364181 0.4799074607976057 -0.04167552536191532 0.9367333571853996
Ni 5.215047042102657 4.970621934819899 7.117615353490732 0.4284679140703911 -0.1399662281147138 0.3234059540320301
Ni 0.9351012993099815 7.522110936459418 11.517272733200695 0.5248506011671994 0.8241306086853032 -0.08901210566434993
Ni 4.7016689550906134 0.7140008274877585 10.475616398824789 -0.1636993100655955 -1.2284262963848651 0.9762257588530672
Ni 8.148856650136565 7.67149394339958 4.715623779817966 0.20078335940208647 0.197381275699073 -0.38707161051179145
Ni 7.2538753584048 6.3940376676978605 6.869698588690131 0.3005915272406759 0.5035464403727844 1.1705109121253197
Ni 2.450980118915282 5.460007930382951 2.550145916732136 1.0197851315012565 1.5019713610307102 0.7222735287374852
Ni 3.3081479856683966 4.2960191727187595 8.518939655305877 0.5685706677629692 0.7858209144718273 1.4106141521729514
Ni 1.4341041097271152 3.9536551152931665 3.9774546888243987 -1.1815170334278362 -0.21080423397319825 0.10953927908342426
Ni 1.6376554836215653 1.531607170244836 2.9471886952147566 -1.278039074315986 -0.1313679449227415 -1.1257395214469
Ni 1.2103837596372788 3.5996128483280567 8.114481304576001 -2.4225584474735506 0.15557333852435143 0.06886674106472655
Ni 5.579668713510641 3.2572851150378894 4.9595675923063265 -0.3274826952045651 -0.3274330729135522 -0.2580081453525105
Ni 4.180245072081671 7.31539936278289 5.822392943152069 1.2845856171852523 0.9938478428102044 1.7546992318208878
Ni 8.510862983793865 7.504920539368979 0.5868445590148764 -0.7792404330408321 -0.029096146035007958 0.10491694982006447
P 0.2668425474610246 5.837025213005119 8.024314811310983 -0.03578487090909321 0.882958220346473 0.48597629269950493
P 8.693219224667141 1.651131737864678 7.940382447788483 0.5546609996604125 0.37495991484992197 -0.13631371896379105
P 1.7409522437397618 3.6563239047621785 10.380745021918694 0.979730686682532 -0.8123379869257493 -0.5860829656151196
P 4.0725621726107635 6.731570615111772 3.6918171255904837 -0.30579672559069915 -1.2361131235061615 0.12399016440143161
P 6.870428703812198 4.21480748693968 10.488322581396865 1.0009129771871021 0.8280456274689934 0.995144707244757
P 6.485202166583713 8.130667339321906 10.314382642701837 -0.048460152383916544 -0.23820936545902846 0.26986453047046427
P 2.473882486301488 8.92776416711398 6.044792002815778 1.0514397822920603 -1.0834857549840113 -0.4109322191794729
P 6.697553062285155 4.1955375330960925 1.4928066368859771 2.5746715953634434 0.9992492163314339 0.19317675069942214
Ni 2.422220484691605 1.826023368907873 0.5378641867028311 0.8432922692154186 0.06348285104499389 0.1909568602299679
Ni 1.7988256725075216 1.4461183175193237 7.221019269808435 -1.6566913504158307 -0.07081743703319417 -1.5776638667680185
Ni 6.910830223439965 0.8814678052498427 9.153413328794946 -0.6185788813602959 0.14259440976618024 -0.43864176927959947
Ni 2.6454141348177616 1.7381916094473722 9.223509829133615 0.6830132976852817 0.724580579604107 1.3352944563940294
Ni 6.311291287197025 2.4710946089075287 2.6566473736983074 0.9098185350724266 -0.2961679442516835 -0.0901585605639673
Ni 4.029418180758319 7.132262152997953 10.301503920486484 1.2049886341872151 1.3826559763971285 0.9223182102013341
Ni 7.568869179786767 6.213742821510021 11.585933522086641 -0.44868269845536923 0.3671494176665677 -0.04592504466688865
Ni 7.468614566010513 4.330999315134171 8.302535894194259 0.5768534765970517 -0.018137075920342957 -0.7263559263369749
Ni 3.3512738154531276 8.576146536188565 12.429780420275591 0.11050627098238387 1.384024574609881 0.3340752608204182
Ni 9.02603003447565 4.878322306701978 10.024652257508775 0.6008164151705524 1.7522322583376337 0.9174004611847427
Ni 8.787217006116235 2.7358521509950906 5.744972589008097 0.7480953748965954 0.31866201158914154 0.5464879769313168
Ni 3.8043175135222884 2.9281975291105646 11.075333323331316 -0.2211992040542771 -0.059023786832375774 1.0414788144246065
Ni 1.1463806330163515 3.845509083095575 12.696105348806794 -0.07795456229860769 -1.1286739214848756 0.996496079066329
Ni 3.378516917022762 8.686390287207018 8.172363814377618 -0.8423800418137944 -0.032927861076272325 0.012761413430726407
Ni 5.7359805492833456 8.279006027368565 3.5880408868846616 -0.3478987969670718 0.41963488915979347 0.10138553962803828
Ni 3.1797330859029973 9.048532836372168 3.8536883702901648 0.5939253444776739 -2.234323614160436 -1.1013590357200065
Ni 3.750939196513518 2.84140100750971 6.837467275223097 1.2480679818751925 -0.135593810078631 0.6643889977158752
Ni 4.856028368584161 4.9559288220400095 11.497415236466589 2.159078223262875 0.7329063258609829 -1.3902229901111087
Ni 8.442737067802067 0.12439563418049247 2.567490691398137 -0.7440883106197315 -0.39420539334309523 -0.3003894385321988
Ni 4.669758202118715 0.7818688421180312 1.5077058891344102 -0.10281121633097132 -0.10545559593235386 1.1254579856507392
Ni 6.107240456440465 5.991993055767055 0.19297378565834705 0.8671495354489904 -0.7893600379733373 1.6960176588192792
Ni 8.057210856456317 0.3846326376142664 11.104839418538 1.0943610071356185 -0.9649820676184477 0.7962886467723705
Ni -0.04371700508879203 5.401135587890972 5.763420709287668 1.1578600561305283 -1.2858436579620693 -0.39001603785209604
Ni 7.276296430996608 6.386082682039527 2.5394203076441713 0.07021039957681456 0.5277310080387879 -0.14258772489796087
P 8.445107217638625 1.8762324051007087 3.7479987577507687 1.6967187986513619 1.528348565472658 -1.1977139549026727
P 1.8710108106331955 3.5781543653250414 1.7695783867657477 -0.35605999262162547 -1.0879666735735005 -0.8891021284606816
P 4.7818726461116166 1.4498324603666506 8.466839039760723 0.48647200138900093 0.6319758714924922 -1.594052592538687
P 8.794427346998333 2.063474242188805 12.274793507342556 -0.7141930657221958 1.1194313198406851 0.037328561247129265
P 6.618184826378955 8.418218276389396 1.6084517868423032 0.18429616038034066 -0.19763735757393705 -1.3938922114325802
P 1.8738077690610113 3.8310884013313817 6.035434905529994 0.888164961358393 -0.3863280474775476 0.3805119550164028
P 7.130636647937631 4.200604749988044 6.09457967903767 -0.22654504174722276 0.7917704471870429 -0.5778171260619016
P 2.3562830978592335 8.767093435090132 10.386233598781589 1.0988249564442432 0.3557967116579098 -0.17185176396940083
