# total energy = -340888.30757234694 ev
CRYSTAL
PRIMVEC
9.11169019638215 0.00000000000000 0.00000000000000
0.00000000000000 9.11169019638215 0.00000000000000
0.00000000000000 0.00000000000000 13.33587962617029
PRIMCOORD
 96 1
Ni 6.478347915230671 2.1402995696104234 11.093131047090216 0.8092050977237225 0.5270092993814149 1.4854707922725257
Ni 5.109298246725864 0.8269897544327681 5.747963944450403 -1.121576648318462 -1.213326207518633 0.5875114705315302
Ni 2.9178820953706914 1.7959779105101905 4.815586559398008 1.2959933448015615 -0.21280095268825286 1.062516866041828
Ni 3.574771173396389 4.915656607645757 4.731876550815622 1.6934653247110707 -1.255013302844774 -1.283709385227886
Ni 3.5735502069162113 2.811721793426295 2.5738383428200513 -0.3179341322841815 1.0840681098500426 -0.6161754141251259
Ni 5.473528948805112 4.2878884913413104 2.7412829615482277 -0.8480220705909202 0.777212861087842 -0.7664967602219186
Ni 5.340844516832379 2.874009307295653 0.32295747920417006 0.6211435567636786 0.982750190235146 0.6526899641113921
Ni 5.621329674737655 7.972792663587748 12.171751059059407 0.18227604462651834 0.9463405412578605 1.0954778943488812
Ni 1.9382205054508805 6.790778658803878 0.21220032957880605 0.2523362917787138 0.10728673560382168 1.228513971002665
Ni 1.1376218503702498 0.294854293272739 13.545386641217 -1.8533761142685115 0.4909518915372254 -0.7456916505511093
Ni 8.43510159844783 0.06020367033192115 6.8604029055824824 -0.10574407370705013 0.8298939935316417 0.40617182167635213
Ni 8.801336872360205 2.549696919766092 1.1265274564429049 -0.10896875129193492 -0.9929402433942706 -0.34101903912810305
Ni 7.184841034436121 1.0112791547423203 4.59455700206329 0.8404008066002365 0.7454782489887226 0.8157716951976468
Ni 0.8415484129553633 7.590083453883126 2.4386791758024216 0.8901328837180411 -0.5443267076139399 -0.3080603248138953
Ni 7.6176098698280255 3.80639944871426 3.615757378031724 1.9046868487273458 0.22702326693522193 0.28304297683395124
Ni 7.764982346323491 4.395060190892421 12.544648800809886 1.2393923084780654 -1.6334411216386384 -0.02655101101565105
Ni 8.514509978110127 7.564014908362319 9.042979806322577 -2.657754737137868 0.1173934850205204 1.0572180795367343
Ni 6.908601924141015 0.9642263868047299 0.14216970141948537 0.4634048351568923 -1.0215903030307953 -0.7518556132699761
Ni 2.0520164037414625 6.71891475858626 9.25290039102571 0.9142644866589221 0.41982772189688994 -0.1258992084986864
Ni 0.09153421691468731 4.923592889766911 1.165477198329585 0.24376500516993505 1.0985650179146371 0.3935700737519416
Ni 6.791944955143151 2.35502565969897 6.6753007425114985 1.1353166236123737 0.3721353009169333 1.5151222965903715
Ni 3.5174404189689454 4.503644202416872 0.4086702372816524 0.11473162191764112 -0.09961584932212521 0.052399853757954924
Ni 6.174381931807353 6.091547556648439 4.631057521637495 0.5273839091120143 0.010976296505845612 -0.5264829945642998
Ni 5.808629577472958 3.292153879995878 8.951069276604672 -0.7742715190713311 -0.5327107206415664 -0.1394134409350373
P 0.3464756626518297 5.771490328419198 12.287266333281403 -0.757615912792521 1.0088761978982368 1.0565174539252837
P 4.1945483374387775 6.186801165482593 12.603259747703486 -0.7474374295976224 1.4305173188547815 -0.7830518363671224
P 2.5404029958125016 8.656652344459161 1.52533155562951 0.7909901173775926 -1.2947872403086025 -0.8340442682545894
P 7.048603043304663 8.21058044144741 5.547045709616044 -1.1330733361041518 -1.0422501453729922 -0.6859854929397283
P 4.694060303183673 1.2480281999248166 12.444682625829852 2.0080968749845804 -1.8748759360135 -0.9707472522369992
P 4.297820233605441 6.3800418901960745 8.127538319753063 -1.2549212573516 1.2654537814518076 0.1998518487267526
P 4.893697434382861 1.5267001314901272 3.5329275587178848 1.0775128252300281 -0.9833297168877 0.9205510909985825
P 0.44967739880433355 5.5027319157377175 3.435282131219204 0.2087756335789437 -0.3307150860989337 -0.18797772299698592
Ni 0.9876434304917182 0.1273149129669963 4.582141413064111 -0.48295473226436186 -0.1732987808285725 0.1356334050673148
Ni 2.2052568086939015 6.770842280754411 4.68740148002163 -0.8935997592207191 1.1274989273401679 -1.0513582783218471
Ni 6.0798390348049445 5.8431902182141044 9.177125753395462 1.6388826043691838 -0.1168833781533213 -0.55100514807538
Ni 8.846239281422259 2.594307754743327 10.119625315036137 0.151461630348823 0.5872577026495113 0.23458333867066694
Ni 2.679684291454253 5.6261224237568594 6.789109397168291 0.07663378660465511 0.8720014642246532 1.9700514901760844
Ni 0.6372369847089286 0.20524355414883894 9.323926926918487 0.7894302290896404 1.9031801822748322 -0.15598111548573138
Ni 1.687949712084925 1.5909466587418601 11.366917290396788 0.24084423197871424 -1.513920048752154 -0.5976390458838353
Ni 4.404745917522487 6.8600821740891815 1.4926451895523378 -0.6013434913186159 -0.196067699093972 -0.07855440066613568
Ni 6.137570703599014 8.11427898824594 7.4827085636416575 -0.46907360340689536 0.23605555234081924 1.3801414375053909
Ni 5.3782115581399035 3.2192056886503413 5.04062890507504 -0.22030266038193674 0.13492095238132248 -1.4080119386634138
Ni 1.0721725800186401 7.612534658414153 6.6869564165521185 -0.2016225674739302 0.4542550503368241 -0.5186385588192165
Ni 5.303896613271781 5.20712135218248 6.7192427794316805 0.9434799318806137 -1.5264302654040227 0.17069476754682214
Ni 1.1317356985329756 8.002305427985474 11.464975477459287 -1.0771783247087447 -0.4931972359279764 -0.7851776244608736
Ni 4.924795632866788 0.5452836300473146 10.172008421711816 -0.915641826622423 -0.8534676670865237 0.1455501499603945
Ni 8.622847974000512 7.128047869727562 4.392078845875152 -0.1394170404794631 1.0114133624977937 1.8434195172764316
Ni 7.680106952570847 6.2922325322149435 6.845040595988606 -0.3073031349328965 0.5536199599904078 -0.3928928451792588
Ni 2.404055664399236 5.478021012049346 2.350728586623957 -0.2614410822934594 -0.38953447022998716 0.9503062107738278
Ni 2.2505874671930326 5.688637729879982 11.490274085162373 1.7879320257320885 -0.8450501324467898 -1.2944460549190997
Ni 1.3453683858034529 3.133118440107671 3.9905221050940565 -0.518185530442198 2.654095543118726 -1.8179769088336108
Ni 1.624650800608852 1.3174410554919278 2.4381588982948235 -0.20224785976275492 0.03928028565686138 -0.2876074562761821
Ni 1.3413045719962946 3.9168422450294287 8.215635607142952 0.37307015402637683 -0.46463485090925144 0.18143992187846814
Ni 4.189801146870326 3.08747798414342 7.14657740281778 -1.3813611688451048 -0.5630466526209464 -0.1808835351543659
Ni 4.460245222229664 7.195565493743353 5.852197123927953 -0.6984545719410165 1.7361456371884163 0.224198138781601
Ni 8.539011312925034 7.421972770604942 0.1334561921284866 -0.05580425145381357 0.2971812160075462 0.10925877172852796
P 0.4306859030234816 6.214846947766074 8.039828279194573 0.33095676979609456 -4.636353859773648 -1.1159865558251942
P 8.996317929892447 1.9371999961540156 8.040441495941707 -0.3515240524244849 0.2271564500789765 -0.7024114997062354
P 2.177238361480871 3.576611734806806 10.51183346172274 -1.0826352340582581 0.49800725572211 -1.3064639053155822
P 4.21205189421804 6.777174905409063 3.6447225298514 -0.08894757097500164 -1.1493928991997817 -0.14708047056199183
P 7.1274464981776235 4.217108882251612 10.361151619364582 1.4866360162252203 -0.6041593635008563 -0.5847531910601026
P 6.4855188153791765 7.9052294811212045 9.916906610228024 -0.4990364683175728 0.37902971404392144 0.43054536542471017
P 2.8037126177839355 8.676506717297272 5.91919720394319 0.9149175468618889 0.38532248903116867 -1.0586267869588026
P 7.033696318218316 4.098666021984234 1.247893346910588 0.17231996185507098 -0.48977072674493066 0.938425657286158
Ni 3.0352953346510536 2.0996067613979372 13.327077834561246 -0.8196026389079626 -0.3787638619770445 1.2148045918363723
Ni 1.669052066712624 1.038213310827432 6.872152430031654 0.02145045656429209 0.869549917360367 1.1023663939385981
Ni 7.14925988439811 0.8705172094510993 9.209038536978852 0.6177761829533426 -0.08195622725883304 -1.6007487736119397
Ni 2.802938124121136 1.6749564419301992 9.070811463887521 0.23899612302638198 1.1358542412833987 -0.1906439569752394
Ni 6.7919905135939045 1.8431217953492867 2.4089932892918346 -1.382752906986309 0.9544068632057627 -0.7776419782054608
Ni 4.412499965840629 7.09418882912801 10.278696290515931 -1.3344809593537985 0.4419893455955936 0.4390783425963858
Ni 7.379849427038815 6.422957950805301 11.367423900369158 0.7457456437174962 0.6024822329087496 -0.520499009066723
Ni 7.946177416657907 4.3168363309497 8.347754203157333 0.4143296748967962 -0.5933072512777008 -1.5699261318041284
Ni 3.149492147308261 8.572569667749617 12.401728296121993 1.8726190216585232 0.6393125143632216 0.05344217897954023
Ni 0.0933119076630653 5.184642812581002 10.153485266804704 0.7746900946659883 0.06398318772018012 0.34729741593764707
Ni 9.196064401373443 2.4920928146341312 5.786918242182159 -1.1090283793398061 -0.22146916988621212 0.74558932064529
Ni 4.070301330545481 2.7856441362153372 10.96612046457425 0.7925762309177897 -0.10204091382385007 0.5705522169693723
Ni 1.2316180459636237 3.54048388335976 12.583442732794992 -0.9996238260620334 1.036083611550964 0.03383006117556754
Ni 3.595564050320011 8.61274310962352 8.144195400517336 0.9181301402619155 -0.5021768137187674 -1.8168615642822452
Ni 5.857850927666386 8.420203985051632 3.489079372206253 -0.4382728159759549 -0.6018325151398926 -0.09875710086625573
Ni 3.356937996966495 8.880936597515664 3.5246459435400235 0.3375724753403993 -0.24178011352942236 0.5419281254747763
Ni 3.8512654110157114 4.709131038692732 9.494159722832743 -0.8658773536047862 -0.14969913913176153 -0.2446718332549206
Ni 5.659352757736022 4.786635075113558 11.650171490938822 -3.133935641013506 -0.7841502116376237 -0.2264887345879906
Ni 8.073495063131949 8.95578002041252 2.555060971757738 0.9879744147485631 -0.22262359520562952 -0.14007292889590714
Ni 4.736311210411909 0.06984474968024888 1.318605529493172 0.17258709947352857 1.6574202581620552 -0.45241928267966597
Ni 6.183083595901156 5.912630408851668 0.25784351905010183 0.788367592153081 0.6404378862169163 1.0732622774837903
Ni 7.926149921706934 8.844626512265608 11.224996338118412 0.6404900796110904 0.8035080473389452 1.0840801940349007
Ni 0.42698473448431634 4.958891577410254 5.945735001506752 -0.8914186924090003 0.5772676813163349 -0.5115158317315062
Ni 7.446464993729699 6.260824536265896 2.547886426933172 -0.08754760530368148 -0.43694869784789264 -1.2007290875799128
P 8.85018464325746 1.7435948038345115 3.439310409434775 -0.5159658970830597 0.24796850172832133 0.05068081418431916
P 1.7465014329925461 3.4302871026786566 1.4813494272726648 0.6169012365475569 -0.008192306002805246 -0.4349121270338381
P 5.297810004251194 1.3359104514271516 8.065659920771466 -1.0207654931366548 -0.5145577038816235 -0.5989857897197167
P 8.753445828928761 1.692687790963226 12.160561903554495 -0.6822525082598573 -0.36889802492655827 1.0855369810860853
P 6.706869104207194 7.950742373423347 1.2453848986121334 -1.273885714269245 0.08471373539931217 -0.5425536748739173
P 2.2103958019388283 3.7660346613471942 5.943921775166787 0.20637370900567037 -2.496141877287656 0.6496678894556166
P 7.193916277826098 4.401857511744753 5.6689090983659485 0.487355946655851 -0.19216605004672066 1.2265877005142294
P 2.6404949121166124 8.846075270999549 9.992814278534468 -0.06959487748000272 -0.34952321994437224 2.3107347432313237
