# total energy = -340896.202165429 ev
CRYSTAL
PRIMVEC
9.01087963694174 0.00000000000000 0.00000000000000
0.00000000000000 9.01087963694174 0.00000000000000
0.00000000000000 0.00000000000000 13.18833318234261
PRIMCOORD
 96 1
Ni 6.32320466498715 1.9139559187530757 11.247564859037798 -1.2640137065711716 0.49844537170079317 0.5123648099953627
Ni 4.505187583205728 0.3044920450278309 6.029640113863286 -0.2548310331761095 0.42526200553858373 -0.8798826667449428
Ni 2.676168217218202 1.7278902622650822 4.870966225939862 0.01693354253054503 -0.7477562463896218 0.39721949757907077
Ni 3.366437651554308 4.408284582098077 4.834553260766343 0.7446192434225369 -0.6681129835346816 0.5406729129114365
Ni 5.028251132424336 4.4478603660728595 2.624781873121438 0.9618093263174209 0.3808989060421763 -0.10051033611193658
Ni 7.266598723101852 6.214515433132911 2.4334322367329864 0.13292809032100977 -0.748993975451465 0.511867301533654
Ni 5.066204958039496 4.59287245430286 11.249886061668013 -0.1351623789681672 0.01236777753673354 0.4557810000630473
Ni 5.527859361586853 7.746464114675856 12.29072197150095 -0.3819854542381357 -0.05879007355501487 -0.16454803121913597
Ni 1.8261719279784119 6.641288721068615 0.39765192667666477 1.386140335401303 -0.9600370649083464 -0.19860409236258053
Ni 2.587384018788438 1.5112597015779858 0.41816159013408744 1.207883696346823 0.5827436168292416 0.9796982907826999
Ni 0.4918804986668941 0.03688333309780885 4.916241391372759 1.1151650883651631 -0.28199988028141754 0.33767197703274104
Ni 8.48386946111854 2.3131739363347537 1.5229359995913103 0.6546949103565628 -0.14938520743576852 -0.38197542693580666
Ni 6.859415087798475 0.6856666769466893 4.788287799646097 -0.31146343695817325 -0.3674116701890188 -0.21112407920646223
Ni 0.702293552308772 7.453412282611228 2.351967575945006 1.4562530330579888 -1.0525859800813615 0.8746116481539905
Ni 7.648741123508619 3.9207419209551952 3.856532193849662 -0.2691543917773171 0.0573145174507529 -0.2762678628936468
Ni 7.6200414714230815 3.6487755475656547 12.523931649887318 0.4058326931693785 0.7268688614176514 0.4027183159101129
Ni 7.909047418468431 8.77564174825502 6.845470751345612 -0.25719002032658933 0.11006995477591366 0.6285722451275819
Ni 6.661599244082996 0.7868264176603708 0.22898357577157452 0.8569677098199822 -0.449752020260148 0.44984046620889623
Ni 2.0552645353952723 6.377278954521 9.255506238741047 -0.8161378202878138 0.5750760729816546 -0.704648102346238
Ni 0.0770078796509294 4.787038891709189 1.5523727416424984 0.37099218845142556 -0.1360992889601398 -0.6331086995453549
Ni 6.314031589375509 1.922588341578176 6.942562980928551 0.7514432083229059 -0.1956979744593791 0.09079439437575332
Ni 3.5166129738957728 4.26610191011764 0.5994055248541152 -1.4352625468492508 0.8043130597387439 -0.0066527294298272515
Ni 6.0226467700693815 5.661652904496133 4.763705218530068 -0.2511024193716127 0.4662597881071841 -0.17185304952098143
Ni 5.345803546599037 2.885013377779112 8.994654785554808 0.5925875995028569 0.7710273011024206 1.6360145387927694
P 0.3906820111701771 5.554666728919497 12.243903242362478 -0.09607492604840227 -1.3815719993043303 0.8910595092973685
P 3.9193812781090673 6.065268231408342 12.634370794593993 0.49474375447948993 0.2276606434089047 -0.9837984289940024
P 2.6739425299136093 8.401888476919412 1.5283830764157085 -1.8074762664126032 0.6943778307684816 -0.8209038742178895
P 6.1358414418114595 7.719269279512858 5.716284967488097 1.0595930075268138 -0.11575106432109096 -0.17034946839226145
P 4.603730564432553 1.2216320038281148 12.508764537048895 0.15752223472060614 -0.6447172303185605 -0.3935019395181675
P 4.036576780471547 6.076612929045922 8.157722469813796 -0.6686619140596162 -0.16822213763661348 -0.3165873884482999
P 4.645225665799554 0.9364917242065318 3.767695732317199 0.6052466830277641 0.2718748760322737 0.15802951337432783
P 0.1391126652408635 5.669870826851553 3.5944804914773014 0.49081510884904506 -0.2167231705607945 0.27393587232636046
Ni 1.5531242490157897 1.0488303623699207 2.686529827872255 -0.13288309601568726 0.4169200613317916 -0.7591405769671635
Ni 1.8461580593208677 6.405690258453715 4.770233600927548 -0.2584015241361872 0.40036112853184597 0.3932527996218389
Ni 5.891178034142226 5.483633963647821 9.074628145739911 0.9309746003247515 0.5617107074183423 0.09819351505330186
Ni 8.386074382913096 2.350217663092569 10.185627270946174 1.6632312084168774 0.4416291340426975 -0.05515710478811791
Ni 2.309398377708744 5.166378908505719 7.039193853466976 -0.4327932809186224 0.6924747002084978 0.04678559289497104
Ni 0.4159449137092705 9.058547329692235 9.190224216942209 0.8189770895088219 0.49056931138682613 0.4926974134734224
Ni 1.4255482131517283 1.063806444557099 11.493369044086633 -0.6628455644881552 1.3415167831546573 -1.6422972864776877
Ni 4.1990339319472625 6.770432650013645 1.537298440865765 0.09705965855917477 -0.2180920258838631 -0.16056744930483316
Ni 5.554693761558824 7.996669213407132 7.793157592585447 1.0378525305259287 -0.7230528301056708 1.3777539111098207
Ni 5.233654136910937 2.79115605403564 4.997217662476898 -1.035208150924546 -0.3391506184607966 -1.0254664981567498
Ni 0.9257237228745956 7.502936077858358 7.174703968973524 0.007253853348935894 -0.4918268379430111 -0.393782961093696
Ni 4.953334677969343 4.281925015003732 7.058950207375153 0.36805136065554683 1.4601400268172209 -0.5424670286973818
Ni 8.163343456617865 7.184167194913942 9.131457061221187 -0.19580107569614666 -0.420713724046269 -0.05330436785009529
Ni 4.550611428154926 0.15244245969302528 10.272840873031038 0.2868042436485964 0.651452235049549 0.4628031970171514
Ni 8.090103025801147 7.263012392951133 4.7203421617855685 -0.46410443232707815 -0.47447703381065387 -0.13101236135553565
Ni 7.260516379253269 6.1728671468097245 7.050470068418261 -0.6113412259612762 0.015397565501992838 -0.6387005918108355
Ni 2.3988223486025815 5.089786430412448 2.725922690987591 -0.47837662597537617 0.7532697200086834 -0.8040508072162926
Ni 2.4148346819639626 5.186941736153818 11.293855550621416 -0.3664637044534527 0.3493504418119338 0.734719982030954
Ni 0.9879979130043125 3.338287663135087 3.7846028460403054 0.10866073313321287 0.01480081245825838 0.1696349588237401
Ni 3.635466478136977 2.6503069922620037 2.851251413435598 -0.2849607626819544 -0.2732848690059229 -0.6490024879574758
Ni 0.9355455818300855 3.266074472612796 8.061500691217187 0.5795310234292149 0.25581422302498524 0.3113323106969477
Ni 3.4532034129143203 2.5785263239689455 7.0942818669755905 -0.4484124755131181 -0.4346293056860966 -0.3882499470906087
Ni 4.064132050825574 6.767477081447223 6.033451716008397 0.18751698131048353 -0.04082526154647807 -0.4463784758022248
Ni 0.8278475467511713 7.459927148689043 11.36934599811812 0.41642255287008284 -0.06916138948700992 -0.7482100460975889
P 0.19155328227138194 5.620986804068495 7.981144368641615 0.5703663262108113 -0.6753822635025852 -0.08920596684271088
P 8.4906636644694 1.619011801935554 8.053508941944138 -0.6085073560569069 -0.11267242539576725 -0.6446632371521736
P 1.7199516771827088 3.2322025755360198 10.445634404697433 -0.7721583293830702 -0.6198150677602422 -1.479117596360988
P 4.121918822827002 6.117414192670196 3.6817076098818284 -0.5142679405553466 0.7993899114055135 0.5755386144403701
P 7.005841884153257 4.06474479065032 10.449419875291197 -0.6272368141456102 -0.1914317429838574 -1.0907426936567408
P 6.337351746234967 7.632710768387686 10.14119552386028 -0.8885825085117858 0.5828086657392221 -0.22457917627010354
P 2.463538487151507 8.333604029979318 5.8236252706399165 -0.7451460624602845 0.5061106015555348 1.2834227072254025
P 6.940549049298687 3.9920990778987964 1.657865814440304 0.08168317610310448 -0.3543165275679575 -0.47436416238187334
Ni 5.327709700009474 3.0437400250276956 0.34606824431281336 1.0087628122488241 -0.9973327160350115 0.027025893769540555
Ni 1.5046907702215158 0.900550929133259 7.091973279577061 -0.1532403195158006 0.7068425388943955 -0.2881841547152585
Ni 6.752464955740942 0.8355581565752198 9.16201475671647 0.13469700929597445 -1.456705547214375 -0.37465061113961934
Ni 2.708688482328627 1.543185248623216 9.261362409507262 -0.41617135609122524 0.28534591393551506 0.2858691334288367
Ni 6.404293572088486 2.0775664628400774 2.8190194964779947 -0.5772424845053543 -0.2674078413998556 -0.879447636090053
Ni 4.2310676095498 6.78635487457727 10.218781901992807 -0.22313473051409313 0.20796805007598373 1.179818819789807
Ni 8.390687953358244 7.110926764097224 0.20886768776034892 -1.430010811532008 -0.02838755000375756 0.8493143070397824
Ni 7.5595334137293975 3.8972055029811217 8.174247522234413 0.09429058045446988 -0.3295465197121292 -0.4279148697803985
Ni 3.052201241137058 8.542899734529012 12.330814979974855 1.050719616296584 -1.0325827974865571 -0.0016149098956036705
Ni 0.16961629545749168 4.838157612676614 10.070875519178859 0.08749489768887513 -0.4120231382508065 0.10194424034498571
Ni 8.625556534711315 2.2937104360192873 5.937664261816976 0.18403313652694112 0.5495025953879246 -0.6718110012115591
Ni 3.391406799412714 2.929770417624909 11.63232131566749 1.2162001866323184 -0.9480755216710963 0.4016592785179792
Ni 1.0716098664428368 3.253170892774024 12.711970689046186 -0.17855283013866025 0.8734299691410634 0.10216561232717243
Ni 3.2459802107130327 8.372179606299 8.082364482249794 -0.950396713605105 -0.5975994508951515 0.14468805907041532
Ni 5.717511348225567 7.946037079947593 3.240703439516395 -0.38844303693802135 -0.167979168387872 1.440597585908919
Ni 2.897574544186408 8.389759832741348 3.7519095720381874 1.5879318243529297 -0.464080006847046 -0.6085132695941778
Ni 3.324843430509774 4.040748817807686 9.062152582690485 -0.36385300630348305 0.8558415666353391 0.84696611852258
Ni 7.469749007644533 6.108448367293395 11.306266235336457 -0.6102757608112392 -0.3582762835466539 -0.052077951642161925
Ni 0.7609669948801275 8.957021747259661 0.21194400211576572 -0.6197574750494295 0.4934857137026727 1.274696125985682
Ni 4.723340982574914 0.309411084297374 1.5204562054770439 -0.8957111491367671 0.4250144083041519 -0.184668713228411
Ni 6.260101473918072 5.480921688835342 0.1855772668041517 -1.0947171049234565 0.7594339398378663 0.5538806698509623
Ni 7.874013117900591 8.782039472895754 11.276988084769322 -0.17059732273700942 0.46293098084426726 0.2756726525118091
Ni -0.052564066083445264 4.922724719371361 5.798673243453084 0.11218211602291003 -0.5576825600955557 -0.0069831161860524895
Ni 7.99830018264653 -0.207945874759297 2.4084405616751408 -1.3632194649390716 1.2210690846888452 -0.28102620351423857
P 8.69771565995495 1.4979235995099809 3.6610024103332734 -1.8135546113961993 0.9931780704366895 -0.0709328795651359
P 1.82229724967487 3.2286703106639534 1.6981029969906203 -0.26491104311993086 -0.6215508195044264 -0.6999033885724011
P 4.669726247909625 1.085162229625458 8.20071698157547 -0.019490247514127725 -0.8025719086779209 -0.22743258655849863
P 8.403564500557689 1.6644176251251999 12.354830776752996 0.5827986384368931 -1.187561182739387 0.6835470587015647
P 6.330179085933526 7.637819937220496 1.1066793094418015 0.736157485808429 0.7817436590786602 0.21292950784631715
P 1.7258267707964516 3.4177816445161264 5.9450504799691 -0.4020434013302754 -0.9850040192663294 -0.30199097869136377
P 6.758556310469301 3.9303835623151717 5.918106147263864 1.5530571239629318 0.29229894821458047 0.778998235123039
P 2.348992183443077 8.486554703291691 10.176711906496116 0.44644686714631504 -0.24955615793041538 -0.31483081076850944
