# total energy = -340885.0902648523 ev
CRYSTAL
PRIMVEC
9.15808161749772 0.00000000000000 0.00000000000000
0.00000000000000 9.15808161749772 0.00000000000000
0.00000000000000 0.00000000000000 13.40377816028848
PRIMCOORD
 96 1
Ni 6.6917643827623685 2.3298708894423026 11.714325540810167 -0.275192627551597 -1.6401108203493302 -0.04741088518379576
Ni 4.460571821794005 0.3888356571705037 6.367089328975212 0.362121368324357 0.48456604261553976 0.056024080774103514
Ni 2.8733297635305126 1.9532631027291911 5.099654804166264 0.17973193804842597 -0.43696695268033775 0.19357398613784083
Ni 3.60854054867091 4.7072539058565575 5.449319515021339 -0.8359335148575023 0.32505763070284016 -0.1971125954187186
Ni 3.6421232336374003 3.1904283364688064 3.0089609509735777 -0.018715059911000028 -0.1902840025326594 -0.5871062646733114
Ni 5.171000838317188 4.973699129858485 2.3372971777540905 0.8710748386453256 -0.06396801821152855 1.433839184139163
Ni 5.075527838378366 3.4392808858537096 0.6573973138137608 2.2764413692660925 -2.168804192301387 -0.6595828345764835
Ni 6.225801194571742 8.42011416122321 12.701902831218108 -1.1990329308244125 -0.36848099199379764 1.3360513891647119
Ni 2.9715410298464766 5.4979809812251705 11.304961128084473 -0.2503424012771366 -1.0463860219182366 1.2822770236567336
Ni 0.8709546169862687 8.084653634819466 11.944709902983883 1.898177586853918 -0.7159673840137991 -0.5149767936969132
Ni 1.118677974918658 9.220264902485066 4.542433165156417 -0.7685582707366377 -0.3917178510345512 1.139209788019193
Ni 9.077050823536068 2.688015983793144 1.491076707361085 -1.218134941761186 1.6401018214882659 0.9411921642877017
Ni 1.7313719453653806 1.5150397434896148 2.8912622029722588 0.21128014516835222 0.6409734470054124 -1.155555576367068
Ni 2.068471768362801 6.841370802618541 0.4629419370942404 -0.1156235376042912 0.6784441902573606 -0.4530402040931165
Ni 7.895172927986445 4.572446945751094 3.706841564185858 0.10476422629228407 -1.156749082454537 0.9761524824129705
Ni 7.674554743955152 4.134910442626185 12.774886330346401 1.2865514826623714 0.9211576142343296 0.9214306653900582
Ni 8.677730994631276 0.06610761151639215 6.408118450032854 -0.8323951626869405 1.1635085126655573 0.9119296678781585
Ni 7.1839746326148335 1.2486952583845055 0.5190086280223424 -0.32516741680782707 -0.024938929333524793 0.7997305825743841
Ni 2.0017643025062655 7.142204622761502 9.870850435257628 0.2068604188341018 -0.248391705308669 -0.49140903367930205
Ni 0.20488917900540046 5.426117515467862 1.4124499983946817 -0.5389405036013621 -0.6762021883007192 0.7496434361100057
Ni 6.414769048839144 2.186043219030868 7.1831787953299715 0.006192759074273206 -0.7290409293683058 0.6141707249902713
Ni 3.296927666568429 4.7263027154366775 0.7363152497727836 0.4489354378961236 0.847467997859663 -1.2714056281598682
Ni 5.976390002213576 5.896842906053518 4.991727729156285 1.2867173188162744 -1.2742307563134896 -0.11843092514609926
Ni 5.049152563575123 3.349733164664088 10.15778503506417 0.7895950368022788 -0.7540929872409271 -1.5703058837410504
P 0.1834153094364268 6.047914618954315 12.653541750088426 0.6139056442543427 -0.3902330389589086 -0.1612379930092965
P 4.161478037141535 6.4742324722063165 12.935691252296118 0.3703555833086912 0.26285416059090216 -0.5665572368773663
P 2.5235917880232046 8.90367002403086 1.2928308006967515 -0.37103126921947716 0.08355931007989481 1.5945678416122087
P 6.588094899855178 8.13139648294299 5.9422028838661785 -0.7674807214017427 1.110009769416469 0.46511076210440544
P 5.179929967807871 1.313305523570922 12.901511460413943 -0.3716804727677018 0.6559560364571736 0.17916269580851726
P 4.197386874816368 6.519455078796043 8.545431517248424 -0.2658047585787939 -0.17590690787538094 0.11820261118537707
P 4.656133494762217 1.3381056083511933 3.890755073257457 0.7151777982329683 -0.6847426216715626 -0.26531290654403983
P 0.3469053808904176 5.995228175918532 3.765255471409818 0.8014028280704844 0.24740543013599972 0.36379361382045733
Ni 0.7038370294386791 7.717158139227612 2.5336894887169743 0.8576585652394197 0.48060731507810783 0.0263347812397869
Ni 2.2768547554714784 6.848184415276045 5.01672562849758 -0.8230983107660471 -0.8363001541683016 0.4913725240144118
Ni 6.156007455239966 5.854926366895726 9.513358312119799 0.4987433625571862 -0.37771716588008497 0.3758849977673526
Ni 9.122007845761457 2.201767645015996 10.356643617382788 -0.673290156860247 1.4163955347414188 -0.48499721661568734
Ni 2.4403539850069977 5.6500051346049736 7.4167263588637695 0.17177334532298158 0.13654331847609388 -0.8531591347071694
Ni 0.7806073952791739 0.13214653742131752 9.455413298670118 -0.3631554660158262 0.2591633420028762 0.37741146171420803
Ni 1.8063125265164006 1.654224266565895 11.89290446739118 -1.0599318789234713 -0.3858775902036903 0.475167375009459
Ni 4.376967695516642 7.155996693544032 1.6285990386398692 0.010501156641639978 1.0469380377669646 -0.06385951765812228
Ni 5.927843012028857 8.344944628033968 8.42403290430943 -1.761131874820109 -0.029108487330182127 -0.1259619434158218
Ni 6.860254766731141 1.3018212893336765 4.943808983364449 -0.2301402152976488 -0.8774941119081081 -0.316825472601035
Ni 0.9778083648410597 7.488783060141338 7.519787745157442 0.5177217034319019 0.4145150514347248 -0.8602746627060281
Ni 5.139973258097263 4.684807448029215 7.517736334894968 0.24541153963442253 0.13748999866007933 -0.508460332734634
Ni 8.239901432897442 8.044413024581461 8.588068797422544 -0.9655394827838145 0.19029582960720132 1.75262435156973
Ni 4.930848466384744 0.25466335211499264 10.632144352400497 -0.9100044258309876 2.040705662158537 0.278199789809037
Ni 8.393235191935878 7.610704599535635 4.869940813560463 -0.0018203410381904133 -0.8823640384058998 -0.7082479038823544
Ni 7.122679592941879 6.517339561962866 7.281495379583517 -0.2782815508895659 -1.5769097622108132 -0.9694928110046077
Ni 2.5351492869126813 5.654245326352856 2.808735067082695 -1.3646891075060625 0.11509337613243403 0.03590596986798977
Ni 3.2681987648122575 4.343055319615111 9.089101943019951 0.3343120594215726 1.5437569296079283 1.7533334618216128
Ni 1.3522456862318208 3.8575487854418045 4.13066933507015 -0.8031048983632555 0.02675695637887005 -0.47448089046539577
Ni 0.5277207109807887 0.6266902664473463 0.8325117381523892 0.7198803459149602 -1.0038265512894713 -0.8924684738297534
Ni 1.0053741902430602 3.9494318174212966 8.57910120398944 -0.022338001375567983 -0.6450033941004117 -0.8627305804456885
Ni 5.242443032324168 3.2343321793183715 4.871522414240506 0.506218844998625 -0.2951839830718594 0.288554907791116
Ni 4.552207585572217 7.070844851488284 6.39546564459252 -0.7689603912710627 0.3429517373744416 0.6430061611647249
Ni 8.577990328699984 7.734247119360547 0.3820376132515984 -0.5114312424374998 -0.3945699757713656 0.24860022177504926
P -0.1762390367503778 5.861538501759594 8.38667708975303 0.9512816873132196 1.0223459502498975 0.3787736321690574
P 8.608981276593795 1.5219449369624083 8.151212739755232 0.10254099338872018 0.3299488973568705 -0.32945036045389714
P 1.9843639476013486 3.601836832991752 10.79257470881568 -0.14490737417007304 0.4099449155655392 0.10500693843070949
P 4.278380947857992 6.348446222406823 3.7614750153546863 -0.3087838332434811 0.7738506294838285 1.266859917770715
P 7.176428373435016 3.9820620619087808 10.543572882701856 -0.3697362045571374 1.8087137383641303 -0.9484542451667536
P 6.791706526487296 8.324018411740424 10.686362942476066 0.7009580550891606 -1.155483585478552 -2.5243792748667944
P 2.3824108031736237 8.615721624599068 6.3140374784864255 1.0359404011048805 0.3549117379497952 -0.8687564749247941
P 7.280061224016092 4.283692635144757 1.6357166996041332 -0.6979537210451979 0.6369211313129095 -0.3836957520610231
Ni 2.913588689931573 1.898818308039858 0.6095783911105895 -0.5857178689662171 0.7568942041351481 0.9359964790193751
Ni 1.4800925043753181 1.3065377013210617 7.161276327545445 -0.022541889856257952 0.8899930157060674 0.07842713105965203
Ni 6.946258310369077 1.1905505987574951 9.482395754278727 0.45492328004844235 -0.054698677094460635 0.5034489955629716
Ni 2.372822291812861 2.023505588055883 9.468012987237582 0.8068376259328104 -1.0498791226731599 0.49303499931849926
Ni 6.511808080719409 2.6358057609968633 2.748766117615127 -0.23098353713455058 -0.9930189191510059 -0.06359495114282596
Ni 4.481095082500278 7.136654825354987 10.66119103958572 0.17666564041827637 0.17998210638601905 0.6395791377610469
Ni 7.377979431723132 6.420987386197269 11.825912185199096 0.5410261824857973 0.4149688511426918 -1.815545416573983
Ni 7.802255032794187 4.128115146131739 8.359373185482756 -1.3802195990414938 -1.1022344963464243 -0.23208679750105837
Ni 3.6728485971668725 8.905236055972304 12.834948692245565 -0.7343973085842127 -1.1786559098299572 -0.9640492713915333
Ni 0.5920653918028668 5.401766176682507 10.55296907435051 -0.8558551934820938 -0.6379305464140305 0.43154192501002453
Ni 8.599447713722205 2.9632254918182324 5.924617535714378 1.2946214041546995 -0.6953738761331636 0.6687375044925581
Ni 3.8770646571798983 2.855251710592456 12.043040224359721 -0.31255075648508107 0.7915454756604303 -0.1403593497880744
Ni 1.1932980232161663 3.9504941548786494 13.030375741415302 -0.05883121120559545 0.177784584514068 -1.3276302549805523
Ni 3.0196575901993374 8.802051951386144 8.549331944171586 1.7862037301870723 0.41382933822160983 -0.7158267446708769
Ni 5.62062600906025 8.143732418762424 3.9378962979274896 0.6171251796329049 0.944681922608515 -0.22697313042357686
Ni 3.275305436078687 8.540231558556313 3.7658315147379855 0.3582194621667895 1.2422590885028992 -1.2661081272063548
Ni 3.5765971602980935 2.749219442650808 7.592958984957078 0.5290358428931404 -0.9699774639505101 -2.2789060287565013
Ni 5.440468229223654 4.880039430062386 11.993003214310251 -0.7267099672422839 -0.15884969528277804 -0.687026789720049
Ni 7.947355676538139 0.10476112622543646 2.93758561096176 0.952067930659941 1.3048747064515915 0.672322650740655
Ni 4.72752989836155 0.60230687437664 1.5171332809271223 0.8209074737623153 -0.46768057971411064 1.515625975699667
Ni 6.369253383640491 5.99624472296824 0.4453538415179807 -0.034527344352908274 0.6899717312809859 1.487271078706058
Ni 8.283851066154652 0.2684233696121706 11.812722716181169 -0.23611545904447723 0.7690025573629079 -0.41855862537647914
Ni 9.278510301008893 5.527451687585183 6.001166275981873 0.16670801498493223 -0.9931155926298703 0.2594500200053596
Ni 7.351256149821789 6.721967735644694 2.8125146073296734 0.20752453478066193 -0.7710959495568269 -0.37944443298383684
P 9.003896068283185 1.938216374777202 4.022742260060172 -0.7649067900269795 -0.7640485557917421 -0.622189995750322
P 1.8052685052221054 3.716422749081397 1.774311442229952 0.14155594119933687 -1.0412343025139679 0.8695110937026316
P 4.9290168500789635 1.41181900657734 8.706329851629736 -0.8494325777852015 -0.17449331535730594 -0.9168283907313566
P 8.82849133276009 2.243711658418375 12.617458908864545 0.2315905745909302 -0.767509260646833 1.0354920007135522
P 6.820554483303344 8.273136110765835 1.5014106865583003 -2.1015035101721997 0.39620031228593705 -0.5649197012739432
P 1.6616148383597202 3.4746219224737493 6.223495189642765 0.9772737405016073 0.5987050252545044 1.4971191751447313
P 6.8078339080596955 4.007997748798636 6.168418487327937 -0.646183530451442 2.1774634106382824 -0.492224587602062
P 2.541138672232585 9.125872556166653 10.778205678896832 0.6082960113770493 -0.8802176814868582 -0.31324444011799596
