# total energy = -381177.27792144276 ev
CRYSTAL
PRIMVEC
9.13015000775707 0.00000000000000 0.00000000000000

0.00000000000000 9.13015000775707 0.00000000000000

0.00000000000000 0.00000000000000 13.36289742606797

PRIMCOORD
 96 1
Ni 6.138811543746242 3.047927094072659 12.353557631763966 1.029805491851736 -0.9747959683850761 0.2256173877266308
Ni 8.795219546877606 2.7839105474388863 1.6422336836958922 1.0897250510255039 -0.1382433318863361 1.1137838917469205
Ni 2.466254369741261 5.108601941921419 9.785743125835154 1.1510175792873985 -0.4885970181518036 -0.3443187929252973
Ni 7.881035890850132 1.815439019699811 5.572675595615926 1.1658885828619598 -1.0447410301156457 1.5484674477097204
Ni 4.499009218986912 9.166122759190445 7.624575456330137 -1.100770510206388 -0.10356789199133777 0.8930968514423716
Ni 6.500383742791463 8.541419638058377 9.12599027198972 -0.8157763231833369 -0.7708876902007626 -1.5511573358370576
Ni 6.929573832502029 5.681610153932886 3.6527484006337247 -1.9406231576126383 -0.02364694999497863 1.3930278065497557
Ni 3.924521922680578 2.6543811098383974 9.373417336131062 0.25690771319948014 -0.8604070745188344 0.13788877676039477
Ni 1.0017783148234896 6.688702216037935 6.748330312466005 2.052238345388485 -0.5638976877673321 -1.9026492494720266
Ni 1.545871341885302 7.561571943458781 13.254230491868325 -1.0875930922841657 -0.8260661351451194 -0.8533008024913563
Ni 8.096251785903261 7.767064228795654 2.994798751407033 -0.3076813442079217 0.18311448136741365 0.2546541412786131
Ni 8.171593783441798 1.4213269661675134 13.056031370326144 1.0547444211852608 0.4633793812355956 -0.6599929255307085
Ni 3.632932323142493 7.068160378871086 8.62581691833549 0.19750520287144696 -1.0333587564206332 1.3138082614957955
Ni 2.2907454969003362 1.0275527281840435 9.305988439570063 0.10040389244105935 -0.05604130716528413 1.665223813366874
Ni 7.27489436460365 5.509552477779985 11.896974353103463 -0.7040945438356132 0.7055636721819719 0.1508993300874498
Ni 2.569571146782717 0.2769393608989265 0.7076350123392665 1.2662091715605934 1.4219133792358545 1.0973733115993811
Ni 0.9009622858583554 6.554078154755126 8.952900888890397 0.5725337661757752 0.7312523351973278 0.6334028337470059
Ni 6.872702128349393 7.362936400748113 5.343688695365588 2.0847322042511323 -1.464684965875426 -0.13709610565577035
Ni 0.5418990520244266 0.6617916163333587 1.5020164925424935 -0.7332549674496532 -2.2485639261295343 -1.3644551371183857
Ni 8.606024579234177 3.6247608389208503 11.899112634226043 1.70766372769864 -1.4086958521043158 -1.823675501880285
Ni 4.228510265875635 8.826453789919212 10.221694091597255 -0.4280722212938692 0.9839784062152924 -1.6740828064194007
Ni 7.057441582808284 6.004990935660645 1.4587204083777456 -0.5571760527727824 -0.6174082580909624 -1.8103816129848562
Ni 7.305179072048552 0.7073665859301981 1.8280577999710195 -0.8732872729156121 -0.044708398650968165 0.21059108952112765
Ni 2.7925750597588173 7.1696967766687205 4.085491944711958 -0.3326305579540917 -0.48913155049903506 -1.0840593680992943
P 6.071084091281279 2.24926722559428 4.300727926095015 -0.7692408986259591 1.4557802071866282 -0.2577114400476981
Ni 6.592616517771385 3.3127197034537392 2.3113266809589126 -0.2997862577305611 0.5930997632525851 0.6127172803731964
P 4.631003797078846 5.862003657006859 4.348901336372838 -0.08859070185621518 -0.6650130044531193 0.09718409995218101
Ni 4.521925895407383 4.250011769051018 10.941192820805352 0.25721907379231185 0.24788442665494725 0.0422545377938369
P 3.2380442068628885 3.758152329957937 0.6053700285741608 0.9722282076578997 -0.6681343236909203 1.863032920631985
P 7.832107417169931 4.043277783318455 0.34869412251491316 -2.384653187787345 1.1047647189674459 0.9288696381666067
P 4.0095144887356255 6.564349573469481 10.91366541865088 -0.9866778074243264 0.1548292612694753 0.31793181829133627
Ni 6.460484987429926 0.2247733360399603 6.499111912900878 0.8442039823964106 -0.5540436777913877 1.6340152489745536
Ni 5.980750387494768 7.824529392696229 11.299024397408553 0.4080165881945747 -1.507761999570558 1.0133897694978742
Ni 6.950646218628901 3.662304015590563 10.0427650645782 -0.5734904736620897 1.1028667306137845 0.1179760969968678
Ni 8.053084436853066 7.0922000637376605 10.18442573244159 -0.9778386118661417 -1.6706696669727936 -0.816729945345858
Ni 2.678986864003007 5.007914648070837 12.405646050348201 -0.002002118031693326 1.2081325791328354 -0.5257525441561784
Ni 4.790991414973635 7.861168684519079 5.290852517498948 -1.7523340740228208 0.8040698333796861 1.587586782308685
Ni 1.9676568799715635 1.8297094441002877 4.612912404916629 1.3451698065262123 -0.3468287038313446 0.9698609929773039
Ni 2.5345022407544175 8.570818720956352 5.92962519973219 0.06187873978266761 0.5983095895882986 -1.6220547341785676
Ni 3.5356414450801252 3.7074069564340406 5.914258244320518 1.181120826430682 -2.8837019974000917 1.6760684693908616
Ni 5.03792545101669 4.325572890188796 8.235433618050253 -0.8139660094474754 -0.042779299949055355 -0.599091976280278
Ni 2.0634869340390005 5.048151218981204 2.0607725404534203 0.7512346918565256 -0.5954129847667939 0.00887313411991375
Ni 9.066558473785967 1.1765476455169808 3.5773680564653194 -2.281401541484845 1.066225425241667 1.0094927484363132
Ni 2.2760642157512856 4.828854146892239 4.592026273849112 -0.9773981818946136 0.8402069454218756 -2.0924683965531257
Ni 7.837439424751427 3.7907287050448857 4.651504635817702 -1.1842948532832893 1.5394842703745033 -0.5813739901752245
Ni 0.6722584202570353 6.01108987583948 11.44910306354273 0.07167284305495399 0.34505567109132185 -0.1948669939176515
Ni 4.053969188931353 3.101219779437716 3.3425953801800605 0.4833604523432128 -0.9794033852501003 0.9747707715740954
Ni 4.556711766786665 5.06518807882208 2.3048990553812185 0.5422351151922339 0.9010523588440223 -0.6219094883954257
Ni 8.66729701567154 2.000598461057245 9.530432177196168 1.0435624364265124 0.9467709439270596 1.6564571229178378
Ni 4.335049985855907 1.1511110477052542 5.377924931716777 -0.09415739731071525 0.8848256125725148 1.041380084063213
Ni 2.029824071105822 8.45251936781689 8.006968049363106 -0.209997936021819 -0.7079874511321163 -0.2269402203031124
Ni 0.6061068316766038 3.834553424892799 6.056679453676268 0.0248355709864411 -0.6738725117262782 0.6535212017634358
Ni 3.8939450504366904 8.627863897958386 12.456264514787538 -0.045332919608844516 -1.0775087114649702 0.03485438867502385
Ni 3.7533407409246347 0.4402677006671218 3.416091261395005 -1.0789302744028453 -0.7421540697114961 -1.724266112142011
Ni 3.4730360067473875 5.956902435777528 6.4865104799146085 0.5230906810532991 1.5133572342701485 -0.4189147231643172
Ni 3.622414390378994 2.0006897625569278 12.493467136863432 -0.05558082258909782 0.4816193012823899 -0.21413458389801188
P 8.248469646175014 0.8408749428868788 7.842350532419384 -0.698961336374106 -0.6414437017736113 -1.4883098043832172
Ni -0.20965015563244288 8.616277737648595 5.438445043796752 0.7023886168881 0.04645597746969419 -0.03650632245615003
P 8.209292172660971 7.694863002846216 0.7938884521049379 0.9348050298144354 1.1242292554499604 -0.642870406917809
Ni 1.9099999829216523 8.039937020898693 10.923500416196749 1.0867315156148187 0.05778348666737145 -0.3686923366736553
P 2.0829158931715757 4.643055595037023 7.395027051856749 -0.10837714045452301 1.529934164792223 0.5907608307067632
P 5.198223494010402 1.5044113308791824 11.144068405161304 0.543862880603644 -0.47199926169412254 -1.3280686280695517
P 0.8729747241454817 0.9619799911116031 11.299332083462486 -0.08316670262716644 1.0114251895723356 -0.024893935028202287
Ni 8.292413057972514 7.634101854807078 7.749785419980616 -1.2151763733534942 0.7397997105467066 -0.7196872560675476
Ni 0.2988553728828705 8.847243141397067 9.393261717087196 -1.0941990276364575 0.8273617140280912 0.7887691984668738
Ni 1.1573104195337405 7.298724056020952 2.1945484108041726 -0.0319248737330547 -0.848087633721533 -0.7734888752690355
Ni 6.608986876664574 0.23880181146627671 4.180195338273305 0.1067437186161581 0.02293424019867018 -0.858494945097786
Ni 4.966719411413799 2.0163114491527154 1.1908892850872101 -0.7584507499889905 0.5871620576119114 0.13873801213456752
Ni 1.420788287319383 2.701629635924429 -0.10909616197139932 -0.2906812101054994 -0.41100986649494375 0.3911534938906489
Ni 5.2233679270231415 4.950915121818645 -0.21692779817218696 -1.1702892830328167 0.2947206702821956 1.3541918075191648
Ni 5.584474488419979 7.246426557002442 0.2330206005063395 0.7479174545578345 0.3933291613857291 -0.1497418194442389
Ni 8.820930049188382 5.064713311023727 2.4619002012213715 1.118547888794467 -1.041172596038097 1.2858493143890242
Ni 0.447056880183561 5.329460269654966 0.2510982974436038 -0.054983041104098865 0.30919726663181585 0.15770118350063164
Ni 5.391198343740713 7.610555198038793 3.08998330387171 0.4337625868104271 -0.34104834970414166 -1.7406581803467893
Ni 3.522722282874959 7.124429493125813 1.1981075816521602 -1.0247103367170156 -0.35717765116583644 0.6621081721014984
Ni 8.140231718300635 5.63422467559733 6.481004999483715 -1.5348657977658857 -1.0994865012876418 0.432940605129764
Ni 2.0156723386549333 2.2913115661983716 2.315215211830418 0.4875148408312184 0.9054589725521502 -0.8059703928365087
Ni 1.8956199967215557 3.0251747603516175 10.9583237211909 -0.7055351329368816 -0.4554498419758737 -0.5020544292082901
Ni 6.338889650151904 1.7545317892611798 8.865160147694887 -1.101786095955096 -0.15551703136511927 -0.46876687079975393
Ni 7.817827862619486 3.283704086854433 7.638539107691679 0.6411565095504959 0.18959597532669928 -0.6379146055744304
Ni 5.657141352017801 2.6179152908649463 6.601365027471025 0.5231274478285056 -0.08352665706974646 -0.080672475450403
Ni 6.080771180397662 0.3900390936314321 13.15817766214166 -0.31004958732978216 0.47314031727710126 -0.7998105438826999
Ni 5.802940716861828 4.915115803792881 5.958689206126328 0.12492553173150743 0.5756553425238924 -0.29142605869132393
Ni 0.07052127835526725 6.244356077379966 4.505060682385912 0.7539454059194692 0.11564384931926537 -0.12412720419992818
Ni 7.268594561125512 0.6076489140062522 10.81376423071257 -0.5416992972934219 1.8827206288688996 0.9532452387974938
Ni 5.721791943943442 6.014194126828707 9.650350305925011 0.13542026061524418 1.3737481323845373 1.9555676947376128
Ni 9.263358856353005 4.6200841377167405 9.72039864251192 -1.6995290144066475 -1.4387307079035092 -0.22666279827200966
Ni 1.4017062738856039 2.9737628858800345 8.511992251695501 0.6202644965928349 1.3193348477409794 -0.7274584153725342
P 1.3790635019641821 -0.26227999210979946 3.536824712516019 1.3844909727233383 -0.12376673553671588 1.277442835492884
Ni 8.708939629677026 8.39876104480345 11.852769819016869 0.9208336552360078 -0.694280900179301 2.712571942088064
P 3.3400918930587484 1.7958822384676798 7.356662161689887 -0.5972924611776939 0.6784161652329026 -0.4080844653180327
Ni 5.680651488186213 7.046476272696339 7.505752032582495 0.7989890764226691 -0.6407186506821287 -1.0220407603046526
P 4.662174129070674 9.015027907364797 1.4810500161552542 0.23552924752370402 -0.5119904573750794 -0.42098086166472665
P 7.005472769188634 5.148162881734129 8.301593423765656 1.6154364575311015 0.26685813954397264 -0.8061262016880826
P 0.6311690933396292 3.351687183518509 3.8952177933422734 0.6023377369110852 0.8287930471579791 -1.5155174751462608
Ni 1.06897621859029 1.344980652132461 6.748196099261471 -0.2796244380707055 -0.2431124591876007 0.4912995046846313
