# total energy = -381172.65480283595 ev
CRYSTAL
PRIMVEC
9.18538899991732 0.00000000000000 0.00000000000000

0.00000000000000 9.18538899991732 0.00000000000000

0.00000000000000 0.00000000000000 13.44374527472522

PRIMCOORD
 96 1
Ni 1.4189589220037977 2.4477592527916885 1.9460358430182598 -1.2610263418080734 -0.34111339861412215 0.38745856153756497
Ni 7.011703579410195 1.4876564477525445 7.189728362909887 0.2687381301755049 0.46026474686601376 0.08834850393842203
Ni 0.11330085711434906 0.8102376691778986 6.720985093021586 0.7868912647178705 -1.414176929823545 -0.3136265060477631
Ni 2.9685616344507597 8.263470047385555 0.1839337443653369 -0.0862985633879288 -0.35178810471914895 -0.11641646581923176
Ni 9.04106835461726 0.7224106519029666 9.563329376079633 -0.6520374181290577 -0.7669222777951114 -0.6753344409837854
Ni 3.636688473321243 0.04406782317585072 4.934741954500652 1.099062783486662 -0.5830979148448666 -1.1359280319441276
Ni 4.3287524364197285 3.9478619028960917 0.28048871844819245 -0.5255196022097659 0.22230297864141713 0.7312402510124697
Ni 2.7010922866398546 8.49532764130852 7.1373110209607225 0.6815783650109681 2.337452618842142 0.2933309890235206
Ni 7.238610248559987 8.441740080776606 8.477948884961867 -0.06843916660900472 -0.5639658220011061 -0.2554331855364827
Ni 6.77435312275187 2.630952654788347 12.768008787959477 -0.8538890708946584 1.0757130530171282 -2.1000508368860737
Ni 7.1585595817729395 7.413858288907672 4.204813980084946 0.042078931447921075 0.47865353378584663 0.49770000889433635
Ni 4.897686257432114 5.241403520905587 6.95744732254528 0.9048174823134095 0.2973403672932299 1.090670702768225
Ni 4.717524033868012 7.519306556803864 3.2374822737536157 0.8372519765586097 0.4226474507338721 -0.6103827187027487
Ni 6.034084237186554 6.988501286317357 11.667759907360566 0.5743289104029851 -2.2528378709145396 1.0277110712165527
Ni 4.156508018337031 2.838937422207637 9.574380317813596 -0.34882233722260575 1.1020069537166504 -0.6977135800099339
Ni 7.031103121378554 7.5470372467671565 1.9388032675703974 -0.5091560732500781 -0.17153397561866587 0.3481034567787102
Ni 0.5199839634822812 4.084200634636786 11.879337080491895 1.004060264566832 1.304738180873727 -0.667003809630903
Ni 1.7230779726810617 1.138602473159935 3.752014708751891 -1.2981273604254289 -0.4486377041500467 0.8573279213728784
Ni 2.8489127548675035 4.232241552204983 2.4979959833472503 1.978042478801361 0.5060612363748381 -0.01908067078053488
Ni 0.8116053736282247 4.928337901157688 3.0238613515276085 0.41035089275470615 -2.2293924954074056 0.5456284571444989
Ni 8.170467981841224 4.689894383185804 7.402946046550471 -1.2441948720730316 0.6712484438398698 -0.9740192381200515
Ni 8.338000295269675 6.441658326305873 11.254807772870757 0.5173753758360767 0.8355352509778191 -1.4234025621868711
Ni 7.84191579591972 0.6412779462693885 4.54053076957431 0.8249973275609727 -0.5506073984163291 0.9807123338695111
Ni 3.766808696580602 2.339031800954823 3.1659345217393473 0.18966051001604756 -1.4995892339517787 0.675433685565811
P 8.241425113330603 6.52468505919034 8.97722255143844 0.08030609324991976 1.068889088116759 -0.9656351278214143
Ni 1.6843707426362404 1.6727971522573901 10.620236079248668 1.2513445957439353 0.6356828880304343 -0.5181724178160754
P 9.071573032115799 2.641883267923927 3.5248288037707365 0.623213809029146 -0.21864532728417183 -1.2688862041721243
Ni 1.9745096309669883 8.714004201744464 9.445078512731028 0.2611135237507116 0.18442625820030176 -0.7075768459572589
P 5.599661255466139 8.429762333273416 10.303850859847662 0.7846541478572358 0.8895682694638228 -1.6758442691951978
P 2.1047584496750016 6.179663470451948 10.819150274843265 -0.18201610609691235 -0.413221786544598 -0.33346410959898054
P 4.8362727453106915 5.289975858939999 2.039698338045322 -0.04204087912113405 0.17603109215807103 1.0462376692658304
Ni 2.708789642780709 6.4620774464742725 1.668382654212886 -0.10869030081956765 -1.808195146856499 -0.29386089338506166
Ni 4.42115745166674 1.5950795743244919 7.580981852517189 -0.20008684755569411 -1.094743844396334 1.1859105345098413
Ni 4.9653825757591985 1.8152074262523854 5.479455741297995 2.351426821634047 0.07172040846343776 -1.104309376597582
Ni 1.9080808963480638 7.82422473634062 5.1808699690685245 -1.9586746157977106 -0.10108857721290976 0.016857952097603227
Ni 3.0374704241508663 3.5521553366096885 11.686674460779715 -0.17259866943775434 -0.08393494825175868 0.16737110249022788
Ni 6.591499580155226 1.3350595771463232 9.744282461652954 -0.9477358789434903 -0.6886864368106591 0.047766725861317735
Ni 3.3513443581474474 3.719458015308401 7.462192725362076 -1.4454955374311687 -0.7363883708723125 0.4152987236782848
Ni 5.560843800751043 9.154213978654303 12.750505110319844 -0.7165535955345723 -0.07952087834446306 0.06216387512325423
Ni 1.216917101390155 3.8654965180332743 5.195725499004805 1.6320432128498472 0.6171146381099436 0.22290693077400323
Ni 5.405978139015 5.529071539544342 4.274210513951019 1.1093466819111735 0.27447914642434024 -0.1280568782716375
Ni 4.8039493607526165 8.237025311908802 8.002362500127342 1.6525860699982056 0.17317793897999206 0.7094565794784748
Ni 6.1676489813919995 3.521724142224664 8.249041638046588 -0.6011156915785261 -0.2957506542086068 -1.3783295811076326
Ni 6.581248685819673 4.11441137968126 1.2727312002616198 -0.07729790255121527 0.7715893442534776 0.9641402884434427
Ni 2.9786747479484696 6.134131496239282 4.151643436222238 -0.17546210702847845 -0.8948778546021944 -1.5387602477242854
Ni 8.69535786168965 5.265395757468727 1.218070786272364 -0.38625040016207673 1.3047150409452757 0.13290083662750013
Ni 8.999109496799331 5.886419920575128 5.184285096769203 0.3533204822032754 -0.3116935506911084 1.7816798741747895
Ni 5.673153554371837 0.7446723611427931 3.478770506757507 -1.5725003202892078 -1.6291957160987234 0.05261968307824486
Ni 3.188634374043516 5.845021371497764 12.755976846660069 0.608509412939436 -0.6731608303712342 -0.07148001031785753
Ni 6.812628639504782 6.601667805988073 6.378815567626554 0.6280073737630474 -0.17119664688390518 0.9122993925127515
Ni 6.1157239763033955 5.92742349791734 9.158954558015038 0.47486886993243377 0.6888070215489234 -0.6052078593700286
Ni 1.3068420615559835 5.057916186454863 7.631395861084109 0.11290896688660554 1.6515820542137232 -0.8549686771120825
Ni 4.087167515345015 5.265414128247107 10.222825623267601 0.5834380717931049 -0.5477681291953211 0.9604060182119912
Ni 8.718404003166265 9.159063864146393 2.2743997284613773 2.1375303218887702 -1.6376459037486055 -0.03518066166619102
Ni 0.8814639325705323 6.200477562355499 12.937628940350717 0.1922868918953011 0.7014182825550307 -0.18308517079137498
Ni 5.1157382114031655 6.95516750894843 0.5820872983318401 0.012043561428095387 -0.28417426222491704 -0.03993977361773122
P 5.442572729546221 4.603974252706625 12.055531215926106 -0.7147561373145174 0.985668906543838 0.02568660613282673
Ni 7.453934141941739 0.8756936710816485 0.30435144102375994 2.0805886143964036 -3.0758199678176967 -0.12765424351658014
P 2.14583551013073 1.560423100912268 7.8274460523294005 0.254794009290587 -1.135347219739993 0.707451376122988
Ni 3.311856370021513 1.7629701179313366 0.8427465985976025 -1.0157747247902826 -1.0220690424394268 -0.4345930531315226
P 4.616907280685531 8.93640084480218 1.4962080450880284 0.4128726307352954 0.9874010587435963 0.18731077883694838
P 1.6930509354203782 2.2488772060592557 12.805409855661544 -0.5274309602998658 0.10710058773494457 0.11814116181982234
P 8.794964222061278 7.986126406195869 5.731068351750956 -0.3884186114579891 0.6507068722430922 -0.22239785234806858
Ni 7.363595839262381 1.5774528124697191 2.4688360468260613 0.49951289373335916 3.5424736489291893 -0.31462460829497424
Ni 7.995008677542177 7.41245292436167 13.339905815524416 0.03867479086237856 1.044295972158427 -0.517807835387805
Ni 4.562428737402229 7.173788957049236 5.864417239310447 -1.4751912647233885 0.7041719340407679 -0.9161447344007706
Ni 5.937040600398813 3.3432520302714415 3.3954057515508653 -0.025976883679735906 -0.36366223044891566 0.5372834276139133
Ni 0.39332571340846856 2.8884191137718167 7.792586581816087 1.4402610285051067 -0.3910030843557137 -0.6165183992868415
Ni 7.7048881599898085 5.136515561749959 3.4671684416721695 -0.7234202407474186 -0.45734937299143175 -0.5358436098435932
Ni 8.444201765079411 2.8037022692764704 5.473486156863697 -2.049095685994445 0.4847930710246812 1.451687010953861
Ni 1.9386315007925525 3.9572585560370155 9.563705977036404 0.33087063784019144 0.5153159222038868 0.8075626770242931
Ni 5.480260381391002 2.011563490957688 1.0294736198154857 0.13096222484389058 -1.5736912552735156 1.7463878837417148
Ni 0.914526740958367 0.36047692458875086 0.256036293886655 -0.5474642248016571 0.5463015719521237 -0.1428952288360507
Ni 2.6249086687016137 1.8741133271250572 5.719842887622391 -0.6474099466593753 0.9933385072739537 0.8784647033514934
Ni 4.975532430813666 2.1802439780348357 11.50355729751333 -0.13911030787232173 -0.9254302734677545 1.3324837264181115
Ni 3.183316033702759 6.731788029247432 8.650983246514867 -1.1524442844315959 -0.9351564996165831 -0.043757347591608514
Ni 8.824100276570574 4.67189102037426 9.736686144793186 0.4274057913544639 -0.29401438824379045 0.4762125284445217
Ni 6.080856238939812 8.938136883359007 6.016600767403138 0.012578865106275112 -0.12423339076048927 -0.36717512869818053
Ni 4.176128009645939 3.818880667896239 5.096658320978604 -1.8154281742698284 0.8212622859985728 0.003911162128948103
Ni 8.608335484507723 2.916434550799986 0.6347985727350702 1.0205484920298424 -0.051356500095105104 0.14246148373274176
Ni 1.2312554939150637 8.193881538885421 11.561271853408115 0.26677072203648894 -0.08234137851239368 0.1327681677043778
Ni 0.5739168946477232 7.059136929185103 3.3796766911026563 -0.43773674096682674 1.969540611977937 -0.7994801571264748
Ni 3.2588291182301616 0.7044403564925042 12.047962455233904 -0.5211916642583734 0.4216303223232674 0.1768294196896503
Ni 2.6492223938863884 8.510235527963184 2.6099686331847884 -0.5226296822564807 1.2833828551264026 0.4301815543273882
Ni 6.436799255424594 3.6840667107610123 10.472220880770202 0.9523582082068502 0.5624758677191409 0.16682782839224816
Ni 7.539321519847923 4.7568558703777235 12.736120790848988 0.060553593213340876 1.3053688724791908 -0.9937586255305079
Ni 0.7197055547866401 7.590686216195963 7.751341428738189 -1.8766602816074325 -0.7026652675882543 -0.1310064478182647
Ni 4.014722350806926 0.5314059949395036 9.803904822882412 0.018800420535954716 0.1674731752857309 -0.12629335861331156
P 6.4058077522990065 4.019765129471996 5.9166196431525755 0.3259210071444 -0.26332184425594 -0.2766998082247428
Ni 8.754144352502857 2.1919369784731506 11.449352478827878 -1.7638569870607559 -1.039298776054152 0.23762109705572623
P 0.7562174768151557 7.48759859332149 1.2613100873433163 -0.22805942150922015 0.36488890376716515 -0.06435985433330851
Ni 3.789018967640967 7.608202753380461 11.426806941062095 -0.5323142565340961 0.9801520904906666 -1.3675381469190837
P 8.191263702966395 2.757058862971866 9.284493109146641 -1.68338660031883 -1.1633632453369447 0.3943845992334369
P 2.758895940809779 5.621651077185955 6.118584306497025 0.0473823459387055 -0.7314845058127918 1.4221877159431635
P 8.518456451287843 0.023810365857186978 11.803917686934225 -0.3451790840430636 -0.5729898798765873 0.5965057036103404
Ni 1.5873362912376896 4.172178292294427 0.45614459007589453 1.2779254315562572 0.38724078909980403 0.5156655922338216
