# total energy = -340892.407887071 ev
CRYSTAL
PRIMVEC
9.06789338257507 0.00000000000000 0.00000000000000
0.00000000000000 9.06789338257507 0.00000000000000
0.00000000000000 0.00000000000000 13.27177856211158
PRIMCOORD
 96 1
Ni 6.272824024437889 1.8794297069700934 11.415693327313713 0.6352488858168092 0.324159544368603 0.20867021834933094
Ni 4.757207265684773 0.4224976334684866 6.1370159996414975 -0.5518430705956432 0.29869379599733076 -0.8491615835120021
Ni 2.9172410304786007 1.7243959347394495 4.55884256518577 -1.6067399581983683 -0.8099702580245212 2.6859363417784063
Ni 3.3323691870393346 4.397946399918505 4.628479451998967 -0.08041613646522279 -0.19493229993794814 1.9775393139126978
Ni 4.825316212472184 4.628860303518747 2.8372404483807103 2.094668489528238 0.6640056462345275 -0.9160460040393771
Ni 7.6836794115713865 6.220765248841227 2.5170721775412446 -1.1717892646171109 0.32889371661947875 0.18577865846313812
Ni 5.0887747852270016 4.368774987081985 11.609607505767281 0.6850249287986718 0.5697726584908703 0.014371438230323635
Ni 5.667487737426784 7.921013383647928 12.462929819147455 -0.9288200158755939 -0.3000845056972703 -0.4187177766621627
Ni 1.5924036794555254 6.441913031327098 0.41025688426487505 -0.10238595586809464 -0.1761845870167998 0.23774939510347443
Ni 2.4808123924901433 1.4724717222979835 0.30704249524703103 1.2146744940164111 0.17065028746213193 -0.43646044535756445
Ni 0.6757439447571907 0.07931776973028391 4.772942780977036 0.37062092115493595 0.265115188710937 -0.09525063037489402
Ni 8.66091720764814 2.261750225469737 1.409250370014422 -0.5800290461115559 -0.23574856262336175 -0.4423647266571413
Ni 7.1163103939250645 0.6975277448993018 5.078645041590173 -0.520715238842587 0.7127892433961337 -1.4075074882231695
Ni 0.8794668634237716 7.583560801335757 2.483600769688536 -0.6243828896365828 -0.5101426055330633 0.7852652990786734
Ni 7.7819118999947685 3.82868219256661 3.6631967664859904 -0.7876011463007017 0.6650016915992095 0.895331140089529
Ni 7.619369912088452 3.7976246579178436 12.840007281724786 -0.45147568781947406 -0.3769399213944282 -0.1069010701296288
Ni 8.106324851701121 8.525778393379362 6.958114647290911 -0.2791169023066677 0.753065317307361 0.868664172321304
Ni 6.911122103696662 0.5672991948676945 0.4564015798329455 -0.3130999441203317 0.686858896683617 -1.107868297593434
Ni 1.6415335255072085 6.332146182590365 9.311399815171889 1.3837150137892622 0.5525917758362096 -0.6591282635375681
Ni 9.214611842155675 4.556026984307392 1.6657810722665667 -0.3199169670421652 1.3604236473614892 -0.6642622423300237
Ni 6.561047013871767 1.9536050743940079 7.0616482261539035 0.6099476880478593 0.8157482981588791 0.18647799852300787
Ni 3.648095096937361 4.223380385459119 0.4366825390016442 -0.7207959157506941 -0.1282671945102307 0.4911254410006122
Ni 6.369505903102165 5.72321900982133 4.609501258052571 -1.051111452418364 -0.37689878374384767 0.3395856491156862
Ni 5.346928640384878 3.0815059181172573 9.29423973383778 1.1137949474905142 -1.406046844517243 0.07346695884089928
P -0.04925951692627514 5.57568438537303 12.440208398835216 1.0251029441697443 -0.15077771690792097 0.5855332637592368
P 4.116995860933769 6.037639143080108 12.672823439223812 -0.3832149557698626 0.5651513576687751 -0.3424172050272103
P 2.3677720342619626 8.528779866070966 1.2345048112671395 0.29464919361431186 -0.3216869144583943 0.5341963040481574
P 6.2993838839959135 7.966098949275276 5.929843654352905 0.18399945507552828 -1.8973332365757518 0.7063028643408416
P 4.6122479229416555 0.7746574319695135 12.506248959154485 0.016798559614577522 1.3357048044585706 0.08933503622140744
P 3.7139189346060886 6.447489785723884 8.257196460894162 -0.3355937543474736 -1.2473203050758905 -0.7822506806220657
P 4.727636865541816 1.0402324510271117 3.656985259556237 1.4807098805487726 -0.32214894169647745 1.0466030230250492
P 0.29088713649367576 5.705019747911818 3.7968965060835966 -0.02128821995481495 -0.3872055649864944 -1.5105045953127019
Ni 1.4447421045006326 1.1751536358560142 2.46928075254479 -0.16699417876678335 0.3929319259473104 0.9354624608927761
Ni 1.9105325810854998 6.741987757340811 4.719298030837289 0.2765278014232528 0.17197080604576837 0.11713740314565632
Ni 5.562327378500728 5.53673778352881 9.32983484230793 0.9678627316003524 0.7848703776331 -0.43146556324613433
Ni 8.785238025176485 2.2764220768746135 10.17809999157902 -2.158173194950103 0.2885279112079224 -0.6675144307187343
Ni 2.2400960962022176 5.227794657840208 6.815084952248014 1.1954680962912896 -0.19236711031393322 1.283135772112603
Ni 0.6884000034752294 8.799519957168254 8.997190963827656 -0.02447484521291269 0.3213259315745498 0.7231315058624063
Ni 1.3822371157899918 1.3023399076760418 11.29940666327407 0.7631792658129114 -1.7175020539453 1.4608113418526325
Ni 4.010239552781966 6.869047078654246 1.588392950236504 0.23344819662495922 0.6127352780953254 -0.2908357334054927
Ni 5.488251757903424 7.985041778437691 8.152017059392119 -0.12327591194322642 -0.6440063202944651 -0.9686461467335962
Ni 5.176733350509639 2.8826832890051852 4.914141668356987 0.7374258109978913 -0.193630293297073 -0.028076189410925836
Ni 0.9667643792827896 7.356872536026413 6.987617945023239 0.790883159486083 -0.13511687044221246 -0.16731145289688606
Ni 5.103174599832036 4.8677992927143645 6.924683138168845 -1.3006817514161666 -0.3820034519602647 0.3866422362838567
Ni 8.094409639867989 6.822429039054449 9.083523655836563 -0.058017714165364595 0.8132512427686382 0.7358944619550294
Ni 4.902084997387937 0.1407373316095504 10.206462548330672 -1.062294465618377 0.32039622067142887 0.7536710692121601
Ni 8.170316974917572 7.386325053556105 4.751044725378991 0.26162851571391715 -0.3984531128758557 -0.0958152446291124
Ni 7.088462893514449 6.114571150075767 6.927443404897922 0.6510727402229433 1.3705975025706976 -0.4643404595972842
Ni 2.478445672331507 5.181666284480128 2.6703349902049087 -1.6746121965603096 0.6822370816408895 -1.3348357715900558
Ni 2.2694035274386586 5.340825948175061 11.596561527636133 0.26852190039964074 -0.5997954301052058 -0.663602754369154
Ni 1.0006873682232373 3.4997262263028754 3.830341617045653 1.1594813937840354 -0.9009852530515127 0.016730682491119572
Ni 3.7170201541243015 2.649856059912712 2.7263283247166363 -0.5316516832494328 0.8180687187619395 -2.7671736885933442
Ni 0.9865323867380626 3.250232209273342 8.345626556629862 0.200078620025578 0.3613580077957712 -1.426695116895214
Ni 3.628499379455322 2.85597834315391 6.959548281226084 1.218089176124915 0.2251131943967026 0.595541025704226
Ni 3.952957670628315 6.974914733259894 6.006767500244568 1.1392990052988896 0.5396694113475866 0.46663414072746734
Ni 0.8216581366677573 7.450824978798929 11.279259617877681 0.27512912130351325 -0.4417314639485167 0.4635349329768532
P 0.2328870771884384 5.465246512530016 7.965867717995409 -0.057262581166894935 -0.5824713370044614 -0.7477809289799702
P 8.728273519289317 1.3426920329861176 7.92435308876067 -0.5041239101428092 0.6544642824029955 0.915424054184662
P 1.8130164562350384 3.2393053978129736 10.379380019783008 0.28146329105165724 0.9840982196226085 0.662509264194659
P 3.9963656759899626 6.411571860251253 3.826227513842691 0.2000840193422167 -0.3608903241307333 -0.05766907257669423
P 6.966291166704864 3.9654169560611336 10.452640436770118 0.18207498435930577 -0.6727152581933833 -0.01711197708993827
P 6.3388382878665075 7.569160986730724 10.175433124151223 -0.1876643055216252 0.13548582374585702 0.21470614013076572
P 2.628537442698333 8.763284655429139 5.769030006914925 -0.712571985179005 -0.8788148876020607 -0.45592163940596964
P 6.713886355917008 4.2094793049871315 1.7035125764048193 0.5892305101051658 -0.8789066759849185 -0.06662216800492397
Ni 5.322318377892396 2.4798058563307235 0.6059737599120705 0.15255974850900822 0.8699949753175855 -0.9203148066180602
Ni 1.756596023947557 1.2295156563580152 6.921219202917508 -1.1344082528654915 0.6033574364248512 0.6035374136461412
Ni 7.060261745264036 0.5138630062744933 9.219055109886447 0.7803408651938625 0.18623965725995667 -0.3204638406845707
Ni 3.056977266664728 1.6420141238535984 9.478200085785083 -0.28935889174965007 0.22038673545531076 -0.4744397528148152
Ni 6.4350395681843935 2.121379236750642 2.7370520153664555 -0.22563898499318558 -0.5797331121376919 -0.14742371283402353
Ni 3.8716912106218206 6.8121823195936875 10.425088549681996 0.2572535265746731 0.6360567264300853 0.5127455903735492
Ni 8.072238640680768 7.221969486984166 0.33097447931857077 0.3463239962807842 -0.21486554852676545 0.15018019253323814
Ni 7.414353911833282 4.206650122268762 8.189377686693252 0.7578460265254562 -0.8281456433819674 0.5282987076167999
Ni 3.0527788320538147 8.015582443166755 12.459863964413222 0.5830416076856346 0.4777243371033579 0.422523266451182
Ni 9.123026119541796 4.756273272671978 10.255328518686508 -0.3130629202348092 -0.08225678921838737 0.49763316021214293
Ni 8.892048740688256 2.291356897186006 5.966460714401133 -0.7560107730889303 0.9082568470122616 -0.7443428498326987
Ni 3.669205152605194 2.6521865084980356 11.6119433950886 -0.8086605380741622 -0.8222015099833905 0.2904798927279707
Ni 1.0926992818235381 3.5105714267232915 12.657109686875536 -0.2640530659950097 -0.2780889752627856 -0.0785078636989164
Ni 3.075802213213878 8.825236502646764 8.048178799313302 0.8938239594163832 -2.2237579228294475 0.45598591698500174
Ni 5.717524372811278 7.954428570562002 3.817905908135488 -1.0670918870070203 0.5346416191156921 -0.5987047681441882
Ni 3.0308254623064674 8.628562964253454 3.4273036826592844 0.6813315391074847 -0.9354442060603307 0.010441249937982018
Ni 3.476358265196344 4.220542134847422 9.205690848699485 -2.043204774431307 1.3657666568409574 0.0043179106490635315
Ni 7.052173184415365 5.932977518287098 11.494475184548305 0.5575246943614527 0.07055004230442044 -0.7811854725823448
Ni 0.41337170562307984 9.10661323261792 0.4579549099600502 -0.10987018006028175 0.22187668973727592 -0.8613272723402585
Ni 4.6538060780643695 0.41767351421793375 1.5659898129800829 -0.48036588849126305 -1.1405506183178034 -0.20232216464411606
Ni 6.093751266994434 5.810225446304514 0.36007425579779867 -0.7487831449922395 -0.3224934695200898 1.3795153738856176
Ni 7.860349177282893 8.40679856502127 11.556878612853671 -0.3558383635291227 1.4459089708195034 -0.7574145954149923
Ni 0.1479454000160626 4.881455540066494 5.790039408966816 -1.3555735183580395 -0.27821727331053375 0.2463646475763112
Ni 7.906042291763224 9.003184841317534 2.469904623605763 0.9843962104790015 -0.32663937336766324 1.3384527995173527
P 8.550751371604967 1.6488785191029753 3.684776539028219 0.2690813724475366 0.6413202888218696 -0.17465066687077663
P 1.8502129546669328 3.3073055298804475 1.5101687684415896 0.5944205389465375 -0.9604510125173137 0.14765151257411346
P 4.775052879754487 1.3411686269069956 8.132043210758297 0.3639982736320957 -1.1103990344350876 0.8890499350665075
P 8.391546368443395 1.4543268677484416 12.260217063797624 -0.013127024300261263 0.45044338990021776 0.635680574037589
P 6.275245151956494 7.868891132797969 1.6426878683278765 -0.10796447839713663 -1.1643621189151043 -1.113193309350773
P 1.8696726537490505 3.2155203136133492 5.921389657403111 -0.9997248704162719 0.7039335927777167 -0.48851679973317164
P 6.796639950429312 3.970005310085156 5.941708992772732 1.037420842305149 -0.2780182699258502 -0.1884718890245851
P 2.4973522299206103 8.632761398864368 10.440802302030272 -0.2943938830703962 0.4845179629864236 -1.5142182967188629
