# total energy = -340866.44950661465 ev
CRYSTAL
PRIMVEC
9.32456961814196 0.00000000000000 0.00000000000000

0.00000000000000 9.32456961814196 0.00000000000000

0.00000000000000 0.00000000000000 13.64745017809239

PRIMCOORD
 96 1
Ni 8.89431538073601 9.509475891312968 3.5630085210151017 -0.6230983664972043 -2.129331845238378 1.2080245928000615
Ni 8.04113590464357 3.4925362207848907 10.947261128072427 0.9673227999364824 1.0682563396287668 0.8743013160024233
Ni 8.592339191822004 7.178799701130608 9.674868581003395 -1.1681488396510462 -0.4762176706508444 1.1794048721808397
Ni 3.5808492201736373 5.106442064645476 8.266355965823609 1.5515268033613343 0.9767651762963049 -1.1609068133766522
Ni 2.82855226339139 2.5473978385609097 8.79673655646155 -1.012182122343018 -0.7661064667620354 1.7574559686304185
Ni 7.938444418816491 4.454654644386435 8.879440827190987 0.003240361314168613 2.058235186401868 -1.7704307836235313
Ni 2.1463853951322935 6.477853149546738 6.37543394115416 0.42246824484353046 -0.38329465996786244 -0.2696976658752968
Ni 5.008105152856465 6.4854899721102885 6.093381560264009 0.2186890360379137 -1.002642301173383 -0.3888459288033948
Ni 4.077764862706176 0.2864218742396981 0.7013223317417593 -0.4711826793300982 -0.8702235463886239 -0.10634262652299752
Ni 6.997735207187976 2.3058168874297054 5.202135460931719 0.9638834352376301 -0.4064731549668548 0.6283218196796728
Ni 3.2238580701791113 0.5656013552130844 12.026283546599176 0.4452227649312268 0.0015377768007650934 -0.7744404405490275
Ni 3.0597083456263197 0.3114536815313346 2.8599592789695945 1.4030643648501513 -2.2674533068348692 1.2142263507353992
Ni 5.715951885999586 8.16575877834546 4.5735195963142194 0.22165428931382472 -0.037086106219020004 0.5579707807599359
Ni 8.608675837892017 6.028455514076289 12.225713712973027 -0.9275056679395446 0.32109710339319536 -1.5961845512800252
Ni 1.0601196508822675 0.5908998451974163 1.8810417106421744 0.9789274740549463 0.8647715221351171 1.2172047166374327
Ni 1.7471446199418639 3.4054633891628745 3.059662655234914 0.37216846814771387 -0.24250542173122105 -0.07986643460933988
Ni 7.279588974744056 1.7152079688061384 9.634144455406265 0.5220259872342107 0.6168482718224344 0.40188707825806913
Ni 7.936626127729932 6.000043550277586 1.0954299313262863 -1.2964389169794124 2.08251282800231 0.11304446402320531
Ni 8.018458551194787 8.228149474038638 13.301610535744826 -0.494728070750206 0.5243700619863549 0.35573397674077445
Ni 4.556712059475637 6.172687957803998 10.342815480508627 -0.5725959868722783 0.05164060699442719 -0.4086637348602704
Ni 3.4892632968290838 8.49425404341421 5.427468349404821 -1.0280861951677842 0.6310844700264744 -0.00926342757979695
Ni 2.970052608204422 4.351385035239528 10.222240402502509 -1.9181787125661933 0.500690458981228 2.699804100899434
Ni 0.4844244489963588 1.9573763678268468 11.289007539105846 0.40067608866910354 -0.1623181134473527 -0.40427974685996176
Ni 0.7714785290599993 3.041786522711615 5.2471171850423 -2.1525825882362026 -0.31916980446349547 0.7814166147565444
P 1.0638401541824585 5.510186606988769 8.433769289762534 -0.34797670139285874 0.1481906729070351 -0.5950080360188914
P 5.013056499353712 0.9973746215414508 5.207402910340936 -0.12138872222284255 -1.0816800692338404 0.23186439707760712
P 2.353829096684552 8.293747821699903 13.281166416733123 -0.02887837359724704 -1.2285365967104842 -0.058338073619260813
P 4.444845197088689 8.386629860229235 10.225393039509513 -1.0703893268113693 -0.24869843791581042 1.4848303304750492
P 1.6210671133707268 5.68892928308241 2.2935084554591483 0.6337396482611344 1.040610295776724 -0.0846581995710284
P 8.447314159671949 0.6545148568888791 1.151743804962487 -1.4742916357272544 -0.7129792479197528 -0.07136919577160612
P 1.198020711800879 9.214194743425372 5.72835356366689 0.7037968100895362 -0.7451185516564587 -0.9001337036844949
P 2.5906078944333046 4.147997521495748 5.037901815251855 0.3959105489596601 0.06524122849699732 0.7889185795605446
Ni 5.19065225337737 3.6776569025360026 10.582396311444615 1.0862514906546066 -0.3630117413491103 -0.7713255490691296
Ni 6.40235210889098 1.643455405159596 7.57687304019777 -0.5125735835720592 0.4841232986511662 -1.1840997065533478
Ni 5.6663358507606985 4.774282243694581 1.376031409175059 0.540825636439217 -0.08809859271114505 -1.4057221141879725
Ni 3.3715592538257955 4.500708694009603 1.6521468365533507 -0.9018098058353371 -1.211680444385094 -0.6866683779393657
Ni 0.5988303917057185 7.655854010256113 0.8839319068794841 0.9568920915214618 0.11521421798101447 0.48978435359168554
Ni 9.011553195255566 7.523006866101169 5.383823768585587 0.9992535872068081 -0.07080226752454258 0.03034493084044451
Ni 8.05473112722923 -0.004676271691844184 8.021411642410753 1.2706396965281215 -0.572631210985588 0.7599327338511557
Ni 5.913259780315485 6.136200916667035 3.3084832022615283 -0.23357932288618483 -0.0385061264949982 -0.7957500006600812
Ni 1.3269701858318124 7.767767495491435 3.840870440293458 1.2925586080883997 0.025416897411207843 -1.0725814493666819
Ni 6.523711383206737 0.659616328957888 3.4595057976263273 -0.28327231923593793 1.779299289757755 -0.0028786070993756874
Ni 7.0007936660412655 3.378739172475287 3.062091705635164 -1.860061753818803 0.76292035572457 -1.076754864018081
Ni 7.600661882351774 0.06489061282295686 5.7792172263282495 -0.4333650942616924 0.1993970205775211 -0.4587213136382938
Ni 1.7917440366957835 6.687441502124169 10.076785507690452 0.36495446689777794 -0.15655755681449166 -0.18423805344889563
Ni 2.531881754622268 2.777323077598784 13.204290002050353 -0.11363993151535913 0.2518894340492823 -0.40293634545818985
Ni 2.605405986506997 8.948276665443293 9.108253645066673 0.23477025787049244 -0.2895879770413206 -0.5254337273641789
Ni 6.419966221006422 4.233261386600879 7.007037397895421 0.09228100622360881 -0.29767383937324865 -0.17463292625896376
Ni 4.576890428251611 1.1839779098708343 9.582857457281676 -0.13334126659902842 0.7844458885011717 0.33080944558495284
Ni 1.9275470694375956 3.8141313042943903 7.322620931335665 -1.607545741929115 0.6414799543281855 -2.6454509800698505
Ni 0.6463847645895392 7.725573817713578 7.955249158284172 0.970267484387103 0.5068698483190626 -1.2281396183823818
Ni 6.798860785166734 8.264347453515686 1.8541561788992147 0.21003907367239955 -0.9077068880460625 0.17298613468416013
Ni 4.38993280627459 7.682401060119882 12.404835899052427 -1.190840367711291 -1.039796284515861 0.677441202914143
Ni 2.550251156881357 5.845106500563364 12.335656916636092 0.9794105843389518 0.3297972022703546 -0.1190636736340917
Ni 4.51079787839759 2.8975447544142314 2.8886463175736994 0.8537564019715361 -0.4090576278645794 1.085751925310369
Ni 6.36624737511068 6.641918952972458 8.390479975047903 -0.4372819128175953 0.7095391118899521 -1.252184318036411
P 3.901577118703393 7.216750699706493 7.760718120817388 -1.128258688324328 0.5850704651902053 0.03453145811796634
P 4.670714248318084 8.034440863617162 2.6663159405358394 -0.1996893550069593 -0.27089914238256574 -0.6405661842646646
P 1.131005029549066 4.252759061790603 11.846600953882328 -1.2956668147000783 -0.2805533776428781 0.13619776221121704
P 6.8597688742816425 1.910669598326453 11.721781331760303 -0.7686441455822246 -0.5697682876154961 0.5288964891017988
P 6.637228694426102 5.454919882527032 10.07248688107043 -0.2860480822088622 -0.5726530653624589 2.8695714715359806
P 2.6438698364149875 2.270840426580039 10.871681761031402 0.21890423737251336 -0.05109784711707974 0.6218503530227162
P 7.3413642488387065 7.283104337511404 6.511867314805979 -2.1076926697020477 0.6700017159169622 2.0508643478590938
P 8.30184154817751 6.811607471912 3.355307461339823 -0.5169166910321034 0.16596188084752705 -0.6215348786648264
Ni 7.21988375511718 5.654586892970621 5.164795221669525 0.9184844382775408 -0.3187723119147607 -0.7743321971059375
Ni 4.969939689178063 2.555081283972833 12.837978944666002 0.5976729844455642 -1.0417081568265931 -0.1548428881162301
Ni 0.6529818976343642 5.400865352123002 0.1602511219718145 1.8826329542510998 -1.2229344200323584 1.054696341556145
Ni 3.5341983980912914 5.742741374674897 3.8192393035621715 -0.6286228958598593 0.46313332666306045 0.13744346169286006
Ni 6.167009294872126 1.2266378161324238 1.1067891221039625 1.339756605930441 0.83740470008639 0.14366501712253968
Ni 0.013681941083635036 2.8602837739942726 8.817631052188538 2.4498831034304325 -1.1338917182403891 2.3703797085874663
Ni 4.447968927929701 2.991694934419318 6.160445730278131 -0.06039289926576051 2.277071546650923 -3.0341830090032
Ni 0.9939058816224757 1.232801356687377 7.403332541525625 0.11910352573309166 -0.4960203071990683 -0.27466683695511407
Ni 5.634697585854561 0.1779612771549045 12.548106979646677 2.144835597300932 1.0939689139035225 -0.6350429404535902
Ni 3.3294867954537093 6.685725781304031 1.0507186197362708 0.06660031362805305 1.7485221564758981 -0.021099500982776565
Ni 1.1027982062832062 0.7852947439469493 13.340272998986887 -0.8215772461358302 -0.24902959600298402 -1.2465443461418144
Ni 0.5919684408821329 5.374905750148738 4.35652567050117 1.6463480595082935 0.951100424540349 0.4748138483247823
Ni 0.5413201757802585 3.0771079926392435 0.9142246363815661 -0.45469985118372663 -1.2681585819774805 -0.16236722151773325
Ni 8.836092767687406 2.337697591147383 3.176294372725616 1.384570676921338 -0.1848890567693332 -0.03272500103684686
Ni 9.029419070752223 4.6766819729098685 2.4891994693934594 -0.20684344955323733 -0.8035792668965128 -0.07523176405080592
Ni 5.376565523550827 8.757029741415927 7.284722150349959 0.23977002507792897 -0.01336639400457698 -0.810431771041972
Ni 6.419611887358784 7.418655606872 11.196859344209908 1.2227207613596554 -1.1894357740542807 0.6178312045609939
Ni 2.5824582205376476 1.6648273188539269 4.545351936240993 0.5536865515622852 0.008297721232417968 1.6583507403961246
Ni 3.5090500336787214 1.3445563242382295 7.134655323376813 -0.2653728132476978 -3.5090508504943694 -0.4860696237442597
Ni 6.295380645583232 8.983626109079946 9.50473900991824 0.6588714103317556 -0.9271076611701775 -0.59546106439591
Ni 6.652996541745959 4.555788927077845 12.482421913487439 -1.061542675054017 0.41607596816394155 1.2581587904522913
Ni 9.210464915555505 5.270461245222822 6.467266965595092 -0.40363671395932416 -0.7292499600553182 2.4234727317577036
Ni 0.640418904911689 8.07643872543185 11.727963521454605 1.0257205231490851 -0.1957807639811725 0.49370477169201427
Ni 7.982848019607243 9.206250210062558 11.221151713126345 0.1591903664516484 1.8866343621010087 -0.7559639790113948
P 4.134756632557725 4.439614113501202 13.219807018445962 0.17055284265231918 1.4598849733836212 0.08682512531536014
P 6.4664958236829975 6.6885977487638275 -0.24185695839357468 -1.3902186192357346 0.6864884007180758 -0.8133394316070703
P 3.038905230682144 2.01327716302646 1.6411335873106045 -0.9987324245960154 0.8889496620432173 -0.9386871384776607
P 4.828793678012669 3.0654709296852625 8.206225545819567 0.6398475609310852 0.6575215811720805 1.9361522663254784
P 5.784785859337959 3.9868316592388493 4.692498307992035 -0.7635903852084011 2.23394746176794 0.05249627012650314
P 8.540606479266968 2.741927011113758 6.988422759453889 -1.2010898133534411 0.13158520313987015 -2.3917306634594167
P 0.4647701210361012 -0.07330323958343904 9.760779571243946 -0.5150382430624678 -0.24954818751061536 -0.4020593421698753
P 7.691772252642919 3.84955534448844 0.9125322269856145 -0.006131566819034602 -0.9014251688024087 -0.45947258998202156
