# total energy = -381173.93807822943 ev
CRYSTAL
PRIMVEC
9.25129076319158 0.00000000000000 0.00000000000000

0.00000000000000 9.25129076319158 0.00000000000000

0.00000000000000 0.00000000000000 13.54019916673156

PRIMCOORD
 96 1
Ni 0.2210558932066256 2.833836896004417 12.611070981535745 -0.30971765791166017 -0.4557807429527312 -0.5108380889381913
Ni 1.7419625503439422 6.211714450224584 3.3774270163580904 -0.499400793635527 -0.10237052924912693 -0.6800976667003836
Ni 0.5856039324036159 8.71876800121642 1.6375654341553691 1.7968596672390216 0.912686600648841 0.44762134707039036
Ni 3.9697288833026314 8.218180655899465 9.955837655503977 -0.31425128411595554 0.07145429928624468 1.4286283293621846
Ni 3.333767399674403 5.632130332746078 1.7578701448786402 0.9203626291368601 0.28422799828098794 -0.38842992431189877
Ni 0.42007798710921523 7.424475412799799 7.139882579491487 0.0521262883815941 -1.3066127721886207 0.5290273582527083
Ni 8.870387406176677 1.490197922447886 5.018620806766154 -0.09076662646161142 0.5418988148987377 0.3024936293593952
Ni 0.20299829868945385 0.2857242661734447 8.47712613571633 -1.8490530614131253 -0.06971931887300896 -0.03878072031262353
Ni 6.084351929748174 5.603599351911528 10.054139096182862 2.3491848196774057 -0.6585430804580594 -1.403669088313686
Ni 4.106166920056179 5.682087303078948 10.792107162456325 -1.3537423786865719 -0.45448207874596575 0.6033157845536384
Ni 8.128174847683079 2.5231322944063774 2.889451030662944 -0.15204501365611878 -0.4217779036447252 -1.4190877368616013
Ni 0.3437048810192209 2.118887891505441 10.244392816662952 0.029506236989233055 0.5887448287179989 -0.8689086842319422
Ni 8.215146232516283 8.745578241961725 5.885735042382729 0.12331679248349085 -0.5161546160550982 -0.008074549478018353
Ni 5.985612903014338 4.740731458773247 12.818953036639778 1.5787653273623132 -1.384620556322667 -1.0656986062039195
Ni 8.101290596611353 1.1396850165271912 0.48225313720479196 -0.4796089557205805 0.28647385689237115 0.5965622678798888
Ni 8.517570928846188 6.834418834132997 2.842670028462533 1.2158512879333316 0.32010517179357134 -0.13600132992969483
Ni 0.7923934100638864 2.482093568407006 1.4676358744390339 -0.9271151173693453 0.8186847550793835 -1.946932387660118
Ni 3.010110990953027 8.538941410599694 0.36344713559150665 -0.6012640442309322 -1.47733762164243 1.6925950062909754
Ni 2.817341844503768 6.593376452276903 12.854672270427779 0.9205114960098986 -1.7275612379535152 -0.5296919884199007
Ni 6.94211311036354 2.6005285932591153 9.227835079682839 1.871676455239596 0.8404547997666235 0.7867058881799419
Ni 1.9866221869037684 4.502779008045149 11.324941732123149 -0.6623701675136335 -0.8160786849151042 -0.4372662290883115
Ni 0.12453902652352217 6.157529639995025 4.993964266519642 0.5337725862471775 1.065588048767984 0.7640472702401616
Ni 8.992550701222147 7.555815988321234 10.318592794543466 -0.4624622687379648 -0.3041041683796246 -0.38546749924946516
Ni 1.3234711596073359 1.869399081146771 3.4391433024298688 0.5641565978556735 -1.8989568882221037 2.040567593918776
P 3.7090737649454844 2.9599227383500977 4.669365151265503 -0.841353657431809 0.3265581265077666 -0.5875451519829429
Ni 6.696260057290206 8.00784330821648 1.891417153256443 -1.7665535600563127 -0.687906364111525 0.2587360246574705
P 5.807368283124821 8.543095240169965 6.366127745007161 -0.2378494110164484 0.5418399366363442 0.9928919066548385
Ni 6.759612896704926 2.9235744167875346 4.594487053769174 -0.9900654929496369 -0.28389709730413043 1.2303826487802874
P 5.144559553588077 6.461166255420044 2.934337368507027 2.011185284101917 -0.7067672055717699 -1.8550187920782568
P 2.437511598030321 9.373130302250587 2.7579892632319982 -0.16520571940779288 -0.6856725896849998 -0.7808993088004939
P 7.166706697172996 2.9540666712721895 11.956741060019384 -0.09943792898336423 -1.175522506407298 0.8598560871113707
Ni 8.141579968055732 0.5935406147829804 11.570384953013935 1.2642273652438745 -0.31981720823950727 -0.06044277866708945
Ni 8.468520585011953 4.190843984770392 10.866321017273044 0.09814389276228903 1.2324662707821934 -1.2536009958782797
Ni 8.316225835823122 8.015901182505354 0.11968117372319076 0.3023383347284535 -0.4971852740414469 -1.0210025488481254
Ni 6.34966044737892 8.079189262884459 10.351265578270242 0.5915265052281942 -0.30411265302005686 0.11429684837306768
Ni 3.1151223928508784 0.4023867437078178 4.780448175316958 0.2891151511699601 1.0563189647612325 0.5851941352522632
Ni 5.2851514199118945 0.4756005339887982 8.656628931154971 0.7926934732219445 -0.4543445247268369 -0.23396961634606803
Ni 3.0160688222297614 1.6243508903732446 1.175377421571866 0.15777266016851538 0.96178747194055 0.057832851848068134
Ni 2.65166972881469 3.625886158050455 2.852270092928166 -0.29181172416551676 1.0140847386823697 -0.30933662042315757
Ni 1.3407618221169901 0.2139046454163834 6.2838439892235245 -0.602924976873123 0.2723171057760149 0.7868511555085547
Ni 7.05216646574869 1.3534453418070576 6.870121415597554 -0.2225202368585458 -0.6041657912587595 0.21658407387976894
Ni 5.269248451022597 7.1904825145351206 8.312273684392343 -0.06692967194301376 -0.8758439778991948 -0.9819716601979087
Ni 7.830116760611896 3.6816159338440113 0.7504462073077205 1.2653650783927435 -1.767126916061279 -1.238633318824854
Ni 5.208245439471683 6.472573096979383 0.3942631852542451 -0.6909400087315262 1.2464458728907373 0.8850014760287468
Ni 2.5345391359657157 4.803806759463896 5.121431326582119 0.06361937662285816 0.15042881820893447 0.3963586922406722
Ni 4.845030511279316 2.717252129312784 8.6225749297114 -1.4469505247101404 0.8490605391577636 -0.5462763751411431
Ni 3.498172088523555 1.412052269040155 10.203270829046359 -0.35036422778842885 0.7868244160356772 -0.20119910678326638
Ni 5.566797717099648 0.49793685050207226 4.200725288476418 0.10610119993615276 -0.09762273015149639 0.8335781272514483
Ni 7.607077390657239 7.678589868559661 8.22305793641048 -0.24383056830054783 1.3276927327873715 0.8372013258263323
Ni 1.9421234781443053 2.4794847044007335 6.101430737698454 1.1987028011785035 0.21451716404841117 -0.3810256614280277
Ni 7.101707127995453 6.621740909877009 12.065793425739717 -1.2352214649298274 0.7490019458712649 -0.3679261479315922
Ni 4.100292350396666 0.6793750159765721 12.625044131163666 -1.828915924343618 0.34233904349110716 -2.017998193258692
Ni 4.728936063000209 2.468558929963119 2.6301160715032976 -0.5097890788483865 1.0676179347138195 0.796299702515964
Ni 2.090366161961694 6.872959711615725 10.706546599470485 -1.3824880833606965 -0.009212519737203488 -1.3470711373139832
Ni 5.9299386349655965 0.9688691831519879 11.271322175761615 -0.2925421745736381 1.1486902167058024 -1.0578593126651588
Ni 6.058429812919896 8.738639773859939 13.120682961030425 0.6769447228936986 -0.9445384550521151 0.13979344998227536
P 4.813039547684675 4.837712740254631 8.029771642805368 -0.594809289744524 1.2590183102391093 0.5746454132021394
Ni 4.746828059412017 1.9152207244909751 6.093969571666332 0.30416047553885683 -0.7466136481447464 1.1385490145067425
P 2.610297956346432 2.3699031648465048 12.519687656118883 -0.12158078362899062 0.8673786207406611 -0.6697636317642272
Ni 5.209226076296735 3.2187461011283727 11.073283494071319 -0.8632964802514873 0.6991045468201895 -0.346955459217196
P 1.8261400453548273 1.6523915527952682 8.550825618764437 0.6813071136274523 0.808462563130743 -0.11960900461460044
P 7.38623982791355 0.5674038680080874 9.25698774725931 0.814660721521655 -1.2011846870600924 0.5882792019354901
P 8.06234266233332 4.455902717549474 5.9551558034347325 0.6849148855833689 -1.4685470199339934 0.1562171427559374
Ni 1.5343913386108705 0.12155641036883383 10.652534788378931 -0.04381725429526647 -0.6725918452416417 0.9023661925594395
Ni 1.2385998177862725 6.657941210786735 0.8746864171383257 -1.1787209587399377 -0.87228325713113 1.227968125801524
Ni 6.654249945756583 7.583653122345606 4.661254544619054 -1.4359991679049593 0.06863071379452051 -3.0767471076176562
Ni 5.6030165205909785 1.633121114053904 0.35080617183913027 1.3623157221778797 1.601428573287784 0.8279512679829739
Ni 6.044071809594597 4.454533526510721 1.8111908845472562 -2.6078709649335474 -0.41132971172820776 1.619723772052546
Ni 2.0675339762614118 8.204507248093542 8.614396788642091 -0.6257201203907675 0.03957467696882862 0.3890973826925686
Ni 6.366877099562155 3.682790847775914 6.998942864633499 -0.3898651140965286 0.2239831945573175 -0.1926771853551843
Ni -0.21289903010616434 5.774812990791235 12.63815135997248 1.8037147424876419 -0.7941425469636453 0.042674398940074895
Ni 7.4920375895296045 5.838064066007129 0.9962826080576097 1.1553609438577586 2.1449135017267187 -0.5992632117508195
Ni 0.8588047262178745 8.476754233826075 4.034911628038063 0.471392224237743 -0.17231713364159354 0.8398397918904439
Ni 0.7576446366810549 4.704031588160193 6.875388175451351 1.6728682172860094 1.4129209459292569 0.2873529170632148
Ni 9.231483788775298 2.6536495050464 7.291032018878984 -1.2876082060616598 -1.3746277067760133 0.9020142085366595
Ni 4.205914337487474 3.623980392145164 0.06803214230256557 -1.0086766802929208 -0.07618487199269461 0.5310994102903887
Ni 2.876892403398709 6.124891086044218 8.013523600769144 0.10798427589147855 -0.41327320860782374 -0.49547857576298543
Ni 4.975769752898596 4.762536751194464 4.25053978893093 -0.10894381159127044 -0.712880003337727 -0.38658335802146326
Ni 4.644286752158402 6.36767271057116 5.95289478796263 -0.06074539750917281 0.3809593269664665 0.8677717424140217
Ni 2.3140901274357266 7.334839656215509 5.7785375604682745 0.37911353200697934 -0.7646463372767411 -0.3926555323574722
Ni 3.752656595915512 7.658986383349411 3.757310920318191 -0.9956761542681949 0.10746131350847297 0.6599106502295473
Ni 0.20313706805148962 3.8181834886687924 4.312106204091711 0.6675301144480181 0.5604500955383639 0.30634437056405306
Ni 8.164347394720396 0.03695058059379874 2.9769349370066007 -0.5912354563503366 1.375527078661831 1.4678834182080656
Ni 3.642353455678697 -0.3960005776669327 7.214069605564878 1.1330741074351003 0.14887278657572425 -1.334471960492734
Ni 2.8109584538501236 3.9005754845548175 8.96596804223058 -0.772701860591366 -0.25617032081282337 0.30082189808392706
Ni 8.062333411042516 5.10191110298909 8.178456538323111 -0.21549803990444177 -0.11432975849353214 1.6100672227993884
Ni 1.8464281260844537 4.2370356797466915 0.13862966754463202 0.10538463348510237 0.8205981700520125 1.032232099015358
Ni 7.3973228742948045 6.418453045785441 6.3410919018377525 -0.5622138723070059 -0.29456383298935723 0.9972327001220375
P 6.354258338907703 1.2369808418958554 2.3552500453446097 2.2153241902397975 -0.772024117798051 -0.6539212654153319
Ni 1.363816038796529 0.7251022961545918 13.273064672352799 -1.6999640450615368 -0.10128552371506427 -1.463103737431235
P 0.7636589008316842 7.831920762318361 12.260785657368789 0.5630811054033076 0.3290685516344462 0.3945285810104689
Ni 7.357301790283695 5.2481647592839655 4.1285827976703535 -1.0867387147036704 -0.24783917523930862 -1.2629526122965087
P 0.27140141775319504 4.674492216628183 2.1316602235872115 0.104300142171672 0.20211699061184543 -0.32491879113213074
P 4.691764376556233 7.442922486659752 11.993271632010755 0.11344761299889496 0.44097375984688575 -0.34765428505643353
P 0.6512473914210061 5.370901634359184 9.365349966685784 1.101260048248297 0.07149595115745751 0.08275841144515424
Ni 4.485719627805555 -0.06168483168305047 2.0176112357045115 1.0041533385012706 -0.10657942512415193 -0.20227537056658065
