# total energy = -381171.65791147505 ev
CRYSTAL
PRIMVEC
9.19560900498861 0.00000000000000 0.00000000000000

0.00000000000000 9.19560900498861 0.00000000000000

0.00000000000000 0.00000000000000 13.45870328520222

PRIMCOORD
 96 1
Ni 6.155182162350608 7.742896044921384 5.75289632979441 0.6527236455628049 0.7164463805327468 -0.5428200411614265
Ni 4.115871912508604 2.8517423216891498 8.94879995791708 -0.1738309991829587 -0.07889635738658671 0.5816213302993403
Ni 1.5828677965281774 2.8197507973206584 9.501306181745516 -0.009639837082609204 1.0427193716999268 0.583484351650008
Ni 7.7575998240145765 1.2312828747963867 1.8809342727800544 -0.41210052845596123 0.20760578164055857 1.9907247022547199
Ni 2.975717524775094 9.533455870592057 6.970895227556384 0.8343947096154727 -0.46552419549274016 0.7040631763770455
Ni 1.0587456595833933 8.154905314634018 13.012129998641642 -0.0869020012998826 -0.3621576208789311 1.3796668118618174
Ni 7.876526637655766 8.240829086895928 2.6556717034396966 -0.20891910113534343 -0.395294512642216 -1.312967767872371
Ni 7.410483968348634 8.53048158073988 11.243037322622662 -2.618567525415445 -1.8813134641087277 -0.3096832051292989
Ni 3.9989957197165586 4.7098255056345675 3.705059911112375 -1.4973194640809953 -0.23871638700243406 -1.1696187393283533
Ni 0.9386510035752019 7.920288541786163 10.431316071365826 -0.4626479023862096 -2.2320314756921493 0.5273815951191692
Ni 2.8733795901108397 0.5366474762211055 0.14562074755590482 -0.9365155847476386 0.26055328037186737 1.603088220378394
Ni 2.682147701416633 5.322657684425524 0.8981397472931125 2.9200010889414423 0.6596843931513542 -0.5263811788791128
Ni 3.6955130296523673 2.5859432380814336 4.845482810634203 -0.5933352763021588 0.571385511503945 -0.5825443563342418
Ni 4.960001249230191 0.843128854441826 7.905790744338804 0.3091916102048611 1.842288488995782 -0.4802409328776246
Ni 7.784800435995605 8.852787682813931 0.24963780045806847 0.1993826223998179 -0.9766327644834988 -1.1574335101160713
Ni 3.1015134584804587 7.567158757710622 5.41699359997352 0.023347416476688823 -1.3477691918222725 0.5540693888230006
Ni 0.8100899501867088 8.273749367792508 4.208536985866961 1.116263720745981 -0.8680409369150083 0.1023432755556173
Ni 1.5817459322071208 0.5142543287240805 9.253114850612874 -0.32835249940402805 0.4297532085407179 -1.110997330140719
Ni 0.7299649290793755 0.8000483449523333 1.278449913009466 -0.2740919382882505 -0.677255055045266 -0.6245338133921502
Ni 2.9188610731595777 8.831444673886288 11.583246356226754 0.5429028306832199 -1.5461411135693888 -1.3444738089004522
Ni 2.3933044211813113 2.6321695654744794 7.195170618310303 -0.7072899108444594 0.387442620697965 -0.7126959123513791
Ni 8.667349027908786 2.2777064180665354 13.061240988637271 -0.7491276728158518 -1.2939955976452424 0.4830115536442262
Ni 3.13449810864136 6.536174642268786 10.313242610257372 -1.7242013203423465 -0.034652557076862905 -0.8344332761628919
Ni 7.6009985995261005 4.1292423282693935 12.433015360063948 -0.3647693474701653 1.3817388638994978 -0.23341631494575932
P 0.5072003769152073 7.599279020607759 1.7368326398621705 0.47177351883656166 -0.6619402790650665 -0.6563334744012503
Ni 3.266363144411457 4.212287874855149 10.789398610550556 -0.05825039900146098 -0.6531566193351653 0.6330431364147421
P 3.32334833455562 1.3665686771847871 10.330294947937434 -1.2850260471567803 1.7465272375330567 0.24081466429235945
Ni 9.319566000856183 1.1327335311179958 3.675747067700636 0.23463861738863462 1.2508239473537748 0.6297271846676316
P 1.418496282275006 2.276317881078998 5.00093090573038 0.3329717433435943 0.48640232449333004 0.5276299636845494
P 2.1361032321652997 3.8919404375383526 2.1804306662608193 -0.8223382926715709 -1.1797542851004585 2.828526637779529
P 4.643709075565739 7.4962514152543305 7.370013172746976 -1.3944707096438693 0.6289327137907942 0.05344037920732732
Ni 1.6734905250856604 1.6299860980125551 11.845960312951563 2.463388337005719 2.340547712827698 -0.07614733388653983
Ni 6.274256105738822 8.402855720805908 8.601780656147623 1.4257034424059059 0.626864775518172 0.7749829433160589
Ni 9.220253421615105 0.45513943549174823 11.611644236524189 -1.1092602928449542 -0.38456324226764094 -0.37614313652474574
Ni 6.159228230393764 6.140781838360653 8.277573821654208 -0.9962770210769873 -1.4722121274904065 -0.34443269279534233
Ni 0.17170409302047102 1.8674259228814303 7.720154383836096 -0.47767548614329347 -1.7218657302306348 1.6344428234302757
Ni 5.09221571814947 5.628816296763712 1.3229621788496841 -0.3390516309890871 0.17409839391173243 0.43552507802748863
Ni 5.638811923952142 8.223118343597937 1.3820071854521803 1.1652357797693094 -1.556330909618197 0.6982504263500103
Ni 7.045197588925251 0.5421280592977428 4.180825098015025 -0.11155810928566592 -0.10456933667265861 -0.03513721002276529
Ni 5.33624879480685 1.9843480937194204 3.240290833677918 0.6614985635419576 -0.592026070572432 0.02634429432148366
Ni 1.49028640321344 3.0167851154131173 0.3898662427855503 1.213492043672536 -0.17936401318604595 -1.1107571891054548
Ni 4.290229858341017 3.2008628201582914 1.5955292308204958 -1.620601546671809 -0.07820318797430403 0.19344388831787976
Ni 8.449413090129758 4.046178390465259 9.956183542375378 -2.6598321884921865 -2.333182016491246 1.0072219501242654
Ni 6.234963267674274 5.457281402952319 10.634313742017342 -0.04311791423539671 -0.9524656803189918 0.7220935515161951
Ni 3.7015821317170996 8.677399828752351 9.267488507336184 -1.0898610623827358 -1.0612464839698368 -1.854982796633999
Ni 8.339930167125658 5.223372692012014 7.947499268937299 0.5423868102787498 -1.1458532614776396 -0.13288386734663565
Ni 8.006800833036168 6.75543474777103 9.84910619073512 0.6561457838704765 0.2875282662988145 -0.9991563995073114
Ni 2.878887760015044 0.491691982017978 4.720169646411261 -1.1146837778533705 0.06312726747778806 -0.17606091695474194
Ni 0.9382923748168315 8.73941501712289 6.708207938098222 -1.3724114158509848 1.1334086079563834 -1.4302026158278403
Ni 0.4378020339268291 6.401817596408472 5.958908321138079 0.8311222095117881 -0.8453902893950279 -0.8133363462832768
Ni 0.46338054044691984 4.357155502018475 4.23622128689133 0.037144727371097315 -2.207859506431636 0.23862819816400196
Ni -0.07076573007478079 3.5708481558772487 6.382964758449208 0.554000226147962 0.6144712869498257 -1.1518737566401065
Ni 7.3193003076306224 6.066683619515783 1.076922620267267 1.5542161772680394 0.07355900433407332 0.7199173698004827
Ni 8.64476461174063 6.504983135899735 12.129737732084672 -0.3864681725998376 -0.3089800084146872 0.46801842266950366
Ni 7.20431841033151 5.0806660330081 5.627541785330118 1.5607480648492862 1.9488501735081212 0.5604318407059187
Ni 3.4141549752968827 5.129154480261637 8.10060524237304 0.03182202960660326 0.27568267981413813 0.18003609955240607
P 1.3100340718908852 4.756640352015708 7.657477111603949 0.14829685946759621 0.3668087464976973 0.5890479617807146
Ni -0.23058817646215965 3.1246680024183315 2.1864740206198223 2.0194164137624573 0.3198462617052298 0.3586357237686017
P 4.445065525865207 0.7360671353371883 1.4408756363582473 0.5049991136589109 1.225165366245406 1.258240037312188
Ni 8.35673054511394 6.0022959639744835 3.39489109360687 0.08971993036465194 -1.4583798495930045 -1.5976703917969324
P 6.494509337033477 4.036320697414663 8.959135822645504 -0.33315223478551653 -0.45356650891023176 -1.2973022934209724
P 3.9398035833670386 6.639376964196805 2.8877265795675 -1.527728415390156 2.0064858217437185 -0.8299551857868803
P 0.7470761186582454 3.584227767247227 11.60780874793146 -0.1458892784673681 0.7305668790945289 0.14599597924856147
Ni 5.216457593901896 3.958268366618528 13.147753279887278 1.4660823604435846 2.3209217110666542 -1.1745837966431127
Ni 7.43943174607557 3.083149826930048 4.5242102950329945 0.04075018533416853 -1.4158720581377808 -1.2648308031558282
Ni 6.876320226169474 3.7225297294496156 1.9774734562897325 -1.207393901194598 1.440406038723403 0.09030742743700576
Ni 6.160111008875907 6.704904875277537 12.726765417362513 -0.45042796328125007 0.4709368818678793 -0.6274435308397774
Ni 5.278702672502159 0.7667574810054377 10.611931629251346 0.7375546232662717 -1.2920117344459943 0.35971970086139987
Ni 6.764538400868129 1.7308343439881932 9.122120639032975 2.1598886349793127 -0.06376310128957405 0.23035027442592587
Ni 4.042941536030735 2.267379748947301 12.465747130972153 -0.6599011371478506 -1.3209942377212733 -0.8665926345042559
Ni 6.200838361973937 1.9703523765337796 0.678681016632386 -1.8249073174048571 -0.5767776290537938 -2.354059631271204
Ni 5.121154300267217 -0.21189718122462137 12.75333245187042 0.5437528373883409 0.698575670899913 -0.21128503026435871
Ni 1.6080821569243842 5.998994740275637 3.3020393493819764 2.077876100561247 1.2161839886824022 -0.6875296974983967
Ni 5.650343217875134 3.0609608219570186 10.731700760694245 0.6654842876625829 0.8357627936075929 1.548848485198223
Ni 4.638403209063692 3.1417350530730945 6.772716056119896 1.4832506446927551 0.699621338555608 -0.009587386578118973
Ni 2.5139416181316525 8.527180357041033 2.418717406736 0.15042213334071514 -1.6604284488607597 -0.3736494235686145
Ni 5.931995531724667 6.454232568785708 3.5163421019704373 1.0313013596709721 -0.34207627674802377 0.7460204946454377
Ni 0.5344478865030995 5.193440984101857 1.0003369891367755 -2.7534609669929417 1.2212611460949934 0.05368103446322368
Ni 8.042847621057003 7.353259692365558 7.346580921411595 0.33561252340055103 1.9622080828722661 0.0012035333897979273
Ni 2.455558695390764 4.634347945411349 5.725776639174246 -0.014793356259090652 0.49848599513074143 0.027010724260888963
Ni 7.025546572088381 2.528856896236192 6.981271552965239 -0.5753714927348866 0.911116942168876 -0.47074610601331185
Ni 5.1035998823254385 7.463101244128027 10.453495880729667 2.2285237196492074 0.10976296505845612 1.7254362211907122
Ni 2.3994286969011775 1.6393380325577565 2.7526274480456356 0.586645522986809 2.03612498476639 -0.4736100578246682
Ni 5.341490292044574 0.8317842313853707 5.648618121591279 -0.8073330775119902 0.6578056880714026 0.08126614317034392
Ni 8.072264374852578 0.5297001934788246 6.291822477972548 -0.8161774152764976 -0.5318337173532517 -0.21174860016433855
Ni 1.5793550738179836 7.292467520017154 8.137535728436939 0.9627806890917548 -2.074606942891672 1.3754612584209023
Ni 4.706561064372477 8.63914609452616 3.577915901099905 0.3763138577746551 0.2833455956760346 0.4193584955699552
Ni 4.904110336579518 5.78885667908887 5.974520626419144 -1.5386126664028277 -0.1813332210972748 0.3382041953871272
P 4.285365381080042 5.699999507495672 12.006065064541044 0.4913961781634957 -0.22208854863776592 -0.01028981196178228
Ni 1.8576969683594802 6.1125605137596475 12.305508123488513 -0.7573472325121666 -1.128945172868391 -0.8564761148955443
P 8.109957176918241 7.554284904846037 4.6704931264505065 -1.7332706296334666 0.6950638010919127 3.072327124173089
Ni 0.9816956501888577 5.19514217180182 10.046693164939837 2.619725550279288 2.452007348862287 -0.42334010592552257
P 5.535784318598713 4.08571950997791 4.900529566361326 0.6994210496193437 -2.3203524688267456 0.25235994592779765
P 8.63658051956243 -0.12509798696792002 8.851304431051748 -0.3854024503394846 -0.446150933172451 -0.552870483418893
P 7.321608405537059 1.4522165811710273 11.370720195333604 -0.8604975773501117 1.5100338263238704 0.45077197688423015
Ni 3.5990602848690654 7.18076845519851 13.396160707835858 0.6664525651131232 1.5076249597720617 0.18703824190185206
