# total energy = -340877.70845546894 ev
CRYSTAL
PRIMVEC
9.21798414219039 0.00000000000000 0.00000000000000
0.00000000000000 9.21798414219039 0.00000000000000
0.00000000000000 0.00000000000000 13.49145156020965
PRIMCOORD
 96 1
Ni 4.154222696137207 1.2693993393371101 7.884417212929267 -0.1678740102685754 -0.19167394090165055 -0.9315677538240602
Ni 1.907753939606041 0.11876634764530418 10.001158517207545 0.14484026837756347 0.04788808193053042 0.13280647714148094
Ni 2.902641719600921 2.3903153946619757 9.46629053453806 -0.34437818540832305 0.6543832926534149 1.1852587598584554
Ni 3.896745970967726 5.91844340906367 1.3849919351395152 1.1688507508140773 0.18516622169011981 -0.8033941474689003
Ni 8.122131502501912 5.241216570858333 6.907663050783213 0.35810787628958973 0.7324890358179063 -0.1563169015585953
Ni 6.606851661690838 4.120945774403646 5.599235689582467 -0.6043123441389529 -0.7340936613008647 -1.2078083630241974
Ni 5.951333175475123 7.325282887749089 11.18821729391939 -0.3617986948776156 -0.9616807711593568 -0.3662505600013821
Ni 4.40462000970243 2.6081640072185546 12.284074260121628 -0.5270823187111955 -0.8447490562666031 0.0015516607578360375
Ni 7.763459750520509 7.44922789872678 2.750758843141215 -0.2651478417210853 1.0281232190533067 -0.6091442183099575
Ni 1.7534448897944586 2.5530404637374757 3.1310421582817125 0.7564576308183617 -0.38644888932612803 1.3452595380265413
Ni 1.832452229456052 1.8431082187978793 11.807569942259912 1.0932814009181944 0.032562507317053596 0.6828646879225594
Ni 2.288511980915314 2.934434545933069 7.015797375844725 -0.512913226299665 -0.45400128245480526 0.8455155021189825
Ni 8.580689327587157 6.22561428522086 4.5270431315448825 0.9364114550696065 0.33776530807749566 0.9014166841619766
Ni 6.29192846110763 6.169651905208546 1.0658911442710854 -0.2806032570442071 -0.743597744136558 -0.03887199447484918
Ni 5.281333236615799 6.857470206868694 7.7723440433645 -0.19148393637803152 -0.543968810053889 -0.9472247436350267
Ni 8.05970731580394 0.34319475708094566 1.0789640889809293 0.14586922386271006 -0.0034164818807166965 0.01975687091195307
Ni 4.471136981234114 4.216923422350971 3.5626069612305615 -0.035158035958371706 -0.7429421128304302 0.7177568718140542
Ni 2.067234278362922 4.7240139324575985 8.747465700568998 0.614094106116065 -0.6750282225972761 0.5459609007832533
Ni 4.717607433675099 7.71794134622125 5.471404376609522 -0.35937105927272944 0.19404809756078192 -0.2821644308837399
Ni 2.890483198889961 4.124725147786129 13.479551821492548 -1.0186350770572132 0.03885528230430082 -1.6100875345143626
Ni 2.2060571152901884 7.201743468061226 8.684811064274536 1.6884221058602082 0.19175621620281172 -0.4445020847151183
Ni 1.4354705365536855 0.026427959725794935 7.2427238589063485 0.4988724319358828 0.4389636713953924 1.1884592690736242
Ni 8.276495860216652 0.5472975121059217 8.145395850167054 1.3459953877513011 0.9904066783391396 -0.7864495491947617
Ni 2.006985535855843 6.411144646365288 13.058092694249101 -0.4184534672571826 0.026398287487870663 0.5047851978758919
P 2.400326125133623 4.096066435966283 11.210451070989016 -0.10855377524170336 -0.34820990044958744 -0.24877094302495864
P 6.79291666589913 5.294524171519048 10.71520751373889 -0.19464793592830995 0.24477030650599785 -0.49653452783132546
P 8.238333407037445 1.7960596291779078 12.766528786564791 -0.4337795560912916 -0.6457109616903975 0.48649616975871707
P 3.5418535923688053 8.327231643380507 7.267440039029395 0.3611440920127522 0.468928850298915 -0.03894655646652648
P 4.180069922879841 4.199888588178222 8.101643611575316 -1.4516055069836484 -0.33948409054081535 0.3363254903071756
P 7.026288363275464 8.733947527238731 9.399413139837462 -0.9409777342840504 -0.6367475818495227 1.521442068160812
P 2.7164660995863135 1.312382798074948 0.904788440354895 -0.7781369155640083 -0.9019764133201886 -0.4670861406632214
P 5.611005211374548 3.9666275066082037 0.4672144337278998 -1.1156651679300333 0.17219423491048408 -0.5276255928091752
Ni 5.461185319702645 0.718717905356288 4.96720186084614 -0.5876935046353491 0.7013681460433856 0.2406025482815534
Ni 4.3419838093756855 5.363474690789695 6.160655152961468 0.12981782682680224 -1.041089806516304 -0.6158954209908618
Ni 0.22350937644482818 3.6708684944693375 11.973055797501395 0.6667536412933097 -0.3047374310882494 0.47644727016314725
Ni 0.025969825927967236 7.782577849045552 9.316656846140123 0.1102897840962036 1.6855234441561746 1.02264265555471
Ni 6.204256216617907 8.576937608156253 13.224036683288412 -0.8838557924600777 -0.8333554697176809 0.5897655566730294
Ni 6.030174591427241 9.019317871567702 7.375533804961924 0.6176777097022653 0.6932902541312577 -0.8828409780423182
Ni 6.281622755152471 4.295331593061682 7.825662705605848 -0.4890806426564416 -0.670201233522278 2.172558260027181
Ni 1.0800619508586211 5.929993542839889 10.700191418031418 -0.19426021357158801 -1.6133070698929248 -0.3845452445455119
Ni 7.3982893199180095 6.535181837181575 8.845251916949598 -1.0504229109917715 -1.0287423406945444 0.8391327385210903
Ni 2.6726622402849607 1.023021066734722 5.555914852635364 0.5716343942899574 0.4301481299862915 -0.6718320842574818
Ni 8.96109708550976 3.78802906932628 9.53801105795855 0.22061736340887814 0.6887576563682267 -0.31919654393637287
Ni 4.05839253593164 2.906614670644457 1.633153887618758 -0.4966036905063641 -0.8197365933826656 -0.3782385856011937
Ni 5.921227240189303 2.080185545685818 2.961009071602233 1.2014487393547566 0.41620889419737994 -0.3327843099231365
Ni 7.131244327502146 2.3179357853955156 9.449668666042227 -0.705197804202121 0.1586424643679784 -2.1110577295195387
Ni 7.359463171900902 8.474341447797656 5.15621661988954 -0.14483024107523446 -0.9073762441795211 -0.32345994719841714
Ni 8.951104791005832 3.7748012624875926 4.7509737698520995 -0.029960036697200012 -0.1202929180555025 0.7337650743168523
Ni 1.0563901683068802 4.909627255456765 6.213164476219933 0.5299164457258809 -0.45684877920592937 0.6359703373638661
Ni 8.261737868057253 5.6468355146372495 12.439508825762482 -0.3275991661777713 1.291141673136215 0.5362462445986507
Ni 4.684348947909258 4.923555629068789 11.664222918854298 -0.3627685149900527 0.47154854730994916 1.6738611773268979
Ni 1.1026460113149161 9.070035218763838 13.399250276897051 -0.5826513142257514 -0.1953609028349345 -0.5080348151614412
Ni 3.599613479233762 -0.14591791910408652 12.727713700128314 -0.10832237595718765 1.1542785094268573 1.0805094459645068
Ni 6.08821101780799 1.6587669775713543 0.23033252809778715 0.7456417711497805 1.024222855557636 0.33017978242075396
Ni 7.932194945072541 8.637490544130703 11.506710619651464 1.5153961190770482 -0.8684428003391174 0.40352332830991144
Ni 9.030121348651285 7.700205945275164 6.705116291433756 -0.8483727690621194 -1.426413066878421 0.9794918311988485
P 7.958364801250265 7.376073978816103 0.5147838394359447 0.8669160792819456 0.422963182202078 -0.5245112155499095
P 5.093968496683289 7.509790052685089 2.4882417243972426 -0.6016160282537123 -0.5019189320716905 0.2783705110589464
P 0.6587125176231053 1.9233415503128144 5.189392143800644 1.4303908205792462 -0.3079952759039147 0.4293819412442283
P 4.316827931422531 7.064017571213265 12.970762436960575 0.30957933256158293 -0.8550026156738114 -0.08037422748369383
P 0.5733355511144508 4.323483315769244 0.616250796771727 1.1423205657340327 2.682670012322309 -0.5195142765559504
P 6.546695099022355 6.569426647220406 5.918510700345845 0.6689326512224996 -0.41649762908239235 1.37188973901956
P 7.2216450952143445 0.3480351204056806 3.218466439005609 0.32144574498186573 0.5418965009058925 0.37082712362847103
P 1.2473591399285382 7.4140152003826785 3.576678213592412 0.7039495336173167 0.24782092040686352 1.0465474871967655
Ni 8.945426512948249 2.8055394776227125 7.225050218452123 -0.0652330009668812 0.24816647667174038 -0.33182220312018335
Ni 6.227098380622273 0.994703420317686 11.213487474872407 -0.8702289457052625 -0.0315597770841521 -0.03533081409081012
Ni 6.808200083138532 3.5359264287470102 11.997300016850824 -0.2884325232806388 -0.4239386587414699 -1.3431260366233062
Ni 4.639060993206491 8.587989970804049 9.403838693888508 0.0814630896724984 -0.677843066338252 -0.26272123455746366
Ni 2.198498368525224 4.667526127365282 2.1568920765760273 -0.7942245651544901 0.15969507400220884 1.0973918235421423
Ni 5.009918919850434 3.0721143528617305 9.986182980629057 0.6905887960396946 0.9734975612886266 -0.038452647549243456
Ni 8.462606954344242 2.309906921453706 2.8305063869067433 -0.3665706623449622 -1.864000683861893 0.3496443189032688
Ni 3.0455296874103204 7.323503816864164 11.063475849136221 0.9215952159923805 0.46262656222997095 -0.13314252032466103
Ni 7.742802248690895 3.5630918271815823 0.6541127436771089 0.23044206280878377 -0.03225526048927993 0.8578431704464
Ni 4.447483634650092 5.890171852565932 9.642272908000598 -0.24674182841007183 -0.3915108772300677 -0.8472869921971086
Ni 8.815572774316482 1.544712863275135 10.726283843144719 1.1506396271226893 -0.3711670234663931 -0.30382006148030255
Ni 7.7735257888953155 1.5778791692023795 5.388943980194081 -0.6882197815868857 -0.0016485913470165158 0.0073096462875357985
Ni 4.6304053063622215 0.34357177262080785 1.7006645578105182 1.1627531225567715 0.6154241377813982 0.5591316338372564
Ni 2.8882985367152085 8.193902724833631 1.350251197569032 -1.137904696054524 -1.3194960559091922 0.19813255204280072
Ni 3.2994851427453917 6.355523331755784 3.7816271795357097 0.46914276608193395 1.3232336685747532 -1.0283067958190224
Ni 6.160424703364975 5.909686324396943 3.941648613945156 -0.5763927349105493 0.47653545900157934 -1.4371731336084024
Ni 0.7040124557048892 6.7579528531192405 1.7430009140814047 -0.28585319258923675 -0.055698836224200854 -2.1267933950872404
Ni 3.046230254183658 8.819342929715106 3.7133468076916634 0.5587932766612311 -0.07208524800202423 0.15411655147316686
Ni 9.01074514657817 4.715450425451927 2.624680790698387 -1.0315836667980816 0.258365014471297 -0.49864617485768964
Ni 0.6845016710674222 2.2739199124653897 1.0030060583801288 0.5631081019865012 -1.1406442064728743 -1.8478230456607658
Ni 4.343993329857103 2.889072847359425 5.936009199106737 0.28615452587973944 0.41878256846182715 -0.9941784866767459
Ni 0.9573798036697111 0.2518685037892328 2.4020176251718808 0.2612886158759951 -0.46561675520654655 0.2748516992724105
Ni 0.5624076312487619 8.926077964826714 4.919023146404969 0.06670058665134318 0.7795026855632833 -0.430882951269787
Ni 2.349617995921346 6.747776198938118 6.004330130079766 0.11267422516798015 1.8621116943692961 0.16587909132573364
P 6.0852243910374435 2.0583204879705805 6.92524266780207 1.0807197622031 -0.2561507804287976 0.18127717104835875
P 1.0649352393448335 1.7320591672399261 8.714573168762389 -1.9042099090909268 0.4449278593986273 -0.38976638373513517
P 0.470668412280134 6.040231411818188 8.115216171010356 -0.3601691296939926 -0.42452846980666886 0.3906091913514047
P 4.008679948976211 0.7098216291332798 10.893119211223265 -0.6014802740067964 2.0307812039559736 -0.9413587717725529
P 7.132156907904259 3.831482645240963 3.52671950646793 -0.902481377981065 1.1741819332190035 -0.407625266293427
P 0.8587741085239836 7.868858177972459 11.513267371570878 0.2063783369913607 0.6670274637799868 0.1041085949861562
P 3.9462834162298193 1.7627550534927678 3.705670070733295 -1.015198540571839 0.04140607375061256 0.40658782616784817
P 2.584676584344008 4.665405991077549 4.7073966729536965 -0.04877819784496761 -1.2822531123973335 0.6390371492146478
