# total energy = -340869.3732615097 ev
CRYSTAL
PRIMVEC
9.23541789095326 0.00000000000000 0.00000000000000

0.00000000000000 9.23541789095326 0.00000000000000

0.00000000000000 0.00000000000000 13.51696761375810

PRIMCOORD
 96 1
Ni 6.009467763333712 5.2405268937211344 9.664496028211202 -0.6711106327104248 0.370987046245103 1.7615036563372308
Ni 4.717063423992083 2.583451072295641 12.977856324704533 0.868638204179375 -0.21528026746668086 0.1162377741495224
Ni 2.8158695916887484 7.6112955340409405 4.028853957354744 -0.2696981800959291 0.24984720680827296 0.015152796481038419
Ni 6.809254927739779 7.273131483095298 10.719982352703619 -1.6421008541961657 -0.6757602156672943 -0.04498247824796124
Ni -0.4564300381423482 2.872538114099784 6.362354917021803 0.7605845085025417 1.1484631882966607 0.5052605948504136
Ni 0.6482625913380086 5.29004720290757 12.312727090198454 0.30994725742396295 0.5506081697472776 -0.3723070506081072
Ni 3.705785196480946 2.6544806690790947 9.23753620763952 1.5856216881625145 0.2987675866580597 1.4686105261820772
Ni 4.945399888804734 1.3022585299238612 4.461761386862654 -0.46972820627175876 0.48337407918996755 1.894782702239756
Ni 2.4050412750439505 6.261049774252714 6.34723007361363 -1.0117437492540189 1.335853928441925 0.4338366345814722
Ni 1.3031174237609255 2.648625414318893 9.800206795717914 0.9901230856604496 -0.28284423055958385 0.3836083345535393
Ni 7.943530446885558 1.1008433074234925 9.792380702841267 -0.13373001739701484 0.2265049325379067 -0.2130369799584589
Ni 5.008487026449744 0.7344595144506085 7.168209750792938 -0.8848911757031277 -0.15335704759932298 -0.2476617691211799
Ni 6.981042930570233 2.5708447272677626 3.9240698327746646 0.42708723167278057 0.44615401849624453 -0.035644488676487
Ni 8.386470310535437 2.6577592423281033 11.786484683312706 -0.7856375948164276 -0.4264971634972655 -0.26031802443260976
Ni 2.7734328478036923 4.350472757664894 4.967282287272906 0.5961256945631024 -0.5953895877280262 -0.4819355469712281
Ni 0.7447588521612972 3.3106293835081697 -0.07816580396516899 -0.7604086450463098 -1.690836885949288 0.780537811696017
Ni 5.568217981105154 0.34833224572637017 0.42438590968576934 0.6792564017460109 0.6958976098471177 2.0989210941570047
Ni 1.7766172842586057 8.86820816353485 6.2899039894692725 0.9921763686450527 -0.5758556314601566 -0.9297571829778827
Ni 3.232174510972032 0.6160476076557772 10.515714309705732 0.23605940899556122 0.17887318959255646 0.7138554798771191
Ni 2.7508707225999505 4.673296779972216 10.721063820104911 -0.026174601512838794 -0.18664923399354952 0.2380622983582029
Ni 2.9448514339300322 3.976068928045703 13.323391162439 -0.41699205222030766 1.6650029556053196 -0.37743460164265963
Ni 6.336493900650328 4.329600713882473 7.781812743409242 0.9186574735202953 -2.536137700954303 0.07306201009299676
Ni 4.299216189969124 7.018982026082705 10.570133084388715 -0.5075671314964033 0.2815663922884247 -0.11201987941343287
Ni 5.017676266964571 7.667733171011904 12.887671548271024 1.987841467169654 -1.3562546035854641 -1.3960732782442988
P 1.95451913354214 7.8654357556359304 10.873372480127452 -0.4162806279755798 0.5994010228802644 1.764657371474864
P 6.0236626001892795 2.083362444519381 8.623162981195138 0.5865737892086091 -0.1794339471920329 -0.9368896802576058
P 2.606872091336447 2.509235256439208 11.481825803888414 0.6427889029475963 0.5769136404110258 1.6600965194426378
P 2.718011106769041 0.21062016322512078 1.8937676330088888 0.7971337683814852 -1.1004730335706274 1.1423701880250454
P 4.3974256207577405 6.304447001568467 4.662313097817158 -0.7111393664975365 -1.9008402212877455 -0.07478079255631637
P 7.267590232533594 0.7336523389521202 2.322525589387843 -0.1824868750857438 -0.0868958306522955 0.7185035201720916
P 7.858970963313943 7.090436452075889 8.470313125701072 -0.4495273058438516 -0.18542898843320324 -0.1652687114352444
P 6.557728329326393 3.6527646640230333 12.591596065966812 -0.21843321127336573 0.0447896455108648 -0.9344322198560489
Ni 0.9924010339309285 5.629023970602263 3.7014731800021794 0.9423823279410609 -0.4228603380756266 2.333940491923826
Ni 4.400925844029217 5.209966896873332 6.8257983312917485 -0.019906252005623782 1.1549878767890558 -0.9149905661916694
Ni 0.7761823605549653 7.705524499842731 8.167681420440601 -1.4644754209677813 0.10519334340990272 -1.8928939698574756
Ni 3.7950270367772023 7.476356847445825 1.2608967886477755 -1.7552530474418289 0.6670796571741608 0.7220878950892402
Ni 3.1530546883684893 9.09813312017519 12.820478343959792 -0.1351225268691673 -2.4003304893132857 -1.0456982518225928
Ni 2.447441077258596 6.71688228087616 9.17574941679299 0.431104837472606 -2.123647393259091 -0.7897505885435366
Ni 4.653135863345214 8.967618198611834 2.947036533734864 0.12689525386336856 -0.911087117372205 -0.7989649080529531
Ni 5.224568092103425 5.432328046496945 11.892268080077413 0.638102038994888 -1.4772728298427653 1.043157744788926
Ni 2.836732400053567 6.464783086571398 12.535500139447153 0.01689034799743543 0.49922030219360475 -0.1222155889995121
Ni 4.7104970420764625 3.957357971982346 3.8272752679628046 2.5731906399425424 -0.489199427622493 1.3693379191319837
Ni 0.23797547016473708 7.942265194673969 12.931236860187148 0.10744357289666012 -0.707097335217679 -0.7296618507817564
Ni 5.370635456909964 6.950279754535168 8.28998328512975 0.023507596203636936 0.5618672876008646 0.2648351955766729
Ni 6.834883211587664 1.7703464357062761 6.320993175745717 -0.6137200106060979 0.7735454395385839 -0.48318356044571625
Ni 9.170270967070985 8.930482584430811 1.5755917963810768 0.10360697275938931 -0.25101628741570964 1.8852068856258628
Ni 2.7401391673454487 1.612402323862482 0.41297278061217785 -1.0001416462387163 2.9423881983873903 0.7148906060098527
Ni 2.298603087171203 3.7492563071375207 7.752819073386883 -0.7892106568796665 0.9535923377242673 -1.1082645045905881
Ni 6.658514441626201 4.915163131573031 2.34900537873871 -0.17772493492072616 -0.7969936432591952 -0.3199573333617973
Ni 7.873350508521566 4.8542186108118806 0.2661314878105197 0.18500321374969428 0.8892551090987783 -1.1300224650929698
Ni 7.8874899328715165 4.885905328607229 4.336364733734794 1.4465874849437668 1.0615280197659975 0.8119230108755179
Ni 8.812001412003958 7.996920396047584 10.19684858738299 0.7954923761233202 -0.2669563556847338 1.0534241597119407
Ni 1.076701925809665 0.3044750946139968 9.644910478100854 0.2231468146989512 0.21331183088640038 -2.3960442032331053
Ni 0.5862116675480377 2.9383589353552346 4.322239162511248 1.220502156441782 1.6709476032245285 0.10243095017341713
Ni 4.316865073008154 2.989264557182097 6.366072172606947 -0.027441126930088225 -1.5279973527808266 -0.4532985999608257
Ni 2.863478169431396 2.2994435101730617 3.178298778844096 1.65776992819199 -0.13958699039842412 0.32604647697867073
P 0.3268876060525724 1.6714997611030644 7.992934389810198 0.26932974101291685 -0.9544058347644983 0.25887126468375415
P 6.598890585582258 8.871006495068512 5.668029756847862 0.2507496640178843 -0.23173301370606544 -0.77954408032418
P 8.915530443331809 0.9511464234990359 -0.07867467547508555 -0.19254297377016516 1.360053408506264 -0.6364207946377233
P 8.758759229523577 4.126911003752912 2.4797687330355815 -0.25797703500425895 -1.3561895546754836 -0.5484222178395523
P 6.650304155377276 4.145464957717021 5.798643497379569 -0.7885282861006614 -1.1775608769935655 -1.1276133414308451
P 3.967581579268692 3.659414164697079 1.8787369908602645 0.3027039455979884 -0.4066901560736673 -2.5853671274040764
P 0.730407936748242 7.753133077585379 3.4190762747095347 -1.5438955120683218 0.4172913286282813 0.9248695158682783
P 5.124687050728695 0.6170468798404046 11.94117238690974 -0.13792322954275602 -0.3288680055878659 -1.7297677586865308
Ni 5.141864927469979 -0.2247937586202015 9.575812007138156 1.3407189698437103 1.0046549607280377 0.2071211286946562
Ni 7.497755310031608 2.6024760325574947 0.936637582444972 0.6291348024992713 -0.6919748777539437 -0.07513843300605123
Ni 7.927165286893323 4.891030985376807 10.796163465425938 0.2612189389803243 0.34229250652388793 1.4923940017549202
Ni 8.766387684463524 7.196523694079729 5.773448354617257 1.8636098761813775 0.17131183230553076 -1.4522817071150664
Ni 1.7201334701996274 3.9717005755195594 2.1089306981528475 -0.8521134670514744 1.0240729602433332 -1.017324842886222
Ni 0.47043831956233806 1.9485715246059103 2.302129169611968 -1.2063407773397352 0.1791845501853882 -2.2885674631056654
Ni 4.834039223349672 5.440058091030523 0.7660446426523263 0.49786970170298134 -0.6634153209486962 -0.4504649871667726
Ni 9.081823372688573 6.20025302017321 1.8487024892740638 -0.4256348154969702 1.3624699883675568 -0.5975953371300934
Ni 8.607270674584168 5.345542827283045 7.195797790256146 0.11105854394142807 -0.40551541903927585 0.6694147330652407
Ni 7.561830637360122 7.756919598802544 3.6427008294612166 0.034830734525940016 0.44270822603948917 0.368739644971823
Ni 7.3386844772402675 9.305976193327139 12.06309559947717 0.20032724570127436 -0.1598845643051956 0.20529693100172386
Ni 6.6474596467556 6.5977915708875186 6.400338342538769 -0.3679624004861663 -0.3673993288938447 -0.5838522765123881
Ni 2.944094129686599 1.0844412057608461 7.842855159596984 -2.43986891372754 -0.24119852999433944 0.04188712715208915
Ni 3.380559965596885 5.523527795325004 2.708286212033249 -0.6727263139369769 1.870102940104889 0.33219809840236336
Ni 7.174931287724285 7.634753494752158 1.2707805325663364 0.250569172575962 1.0247193355780804 -1.8026616186327793
Ni 8.74154441111188 0.10254730643667036 6.577613106967071 1.1342799548177431 1.051443381836486 0.8268012135389308
Ni 5.8314550890389425 2.392868994643406 10.706573449886053 0.43373764710976265 0.08858941630463453 0.7543598677490686
Ni 5.399366841072403 2.045155521896426 2.13490992786964 -0.4211379560678812 0.004109651292999374 0.09230980257901522
Ni 8.740399219329127 0.8983392291877489 4.489363279452267 -2.46965694362325 -0.5022017534194319 -0.6643296052328495
Ni 8.574466471258875 3.3385480509215593 8.988228880076097 -2.4612502076167937 0.8545930389402185 -1.0606939539004765
Ni 1.0216218952263187 0.9397222119243209 11.781740449290126 0.3927789453092138 0.43933236758872085 1.109096256463264
Ni 4.556034682668939 7.8838604137536 6.050788868772345 -0.30441424342087575 0.44341682207073957 0.06386363142318033
Ni 1.6072027837520824 0.6090924146590774 3.82131380590017 0.12113109768608171 -2.6411387258477417 0.058453259040886434
Ni 6.970246727392511 9.088814583813923 7.905276423632828 0.15038665211708938 -1.4987996481709476 1.316307116658249
P 7.290244711913364 6.8812173017011204 12.778129336541962 0.34546036272890823 -0.31978918321504923 -0.8675357151438156
P 0.9721385277102944 4.631201746538466 5.890640262746753 -1.3110834063654646 0.20589651225893574 0.30719874814454834
P 3.626526842613361 8.24119719164274 8.096595487609772 -0.6067312379930906 0.2422629667031118 -0.4432802964928753
P 4.049453556317881 4.743467482918605 8.903625990041746 -0.1610127643723679 0.7710612396641495 -0.030279110599515595
P 1.72033664938689 6.187341906364438 0.8413834852892655 1.0656649247525067 -0.5132497837034774 -0.4348043978113802
P 2.7805164131050715 1.4536085535992267 5.4105712497081715 1.4490850545546399 0.6563311604084051 0.7141838097508152
P 0.6837940134814205 4.7361807384299635 9.902719007567693 0.21792850372280534 1.1150851270568474 0.4570863491380322
P 5.7222000987973285 6.802356070790457 2.4143598114052174 -2.031369472359276 0.4050904156867152 1.346642534416997
