# total energy = -381171.6582473996 ev
CRYSTAL
PRIMVEC
9.19056395019638 0.00000000000000 0.00000000000000
0.00000000000000 9.19056395019638 0.00000000000000
0.00000000000000 0.00000000000000 13.45131933754956
PRIMCOORD
 96 1
Ni 5.811754250130865 9.124042711154576 9.81737794127542 -1.9333016842505608 -0.19966518663724322 1.3265946146271863
Ni 5.618917835999941 6.866399042370214 10.11438296510438 0.8647776927827041 -2.322570816634303 2.4744548792325256
Ni 1.6274650755077773 4.040897994884708 5.3479754136004205 0.9458034378074679 1.2606540460703193 -0.17847672548508617
Ni 3.576177125542881 3.8709644662753857 2.6066911803960746 -0.32800514336693837 0.20247205995841905 -0.7305098006043483
Ni 1.2365352446302147 2.572089625941708 2.579048721012718 -0.34901645551128274 -0.00554664084984206 1.2219576579413858
Ni 7.0446592219757544 8.020614405131651 11.801945138696329 -0.9858825652165408 -2.2437369370545355 -0.8259684332249904
Ni 1.5667889718907548 1.7795413382389 6.009565516562289 -0.1831543334664136 -1.1318564329779153 2.4498062274459103
Ni 0.6711602372691101 6.1622731710411385 10.103904803072606 1.2458678889000803 0.11880527776638249 0.36344034424609667
Ni 4.079406458101207 8.224690879051067 6.81395400788367 1.2386207204193636 -0.32923850155340717 -0.4419512932688066
Ni 1.2642447951308693 1.9647955370587007 8.45734265460121 -0.4556493595811894 -0.4224075668089241 0.006713921685065856
Ni 5.596713433343363 1.0702319888062186 7.709314378036121 -0.14348606834251418 -0.10898674901406392 -0.4448057319984662
Ni 8.823593982989765 3.8518480931273387 9.78186652098372 -1.689577045400258 -0.019723446570856357 -1.0008836666110634
Ni 5.247242236730627 7.658984092329077 3.8955694442522857 1.0925028708809572 1.39783911189547 0.8001504437206219
Ni 8.775674382223457 1.2386031215332487 1.7318165774296794 -0.5489631779446867 -1.1018470311000186 -0.35601936919167715
Ni 0.6215606014011388 4.903533523754346 2.874371871627209 -0.7982575975732833 -0.7502594724274498 0.5981494098613506
Ni 6.663305958800242 4.242217299600079 6.174747523576641 -1.118013870667868 -0.18220636773084747 -0.6138303109317171
Ni 2.7729677835844315 2.426446758020024 4.319003542876338 2.7349472244594706 1.834240421880325 -0.7168461870743268
Ni 5.70841554836325 4.0376629163519615 0.8057514519645791 -2.0373819971019427 -0.7254838081446666 -0.1754993880243171
Ni -0.07882562943085107 3.9312269945118015 12.23154059143502 0.6974765242984633 -0.28061765522191023 -0.8768245966449094
Ni 7.43514790578067 8.298573823155467 5.844584782899834 -0.6550173266929881 0.18826388677883707 -0.7241882292616948
Ni 5.889855663117454 4.170245992810485 10.437887142153418 1.1803435819450252 -0.7097334872889455 -1.048144142259924
Ni 3.7914109441746664 6.212021694046128 2.4526325130072433 -0.16701654736428656 0.8007240568359049 -1.2749550360740236
Ni 3.587987000300208 7.59927299793347 -0.012106729974962703 -1.5006351587177897 -1.0519087515086787 1.872122284527763
Ni 0.5283976921092524 5.250192407778956 7.8087333042519855 0.8078655529766926 -1.5020778047015872 0.5625979951193021
P 8.089911257793323 8.79251149549616 9.569819989951808 0.26078313699448635 0.4126702849165022 0.5001888367544611
Ni 1.5088884186058047 8.735088851539912 9.541612310881623 -0.9998202583435556 0.14273479199878644 -0.7745597397357111
P 2.4110801349894784 5.415245746897118 3.999346535923345 0.6492084333206948 1.4082227691226392 -0.3009843918037204
Ni 9.164370906045743 1.472411070036286 4.250589903416363 -1.3329177286317366 1.7446199932080149 0.6150888659291666
P 1.8431124695201702 0.5806579962591274 1.3492345358455644 0.0732288746881642 0.04888309885394807 1.2759261417380412
P 4.683750375935886 8.545027987741058 12.035366164454398 0.5712253317769969 -0.09423350196428933 -1.8849752292310311
P 3.9343242145843456 2.166620322794813 6.28511516870177 0.35840175338092467 0.4436698186218101 0.8889427200646819
Ni 8.553520068889519 3.496338695957744 1.0037897253271362 0.5520821831896429 0.499418791357656 0.5103374951526889
Ni 6.88070875053921 3.2016984042494547 12.339285249590702 0.23601698579339997 1.7409906239855435 -2.407802115099982
Ni 9.099108710985993 7.376760252603005 8.185894751180948 -0.9895073064533215 1.7713959757502784 0.20924126036145255
Ni 5.666681197178018 6.827026666136449 0.7994660252357573 0.6063121481778009 -0.10115491167447095 0.609213380984996
Ni 6.882032191757152 2.751222909128528 2.595163455953961 0.11765573754297157 -0.668443627401223 0.5528730545220543
Ni 4.150927427254141 4.606384208070375 5.989173493129171 0.6098607847610077 -0.8410474390452998 -1.131144237402239
Ni 2.542541962638356 7.414606995210533 11.334122453999951 0.06577704639580931 0.008565373071507829 -0.2784162766952173
Ni 3.8792175927594945 5.222069281897694 10.451298932218293 -2.0017490783896816 0.24618261347249218 -1.3633626753851553
Ni 8.651151430404761 0.5257710289141986 7.180583068453179 0.8354334352926321 0.50458542316026 1.0458877421255794
Ni 5.145998983558086 3.0585921319954927 4.123838239824396 0.7061439701654741 -0.17305709713141162 1.6039436264001536
Ni 1.6302038635837959 7.345889148081712 2.6613970936299376 0.04195140473112129 0.5238800097238138 -0.41627265755577986
Ni 6.954003498546746 1.6969825017057718 10.121324598103763 0.610986927945651 3.062069708111139 -1.1171026717075085
Ni 0.36850301657185874 8.644387175290836 11.577429769467326 -0.49199138854533336 -1.446248613547109 -0.3829974404424178
Ni 0.6913335252787078 8.203644487460188 0.4498808656292544 0.17693560625021143 0.2488493616713779 0.04743068267813767
Ni 2.6217646244345896 3.8544214510511146 7.612437561826385 -0.1997693163152753 -0.6581497016743827 0.01807845476826564
Ni 7.709826292451671 5.779807849619995 10.952965868894328 -0.40349298929260835 -0.39691482185445837 0.23640779347391538
Ni 7.519554045680508 5.311419945236787 13.303381848 0.2482811478727337 1.758101058413585 0.4171314060116494
Ni 7.679984531099888 0.830662475723128 12.2214383234714 1.6273499211392362 2.8251947451928183 0.14088231217107994
Ni 0.38018698060220113 6.610846219411274 4.673055316593395 2.8976597451317643 0.7119752321352706 1.0947189046956693
Ni 6.153055035335614 7.672200123380467 8.197260721696424 1.6648144937435974 0.15194242663998347 -3.323138237556529
Ni 4.11576432933855 2.7535297406959125 10.210722133319324 -0.3946900462889977 -1.4748408233625052 -0.19114429365042565
Ni 8.77984689828558 8.6051710386453 3.4539224049227113 -0.2880913378911361 -0.9040001286184366 -0.28314916339451235
Ni 2.3730128188456274 6.225155010021397 6.383888917323889 -0.256869403762377 0.1447857609905442 0.2857902005617852
Ni 5.136229414011752 0.2983808512617772 0.6864303593775141 3.5100648935811805 -2.0820014355835306 -1.9869940315676942
Ni 5.355562224193552 5.487070004662497 4.039538710467114 -0.4929833201449575 -2.1819900948640423 0.8301971265943572
P 8.086345318956091 3.403458856037473 4.294804787828834 -0.8463115156577167 0.7522564482528206 0.01427810718556896
Ni 6.915228508973856 5.187439236694886 8.593442959907692 0.5609260067335179 0.018401642435639277 -0.19094194783163243
P 6.863660254294198 2.0717001776635486 0.5114806209296321 0.006673555365433667 -2.6972990750893935 1.9603129227320821
Ni 3.2766934065994855 0.6539169010670112 8.507730840861537 0.6368496546450259 1.0484403333441041 -0.22336715823987338
P 0.7035055082581664 8.906658300543635 5.3410751381390975 -0.830806478043582 -0.4987544183007797 -0.8463043165688651
P 9.221352402929346 6.552927284998297 12.62059279008463 -0.18889920636999083 -0.23966872361337432 -1.4856602825755123
P 7.547842601714013 2.9980906490947263 8.001772829847608 -0.7527323594479747 -0.013041149454674312 -0.022196847812013382
Ni 4.418850749375231 0.735841588683209 4.604117814984651 -0.36497786393654563 -0.6487176097272054 0.8867158876166923
Ni 8.033150334446045 6.0829402224767435 6.536870450610339 -0.5718490814039248 0.4077903311163815 0.06490158576939144
Ni 3.06858227507815 7.605375532438424 4.47598021433945 -0.8052383997664906 -0.020459810516248633 1.0359074909844161
Ni 1.934071481561623 3.692787001745968 9.940403750216321 0.0113961576520836 0.7328567035699701 0.13439439045389115
Ni 8.63297249478609 6.7877737672348575 1.9526612353916974 -0.9570494430349324 -0.40459804943132904 -0.3031999113978004
Ni 1.2687665526255039 5.821284865012849 0.7933680860128106 0.8553422584014172 -0.6188779006579536 0.4392732322160112
Ni 2.102801046285179 0.5432275862014104 3.561532880843795 -0.9591973426158706 -2.4016039567090703 -0.455242611061074
Ni 0.8936325441179161 1.361876156646112 12.977819903668346 -0.6382182528577782 0.06295706044851093 0.011451436370051245
Ni 5.326915236163521 5.521929813965642 12.154599027626935 0.7124305745051344 1.6076159330454185 1.7856856529000733
Ni 6.957569437383978 5.07803476267837 2.218405474785191 0.8757452475378014 1.060396734375032 1.3017433599114614
Ni 1.9830388066254667 3.281536833834592 0.7308474361982817 0.5325906501239344 2.0332959999580273 -2.161765026066419
Ni 4.1647132732743675 3.5521438006476194 12.47211739033399 -1.191513739629232 -0.7592441924245634 -0.6303581333834111
Ni 1.928658239357681 5.27974926164632 12.104250360791864 1.1162495796785936 -0.7785076686398658 -0.43179440734046287
Ni 2.7972676348360834 0.5957489023692684 11.274263391523728 0.5491426409453445 1.0790061219461031 0.03899952119164896
Ni 4.506795256420261 5.870031616540369 8.017026408940788 1.4551983665412294 -0.8144084963015329 -1.209561341159562
Ni 1.7958913516188884 8.574842177400802 7.006321703249906 0.25178196193714053 -0.10041957617034318 1.220269985826318
Ni 7.051598097805934 1.7160161597776975 5.884642775209006 -0.07196723436692122 0.6158594255466039 -0.6563314175187213
Ni 5.024141295303299 3.3875959425501994 8.086731322644656 0.7498390970605795 0.094934641796372 -0.42116623820265536
Ni 7.42053490899923 8.716330910388391 0.5621491193923717 0.35954203763295495 -0.4766956387285274 1.5506577704928197
Ni 8.934459756684424 3.6338019619074267 6.239663234373083 -1.3948324638586624 -1.1871498062335812 1.4988608404261863
Ni 9.219514290126648 1.6395139049294551 10.571701754189746 1.3145268848293747 -0.345603830285308 -0.23549942272703311
Ni 3.70671989679041 7.600403437307129 9.289306514188647 -1.2723991024213894 1.6469437841107637 -0.13056704628800095
Ni 3.404056242698349 1.4864450612848763 0.24110709444254652 -1.1405513896487518 0.4605827923270649 -1.1923904858072303
Ni 6.5205305468507655 0.5235276122385071 3.695978884627851 0.9374887472941854 0.1955066843841794 -0.45658755512474264
Ni 7.538532560368353 6.168881186566834 4.256966316728919 -1.7204112571722951 -0.03913347566635196 -0.7826499729430134
P 5.757033631994581 6.770137074892982 6.054089203925614 0.043154166789970846 -0.6195096207046814 -0.1798602360961741
Ni 4.652327837573783 1.6070620233978425 2.2930190687286625 0.3518778362194778 3.4794805930364205 1.7723061462693737
P 1.848139708035546 2.9308157205160223 11.914519438241097 1.1425967022135548 -0.435255883526502 -0.3121902878218688
Ni 3.890218697883635 8.807381828069978 2.286589350144829 -2.1185733211702935 -2.9123541139191453 1.2626371379386192
P 6.8158785119880925 7.824000669191185 2.4622770908829934 -0.060088737761780385 -0.1093302483964117 0.237860466760042
P 3.534626585637919 5.006908987778017 0.526202066366431 0.01754263686945366 0.8119420370389113 0.4441943236667124
P 2.4835385416717877 5.943013885371446 8.58995881709018 -1.4148065929877442 -0.6215683030059231 0.8524772781487964
Ni 5.475425560057412 1.3476675446812652 12.135686684999987 -1.6636096748022189 0.5421461550228533 -1.4926151166267907
