# total energy = -381165.0320585536 ev
CRYSTAL
PRIMVEC
9.26893412786716 0.00000000000000 0.00000000000000

0.00000000000000 9.26893412786716 0.00000000000000

0.00000000000000 0.00000000000000 13.56602201436033

PRIMCOORD
 96 1
Ni 6.329940475358189 8.493328232093313 3.496167790929108 1.791925720272514 -0.1400654726967394 0.26730396883213964
Ni 8.007098487091937 1.1723625917307003 8.051962908814653 -0.7470754182725133 -1.2354469506770722 0.5819080083018237
Ni 6.239077114378958 6.305535371873713 8.791487596638405 -0.9500056488142734 -2.7464140874484895 0.5032443357513333
Ni 0.9905524493653414 0.17494186219749083 8.838751745399527 -1.1786541100577441 0.10591119541253373 1.0309735440179084
Ni 7.123426116830086 5.036803672308568 12.382861244172444 1.7690596143076176 0.6062594405629946 0.17198597555441994
Ni 9.22620431348736 6.412433988845402 2.835067554522808 -0.6651600715539447 0.22864974679505137 1.158938891017004
Ni 4.894998249517458 5.0367387897698706 2.8036087921884705 0.18245807873033737 0.48484886396328103 -0.6486211933586571
Ni 1.2474965715427622 8.237579802414754 2.1209656991476784 1.0256081659409368 1.1134637894033406 -0.9272151332823192
Ni 4.951575823261947 1.0217794883471867 5.102831851261097 -0.2947091003179699 0.3795105103350819 -0.7242681905700108
Ni 0.5814986303581883 1.439224473394786 2.187887403347418 -1.9761398624620095 1.2231987294373385 -1.0120607662738053
Ni 3.7006219393000013 6.7944067630935 9.574274107479033 1.0242025438426618 -0.30634565611563375 0.16289841143085496
Ni 9.101462998373773 3.8493141801271786 11.329242967192833 0.7697142387179519 -0.8960664755936567 -0.14913452487754317
Ni 8.079405442003596 7.488890919446642 8.676746534524968 1.4579098519351215 1.1210621705758885 -0.8365143270616368
Ni 5.970444866301832 4.4932919145711265 10.322060196265834 -1.9948423239675195 -1.3085593543920302 0.3962301370826079
Ni 7.945487882131319 7.018631547899027 5.1985808674042735 1.5629054775119213 0.2829750997104933 -0.2812123513831157
Ni 2.3702147522355395 5.142831009474886 7.339678691416472 -1.4952170730260121 -1.175030140151912 -0.7511285052959644
Ni 7.239992232067749 2.075091890501508 4.487925201727408 -0.7052775084001208 2.0840930280052365 -1.951705897789361
Ni 2.0888562576395433 2.3944900906426194 10.548707880445019 -0.8535555988146398 0.2899893262447974 -0.1750659000313243
Ni 4.070860242977895 2.207405924774539 0.3278903975632446 3.1017189470716455 2.8098997667069607 1.0237204619999207
Ni 7.323764858460719 1.1683676811337351 1.4764716850743782 -1.9434189751902209 1.4249084573084365 2.359102335901434
Ni 3.490606430469295 3.774588033415503 9.005180091626455 0.4065603153640224 0.3531181363844822 -0.07873463499774182
Ni 2.524199554433638 9.113225275746275 5.7607973341548835 -0.058059880257209685 0.8866518671479762 0.22180675573128894
Ni 2.6476895634437674 1.1974165206021539 1.781910870461361 1.3337407387536642 -1.4315614438485795 0.4661775128060229
Ni 7.662627820211173 3.1991633355728393 9.276404860571265 0.1329769412810742 -0.1581387852586825 -0.6757473601514877
P 9.142542914303586 6.759323847526185 13.533640195958613 -2.5456201865234416 2.0963633607321577 -1.4892012058492352
Ni 6.882192837951635 3.658049724980139 2.0592679662065225 -1.0120592236119088 -0.6069063301183741 0.5355484472006776
P 2.988100437188869 8.195823254295664 0.6641562039789662 -1.9890043771295036 1.2968847462675794 0.0391779557510422
Ni 9.025244553272048 4.023866747092483 2.914442998578887 -2.8969943436336236 -0.3482911473094841 1.0635257669223168
P 0.8810325778302608 1.9002983312496122 13.207933559269255 2.202398226206749 -2.324708431802596 -0.7697191238139584
P 3.7106601949299622 0.7460620670442597 10.776970212944368 0.7540225390143078 0.25349560219413764 0.6023256527262272
P 5.776816832959373 4.118168882622697 8.17518319184248 -0.7365948304561637 -0.925185247336484 -0.20450580255899614
Ni 6.621003543956557 6.417096262697545 1.9439299847370684 -0.4503695992394888 1.9283083448010272 0.1735612904613398
Ni 6.81957191917415 2.5297331080911514 11.407382862333423 0.04249390749815262 -0.3576515054784615 -1.457551183044122
Ni 7.775986884250345 3.1554603112928157 6.6233115085473795 -2.1255515522603394 -3.3403558869863956 1.2525581564360622
Ni 6.296220093103528 3.0773788104370534 13.475020676031964 -0.1996253345382433 -0.6720801957125457 0.817287874731857
Ni 3.2094425834893925 5.114959324637128 11.052088861104457 0.4373546750370597 -1.7655158628204175 -1.0223639479720263
Ni 2.7326022687309988 5.844952767526171 3.065323634747 -0.9858617392809342 0.9731419777214209 -0.9573289219485641
Ni 0.6826208475989527 2.9345445359608777 8.427253708470287 -0.16223918058030123 -1.2152650764125588 0.9173125294566267
Ni 6.565445552963034 7.689628225243562 6.874568212761232 -0.6893970897244385 1.2285193703193036 0.4627772288752223
Ni 3.6862643603795866 3.091560279609574 2.9562940898257932 -0.2067958841447535 0.23350656066672043 -0.8912585126820521
Ni 8.731938402621555 4.8142194888386864 7.720233318747318 1.5288828407095734 2.2287373783219104 0.990353713614017
Ni 2.0931014294571995 3.9809515822109325 12.663854542764913 0.42324394666729037 -1.754841928046339 1.0220433314078141
Ni 5.508230929552744 6.775488868596039 4.9339889477012004 0.21825066294891446 -0.5788969893896417 -0.5434995837269543
Ni 1.2638655091628095 4.810428494791915 9.522221627362011 0.3614423399794614 1.2257965720715018 1.0057931880975388
Ni 0.21305201164176357 8.876348395894677 6.6927562166090535 -0.20452020073669935 -0.5686375164451626 -0.5606771239475054
Ni 8.180891001461069 5.286490219085934 1.068569994575816 1.1671862186274606 -0.7862040088428589 -1.1177187080249524
Ni 8.813273299346308 3.2464256305471433 0.05668045891299546 -2.233094112628709 2.6690706763713195 1.0576600521701591
Ni 1.4873302413721612 6.185048497511883 1.0417596026924716 2.153429766727846 -0.508994093750917 -0.3784643284587546
Ni 5.354969104214422 3.695477680874675 5.0654437517831905 2.448462568933822 -0.45589155749898264 -1.033598383235265
Ni 3.1878459670371218 7.06589384287333 11.909447654350707 0.5540557619762458 1.9219242956515545 1.792808122877467
Ni 5.57822991987358 8.266749138026467 9.071313936427721 -0.0706945383020847 3.3809726320664932 0.6863685873107598
Ni 3.5127035693629485 4.830755267272528 4.945506525213472 -1.4694571904530886 0.5360960921740315 1.1331604965013193
Ni 6.569662917978392 7.664277690480918 13.293114136751967 -0.17002525228362333 -0.7885048890618936 -0.1436526758273655
Ni 3.2703116737220363 1.0297229648706183 8.702589249688307 0.8777113701252368 -0.4392773459810693 -0.6118911849274752
Ni 6.965344445759927 5.338192333493987 3.820652782104127 0.8204045659839676 -0.8147291128657452 0.5531872433283633
Ni 4.153965506115688 8.23499376980094 7.212090886640872 -0.024934044237518348 -0.15031903210394756 -0.28045310461958795
P 3.50910722293227 7.176574184957691 5.2763685430490765 -1.5446599010381719 -0.879517312985724 0.7353002800144562
Ni 4.702019041561976 7.198328373289656 0.9969359642797958 -0.31693345893380903 -1.6435432430696468 0.3532418064465401
P 1.491306614100927 3.7644200127081464 3.8681746072332217 2.4424726698989745 -0.8217978467870686 1.5373744231203523
Ni 0.9998955349378258 8.74275524871589 13.148364900490797 -1.0221842278610525 -0.691687428420512 0.21296730306278808
P 5.583995196883586 0.5831725998565918 7.142266152281111 0.6021942693546855 0.5092396341028197 0.757463960595689
P 7.295448264786176 0.6655335675861798 10.22709811262772 0.38157587750454286 -0.14911369894193674 -0.07564674010103746
P 1.70971050829185 1.4029829410650103 7.357911611683966 -0.21208104380309278 0.5192893050293379 -2.88065112638891
Ni 5.541052225199736 8.66313510479958 11.39233845539622 -0.5088585966143171 2.8369326024550365 -0.41912889605765236
Ni 0.15176952694827356 1.1102700021968976 11.105919122781797 -0.7373728462727689 -0.08913886105020132 -0.27250119676236295
Ni 4.9757770101962295 4.888630491790973 12.928744922145995 -2.354893697136725 0.3252504634399366 0.6243247827051377
Ni 8.225771180371753 8.375269818465602 1.1299655602653222 0.7395541701948037 -0.6089056199365901 0.9518835825632768
Ni 6.7239906707381785 5.3751568426835385 6.728353558018902 0.7506867897728555 -0.7896726841177496 -2.0493042024608257
Ni 8.532990001105874 4.552279411181535 5.282812306035178 -0.4582343466995463 1.6129728264819574 -1.7557667538534536
Ni 7.930490746758026 1.262336135036361 13.00054950082945 0.1255621368742418 -2.157108244020698 -1.7470540565708041
Ni 4.1890391527489035 2.8817023426585626 11.331060605169782 0.9933367075017409 0.03049688303727651 1.1207603230647536
Ni 4.521247019815783 5.842681878671748 7.032652664511622 -0.5732585601569418 -0.11001261917541698 0.37225228611077177
Ni 3.964063584281303 2.97295499886998 6.682188704842001 -0.5055719554432454 -0.48776552338944384 1.020515324799062
Ni 1.1343136172514854 5.755127527166105 4.924642154555076 0.8185034923065129 0.6172167109054466 0.5817023200489209
Ni 7.3595429440855105 0.3142632106498849 5.706031837026884 0.10133771710923839 -1.2008643276061963 0.8925348082913145
Ni 0.6800477914928795 7.340578704917552 9.911023752254758 -0.5193242720323314 -2.160559178683776 0.31943668497163696
Ni 2.468808404253909 1.696409587858799 4.2252732699313995 0.03965978048346718 -0.2917543885650201 0.5702112886901857
Ni 5.257395034947017 2.1214643678022416 9.276120304294404 1.5791155116128806 -0.5418291380030669 -0.6766130505858927
Ni 0.8666536803614163 3.2060594225430066 6.078161003261114 2.0184036562272274 -0.4854368752562672 0.07894032325064468
Ni 1.015105855795412 8.094828948345475 4.341872753331821 -0.7535623115484377 0.05650821949937365 0.5292163343350628
Ni 7.937729784289882 7.700482147074295 11.341275897441047 0.6356234955474085 0.38704641370081083 -0.3441925517600782
Ni 3.8528456440191596 8.321417311346421 3.5103436987411683 -1.6244080649020927 -0.5808620835358126 0.9467303204971115
Ni 2.1934098342840116 7.297895263388494 8.123849054118184 -1.180385490926554 1.6398796781751306 -0.7832986622706058
Ni 1.0499385101420355 5.919845755051641 12.083676735515931 -0.5016014008312716 0.323621669587262 -1.8862463826339708
Ni 1.95010031416723 8.782240907980556 10.859057747118015 1.4244263754656952 0.7922417303965066 0.8857846340516745
Ni 5.569220515928685 6.539909639518396 11.174875358016418 0.007390636037116305 -0.9890733042396966 0.18318878624877483
Ni 0.21677163489596793 1.4025102254259263 4.613071569261151 -0.019506188353727697 -0.523666351051111 0.7536813536248053
Ni 4.902367052126709 0.15180752957808227 1.994001693636987 0.7049124117512182 2.107201846108558 -2.6732114380125704
P 5.73189957831229 0.43649079083563636 13.258181377917067 0.27055769988274697 1.2990796970363692 1.6352632624490417
Ni 2.8374153755302585 0.8311388324650559 12.976238940472793 -1.1476499483667462 -1.179667124703291 -2.4808440705883212
P 8.369467465719199 0.2936138792626024 3.162049596544283 -0.45066501899272066 -1.6098062558285178 0.9758485780193065
Ni 8.02213269820163 5.50330912554581 10.166607194906344 1.0331697803382787 1.020338175791249 -0.3009049447160366
P 5.617326283906059 2.0926565206204146 2.927425067678908 -0.08780574406107458 -0.41782380409298364 0.5566942280403574
P 0.5233657294717718 6.658598340664887 6.925671554026446 -0.8761705080006782 -0.27623855231760813 -0.2025993295649027
P 3.2834364844071926 4.6370345445890715 1.1140878761525586 1.8931631643584619 0.4053932916391147 -0.5296778473525136
Ni 1.3603829199428494 3.850352300746344 1.4637602688500675 1.3203149522660615 -1.3643381519245472 -0.2941226316868806
