# total energy = -340858.56409968756 ev
CRYSTAL
PRIMVEC
9.36307562594258 0.00000000000000 0.00000000000000

0.00000000000000 9.36307562594258 0.00000000000000

0.00000000000000 0.00000000000000 13.70380761275141

PRIMCOORD
 96 1
Ni 2.9290416342475627 3.0375784087288213 4.463206881663485 -1.1780275322173388 -2.5653464613077754 0.7555428323135762
Ni 4.303363260811889 6.586015595276135 13.486492899660742 -0.2956190137267489 2.028992487486667 1.345024796307916
Ni 7.245766004202373 3.4631395661604722 5.600677334288001 0.13944995059992757 -1.9944232341522297 -1.052502933449252
Ni 0.23017436459866147 8.197466479131037 1.784674340000988 1.4267583660329815 -0.41945414060755504 0.5066872999946113
Ni 8.129733988913868 3.0705926139411157 8.15997391477154 0.4033328095656602 0.0175205253822666 -0.1004709982335689
Ni 8.770908055485826 5.9245704696331005 1.6602296997637198 -1.4033808676493056 0.4129279094532631 -0.3467266310358416
Ni 4.331630386601995 5.508063406484005 8.060168208458308 -0.03192255974020954 -0.6463097716166611 -1.4025959098541652
Ni 5.945028790219846 8.557561010685104 0.5170121912233481 0.18747661499085133 -0.22178104469967613 0.023542306096314292
Ni 6.076814081871306 4.024671310118766 7.443812846865429 -0.9596357157048698 -0.6411184572237086 0.0942324735230248
Ni 7.877127567353319 0.3760847923769695 1.7141273092033262 -0.13617513650339774 0.8647015881291302 -0.10604823521103027
Ni 0.45245940154222386 6.5019164485895695 13.374710883112956 -0.6173236687969562 -0.5789751509257448 0.8105058188130171
Ni 0.85339754227867 2.0637529857239647 4.044446126173322 -0.4776657159512806 -0.6603698492541531 -1.6630049513386844
Ni 5.6474983310505085 7.997808251125657 9.471811991402873 -0.012219681994643471 -1.2252000761380835 0.007193432424645675
Ni 2.5333861408681146 6.247456138023906 1.8795869029098107 -0.31508560709179284 1.0032927902731883 0.8571507723650656
Ni 3.7926074768270124 2.793398755373339 7.7720738570634875 3.0723317521587794 2.0687851940035724 -0.3110883130069416
Ni 7.1133252972460745 9.23412750371834 11.608564197472173 -0.45072158326226885 -0.9931657291415155 -0.5326564703648633
Ni 8.526634771372509 1.4457244424885907 10.116233172656516 -0.2597642088116688 -0.08903858802691117 1.3481430302219233
Ni 3.115853722278107 2.713035475924353 1.320412781433779 -0.11563202224472344 -0.657942727869899 0.9231977845928102
Ni 1.259352419019866 1.2372836493983748 1.7279678078263594 -2.277552085831768 -0.48039108530224367 -1.7271341777184257
Ni 8.054885561101308 6.8421987117859455 10.852621293177522 -0.23613654209039978 0.6448483565797862 0.5433741138926834
Ni 9.141180250416456 8.744279467957815 13.063141428113976 0.22178335869252128 2.061479661481095 -0.5183439103969331
Ni 8.409643139458833 4.097141516682339 0.16414033632860225 1.2864357830201134 -0.8093084560708061 -0.058075563986493536
Ni 8.734363970703185 4.007471339904646 2.971931075488617 0.9073790723929985 -0.21308171715346524 1.1961304124656367
Ni 3.393141211603718 0.1773413368756284 0.9328582212221355 1.0920917514854676 0.29502637444807256 0.5760919158406789
P 4.174976765669806 4.405767220655015 0.8899388181385742 1.7145835947469248 1.7563478231679044 -0.6147870184180316
P 6.272493002668737 1.6945856337357768 7.065107329576683 0.5813058559414505 0.4757939528498645 0.52182081320194
P 4.04883740871574 7.580701951126423 7.944275801641604 -0.0996256195141381 1.6414817325549278 0.680958214928466
P 5.01885205987675 3.9116683484888215 9.343817809136116 1.2599642190921463 0.298586323885189 0.27590379468600873
P 7.176554148011425 6.583431386359914 6.093726605658875 -2.147414927992334 -0.29067812478170585 2.7301870840666655
P 3.367654919321283 2.5770742524734933 9.953747291818843 -0.7666458842052731 -1.8549218614890763 0.6766544453467895
P 7.7468871832061215 7.133661897847636 13.362227094170938 0.6039919846850565 -0.42442022636357873 1.5610568543389565
P 7.910001326428863 8.675367230191936 9.363044885257342 -0.5470934717257997 0.8856920743378683 0.9861175640454823
Ni 1.6856251702110558 1.059628649484002 9.25863535458141 0.5471973442935157 -0.3320546308459636 -1.1842066644448572
Ni 7.653368782281448 2.010776702941446 12.381774486126586 -0.9197841309255707 0.11662883894035399 0.8247641285042441
Ni 8.372415550144005 5.242395494205602 5.02261039849621 2.4837622726763806 2.104566979588872 -0.5166027593361103
Ni 1.026211832013021 7.570383841613109 5.641967562185249 -0.6517098595863099 -0.2929476375421729 0.3917726155318866
Ni 4.03364113671927 0.22211837419461772 4.562860906149025 -0.2010831500306924 0.6330917302644903 0.6902332124724887
Ni 4.303503706948639 4.352407051765376 3.2793901402186796 0.8697589480473796 0.9899616203819207 -1.4266218404551172
Ni 2.9440787339557146 0.05198941459494809 12.197129013832322 0.795203898348624 -0.17631339928518022 -0.01675870751557759
Ni 2.9115982240630744 6.01972740881987 4.350986673169033 0.14741394264201063 -1.680779758823602 0.3854477017551233
Ni 2.506991630234689 5.310970661243278 13.514928560814953 -0.6410544367549926 -2.192743219615488 -2.017459547146403
Ni 0.1501481558778782 4.767827998123597 11.61663610510505 -0.3593836576782198 -0.13438230626903308 0.7461835025858632
Ni 6.182832188966827 5.5529031764107435 1.1415733524328056 0.46087975474219334 -0.37975322247350723 0.5266274905619639
Ni 4.903676864665055 2.407939651522022 5.523744685806055 0.3147364512824902 0.49549503082321766 1.0762123612510497
Ni 2.2500969199653396 8.086008425005355 3.8470696797363586 -0.20734404333873965 1.2798912970333765 -2.44281231262658
Ni 6.16964897826379 8.856786186571238 7.069095999860415 -0.6776818581700393 -0.8668348324220491 0.12180884047939668
Ni 7.230588458357469 7.523559099620288 2.6983345106368253 0.6129000858079638 -0.9212763992003811 -0.3929039009228524
Ni 9.188800853850866 0.9118746320839412 8.024196207606035 -1.4101986619020874 -1.4372258412232086 -0.41952253195164524
Ni 6.528713571481681 4.4571892328574885 12.817417803561812 -0.03966543691042201 -0.16263564468777153 -0.9202767542912733
Ni 2.751648800455125 6.257483992187935 9.543195144867994 0.33782752877399885 0.9480325842483026 1.5305504582199836
Ni 5.302768606857013 2.6004444896288783 11.152460686835047 0.99743376038925 -0.4244320534381207 -0.07263212164442975
Ni 4.4489216369407405 4.650986175422456 12.166541717863087 -1.0139700674813763 0.3827791537840246 -0.7528208053967228
Ni 2.3167713826189837 4.129069605103759 8.628589303578032 -2.0924267446819123 0.6690961733835573 1.2883579397434908
Ni 6.094903544284848 6.943919167096884 12.211696087136147 0.14834468198639614 -0.7705609029889633 -0.972892066494144
Ni 0.5224240490261575 3.6425922766252588 5.632319848898026 -0.4553248863622352 0.7578789366459205 0.27941977825906716
Ni 8.24627619318994 7.925796835275471 4.994311438248439 -0.0917708993564097 0.048100969272284896 -0.7008981483855026
P 2.36603052431549 4.800505132607689 11.309889570442103 -0.7125637576488889 -0.16774288400734982 -0.30282530166720106
P 2.733540611890015 1.0194423282216174 3.0749838964835337 1.5143599645030499 -0.3277876280394935 1.2016120044054983
P 0.3584353945252465 6.471523904596629 3.4918402023593513 0.4457817227584904 0.8178203501965593 1.0251258269878798
P 7.592902038872204 3.7170942706338317 11.074992470418291 0.5644833850674731 0.37635396698397117 -0.8159768692299173
P 6.398641722698585 3.9627720161146596 3.485467692981164 1.37379312668986 -2.127891770357742 -0.6108568301256899
P 1.0006225458969684 0.7463644777682263 11.5034561813428 -0.2680593589409254 0.10965497872568213 -1.0466292482772943
P 4.366404850061571 7.340398611145272 11.11174628809848 -2.3272157716054824 0.37922768898734044 -0.28301623736107384
P 1.4875961173919887 0.2305395245542144 6.754237296338725 -0.16993706344519122 -1.9074194171671601 -0.28425628041576206
Ni 5.552266487257471 7.866004233322631 4.5662868555781735 -0.08541976032740127 1.0873110422673726 1.145146208108286
Ni 0.42968840123697705 5.951508038661964 9.69233302486884 0.3365504618337882 -1.3086339163837075 -1.5917450274514329
Ni 7.215972697059571 2.8338659689092256 1.737793419553467 -0.09049640351936027 -0.013955433738827579 0.12821962910174692
Ni 5.095629281300691 1.8323352046612669 3.1952479233835107 0.11609199260027749 0.6949653278408354 -0.23091566001109265
Ni 9.112604143125496 0.9126489584512288 5.7039773404836 -0.2082436723348736 0.5752894745440414 1.0135322086130094
Ni 1.2042507180345132 2.8202239674928014 10.324298506407818 -0.9644333942038292 2.3902093417188834 2.344676904504723
Ni 8.416768440130006 7.6316838987670765 7.588962992890123 1.1185406897056154 2.285428660366367 -0.8961842321184437
Ni 6.703840540934535 0.7928521490328443 5.022020524721855 -0.12072949137228885 0.19434480286559433 -0.6392729193745377
Ni 1.4177382089719859 7.721663057045622 8.018947267321856 0.9911204165767125 0.4381041516085745 -0.5989806475133943
Ni 1.8880361424967576 5.428168280824189 6.742095259662802 0.5027661105633342 0.6316483129497443 -0.52463205739849
Ni 7.581741252538382 5.751597007610432 8.231849566022866 -0.1681843424201426 -1.453022184825517 -0.40122887584878003
Ni 6.081186638262157 0.7992667922520567 9.265747546946486 0.7531218815769094 1.8939152120331384 -0.6515805330972972
Ni 0.6470915304670708 8.120979513056382 10.189603170802876 -0.49171473784517905 2.313236940827887 0.8105505560080234
Ni 5.450302591976165 1.7834880382992304 0.8791366376072571 -0.5411884190952744 -0.7805403827991783 -1.6688079311737067
Ni 1.659567730305833 2.332426445328841 7.011115153071664 -0.5349424381855626 0.20635082618753492 0.05415488877584866
Ni 3.4205750236491017 0.7985439628015776 7.354614569107219 0.7399807162092611 -4.114692712078023 -0.7474227743096031
Ni 2.0083142140104093 7.0056218365095395 11.861097587041613 1.6196360974347461 0.5567736751280411 -1.075145353439116
Ni 2.9588349413903647 8.789905736250358 9.741844969611499 2.732133152049443 -2.1256338275615003 0.5651166477760976
Ni 6.309861038120316 5.844057380971581 4.341256564814916 -1.5862179269856165 -0.8948937954417944 -1.1476203806803913
Ni 3.316907048575215 7.745286097247159 5.939600078880627 0.9427993608738214 0.5945094991159181 0.9129442251856019
Ni 4.800308508016236 6.960276460490497 2.3618789365131274 -0.43376104414853034 0.7191136429522648 0.565601043611684
Ni 1.0919968024672415 4.400935873550776 1.2684776726783749 -0.4285165079201394 -1.324768102941409 -0.9189801469670366
Ni 3.174054601347768 2.674459603696714 12.340182767189111 -0.660121737799089 -0.49139257861906993 -0.042216485467049876
Ni 6.151203718970478 5.658565486626496 9.950513285443252 -0.9581665873585111 -0.932263237229188 1.6032774535710648
P 5.353666286815616 0.7211543962214018 12.640639187540765 -0.8205374920174062 0.45306694356599386 0.09946389712529322
P 3.7399120863179958 4.368773708234772 5.816307096964717 0.6400473356467171 1.259308073565386 1.4416303980488077
P 6.049061925249286 9.216206576668899 2.8829659383174144 -1.8331219920051656 0.9425275952696736 -0.456868062479639
P 8.62146400290686 0.2597766649954824 3.8134000592192256 0.44445246242410547 1.1907565497482333 -2.4250110227791013
P 1.936396428918057 8.242147076769458 0.19820788756653018 -0.7138711636064028 -1.3204483925201322 -0.006450126500717923
P 0.09578613787941467 4.829118692201782 7.812965217932363 0.8065622607842368 -1.0390799751751267 -0.4645304641209032
P 8.984451724878 1.6796047124823248 0.31479409829878446 -0.3592916121850458 1.1020712312956826 0.49974969233451355
P 1.8479996304469073 4.138245419371498 3.122631652837716 -0.6887903093783749 0.7750449069022458 0.4093011113339532
