# total energy = -381167.02047246933 ev
CRYSTAL
PRIMVEC
9.31638519311451 0.00000000000000 0.00000000000000

0.00000000000000 9.31638519311451 0.00000000000000

0.00000000000000 0.00000000000000 13.63547144477180

PRIMCOORD
 96 1
Ni 4.815751146664304 4.059651981698155 12.036439478866207 -0.3935903854669157 -1.5966846308448954 -2.3920679921941774
Ni 9.324769637184476 1.9150388126097433 8.930265455707302 0.2218671766555792 -0.9218171021951995 -0.5239640847971879
Ni 4.274748676056548 8.980491949930489 12.194556231594083 -0.7881971280134877 0.47573481747715496 -1.8795900536597179
Ni 4.851684443188053 8.41528551137648 2.7767680811060753 0.20242320899835461 -1.3677263516704896 0.550470872838465
Ni 3.2891031037664034 3.0324180672555565 5.314438597098124 1.4813004629449198 -0.46812949432607115 1.0439002793819052
Ni 9.04583707355444 5.9712530482832005 2.0973399688756027 -0.32093023879802796 0.5557876570656879 -1.3599917020303933
Ni 6.8800757107639505 1.8211110201408716 1.315293740350135 1.353489125025185 -3.8641672482558027 1.3879092543762679
Ni 7.397209603281521 7.990793750212854 3.9366011700606967 -0.9098599298333234 -2.0168756496184748 0.7127792160938047
Ni 1.1225312154904161 5.91150707197861 -0.08240528763595176 0.7077588800610779 0.2850337820117349 1.6835434376116682
Ni 1.1738085979292845 3.4977994417048284 10.48678182856505 -1.4764760449730832 0.8012678451545168 2.204016221426146
Ni 7.672219968872537 6.86817868725842 10.126273135554342 0.823886096774665 -0.49074286085021296 -0.49501911962806366
Ni 4.140956072640017 3.757074433215313 2.152031806376943 -0.6550782618379105 0.25474721521305155 -0.1010924338676517
Ni 2.3619271630508116 7.749657760084723 2.0452800101059085 1.130666783545188 -0.6687724714955514 -1.2224271413786367
Ni 0.9320577263983623 8.677103875962148 7.911190831152049 -0.6980036004465269 2.068346049583625 -2.405589166609064
Ni 1.1030599710686801 3.4992248485931183 13.516746891678864 0.7086585090572118 -0.7629208699452023 -2.0858426637064915
Ni 4.899934000537416 6.766294702092821 11.397862782743326 -0.902687323344284 -0.8524582519854028 0.6708177840603544
Ni 6.423731229658738 3.745838873037029 2.067274131556068 0.8409939600995452 1.9116954188346944 0.9125508464019252
Ni 6.365280230853967 4.740055519426694 4.385344412733519 -0.12709657124089724 -0.011915263380347221 -0.29415502758671275
Ni 3.1991347748761143 8.30304170621233 8.01014388163101 0.671412994442192 -1.9283093732422918 0.5581227329567678
Ni 8.556354211392714 1.9808777046329054 3.3803692050719785 -0.2920914601894647 -0.06731456608625826 0.34298721859806736
Ni 6.640784364844195 6.539105340146191 6.209007190695976 -0.1076610882241049 -0.7670570036007628 -0.5385039302845759
Ni 4.224682423653482 6.04373452273349 1.7916740388014651 -0.7908677328671154 0.5826155758918095 -0.44321190514878506
Ni 3.2291149014546536 4.75024764449721 -0.29707342828936834 -0.5561697229954551 0.4684696512743093 1.5820388559072625
Ni 4.124680348235819 6.560560974549665 6.433406295367815 0.47571116332807106 -0.28008415131594344 -0.2181053956203018
P 5.0668184030860095 2.8483822001230337 3.888332048303062 0.9520170228173477 0.8069378989561006 1.4845287400742304
Ni 4.475414290219119 0.5866751158963289 9.575522931435362 -0.5506976441372903 0.44465815067700837 0.4248670840930102
P 2.2169642141502313 1.800493860377569 9.69667413219359 1.7621713718282168 0.25317190030613174 -2.233399045463637
Ni 3.8928980085380345 5.457463737941421 4.065457021123603 0.5239085489689042 -0.16174398611143756 0.04839330370172311
P 8.175118425276992 0.8541392097258116 7.264515401643612 0.31175988515266956 0.3855492603299941 -0.1280342525638182
P 7.843706665557175 0.014318351938644041 2.50105898664825 0.7739362472190994 1.7772128395423716 -1.5243327594450458
P 0.6391831927792698 8.030639928390732 -0.23126807525181337 0.04251267655123001 -0.12108816026328824 1.8081522094337052
Ni 1.7941494022669462 4.3631425359002955 2.095322039908259 -0.5110422345291973 2.786534866728775 -0.8289771381443272
Ni 5.768845270146054 5.052359373735515 0.12191700759625058 -0.3975917933168249 -0.03438233413461175 1.2283396502083297
Ni 5.266151774209197 7.523092595925777 0.189857676050773 -0.19052002980286542 -0.601333464016287 0.6292147638075873
Ni 8.925422798841073 3.535894139523239 1.4751396141137407 -1.8297613030630486 -0.46946004021203663 0.8463495679845036
Ni 6.52004401665965 0.059582939569001216 12.937348804020727 -0.2823703762469589 0.6144486612420063 0.3615212728465128
Ni 8.7692336061471 4.374592372931067 3.7240785928476274 0.4553760513151448 -0.6085819180485842 -0.31931687156432104
Ni 7.558792982827256 1.293403030772263 11.182654291766246 0.46180920853499824 0.3821970560283095 0.3080567252694695
Ni 3.3362719604684363 3.918341055674763 9.689502379104663 1.6702639468939429 -0.49678366772765403 0.6587983910019751
Ni 2.5000518854415565 7.450247782464746 4.693370183100493 0.7091616739458754 -0.4674018721314273 -0.05497481357398274
Ni 1.9565526236830715 2.5976317007876157 3.477672323786781 -0.7974878092867943 -0.8258367927431326 1.2415684901937778
Ni 7.693181834876798 7.89493746607159 0.7193376418256084 1.400358021662582 0.6467062357241314 0.9665776942403418
Ni 8.119192166777623 5.001296268149133 13.290861823616945 1.3304003615265216 -2.156151022313751 1.2003171968534747
Ni 0.12296975908890904 6.0198845774130865 11.608449415176091 -0.7260376237656077 0.09873113272432672 -1.7911669877296181
Ni 6.814432462823495 2.7527588256040394 12.959028963300067 1.2276778482546147 1.2462432699616277 -1.7626089735862676
Ni 8.736831219496956 0.1345462989541957 5.140831491212343 0.9183180879030055 0.24497085255257806 0.5707584194429074
Ni 6.261803143872042 8.524408327602218 10.645593583605779 -0.02872667851073117 0.6494616869820815 0.148318456734151
Ni 1.2133752845604389 1.1359654425029249 11.326699576755084 -0.925654987884051 -1.0175351591248152 0.8425258233630393
Ni 1.803251510305241 4.880304377572537 5.151413041171295 -0.7999419272542417 -0.712549873691818 0.8581923262557026
Ni 5.697891682817852 4.096265374318932 6.656359497104606 -1.036797349788537 1.082819325044606 -0.13366779670051174
Ni 6.970826615985065 6.6071149498489055 12.5932024777937 -0.19180506716287613 1.8258560544713713 -2.3369525392772723
Ni 8.984171921962348 1.0336901691719116 13.17036463307805 -0.8520075376012294 1.2654946619920722 1.2419929793257063
Ni 0.0933790573988048 5.1216825937078285 8.884000288339674 -1.7222092296129825 -0.5201166860266397 1.535292343780343
Ni 5.617127942199656 8.023382464560813 8.163174819847008 0.4650788804252055 0.89312153403272 -0.07783629155318852
Ni 4.476942177341207 1.3307244686447386 2.532202729699648 -0.22094029396593565 1.0499791385861337 -0.5850501534752311
Ni 8.09608753224848 7.381446280046316 7.7348167589537065 0.45274144190577514 0.5594537930633655 1.06236465673468
P 2.4757920191859584 2.5341498541418215 1.3482225027466068 1.1488244282908215 -2.1646971121115492 -1.212009031369106
Ni 3.1028033551054204 2.2284978986450206 12.467592455226743 -0.688606218392027 0.04370978218312472 -0.6210921347004529
P 1.438487092676423 6.011583678475399 3.39532759265262 0.6780868069179419 1.0773302769055768 -0.4772911062206812
Ni 8.652471354310919 8.465547407862253 11.899238941856627 -1.4924605933267974 -1.0430998949677972 -0.1189852549876725
P 8.72245603761048 3.126234063105739 12.095863108253576 1.112769077329161 0.013662585088757114 -0.21786808279851513
P 3.3450945769600082 7.532343766122325 10.113455653221605 -0.014966134391529062 -0.08080411593226083 -0.8782505304581585
P 1.5004969505094732 -0.42266668136352187 5.814369784914864 0.18531406012189375 1.1368022070189647 -0.12238785291131823
Ni 6.286500880217508 0.9077046962938562 4.134984269925026 0.735875692901952 0.7623799098400675 -0.7613622672088307
Ni 3.032781406266297 1.1255497241950299 7.549306108092973 -0.860264378293383 1.6379621494374434 -0.1534920305152905
Ni 0.9735808538565811 7.157433805347445 9.429009736088954 1.0194714569155796 -1.0795313983219537 2.3618691000132936
Ni 6.541713927915612 6.303233107481354 2.1385873313410544 0.03232673715716368 -0.15789992977499903 0.482349237469879
Ni 3.975664771907749 -0.003924992954486782 0.7251072789884702 0.320934352563086 0.45075449338273343 1.1235751668057294
Ni 7.498925893519087 3.1026170274076046 7.669011405916152 1.1818250515865583 0.30912990372899013 2.5550448222714515
Ni 0.7581739238813254 1.1693087840270364 1.8484247973636683 -0.5196662287527823 -0.04094198963000045 0.8415251500126669
Ni 2.2054305296554424 7.652888470224163 11.983110628474389 -0.012942933313913193 0.9567673930181393 0.1026939740268167
Ni 6.2834823715128945 4.98625030655052 10.676042324344325 0.4974274719592401 0.4236810342047091 -0.30099724731952676
Ni 0.5189608355946526 2.2024772356450644 5.758750035478402 1.3595088488567038 0.25875042283517374 0.19240310575819122
Ni 0.4456874684286461 8.153606892564174 3.116427636369701 -1.224750904415807 1.3635814762641807 0.14389667351737154
Ni 2.603659401811952 0.27428834576198097 3.531955171991416 -0.6439430711566974 0.10199514818757918 0.4595980598162923
Ni 4.8969713901421486 2.4931763933921594 0.23947022050965852 -1.940062142902846 -0.504905268393524 1.8714337431011705
Ni 4.366011982446657 0.5131092142447519 5.365789578977629 -1.3056144128310931 -0.8345122090299434 -0.49458897406918045
Ni 5.288697425644891 1.7897613849833873 6.9993599079900655 0.791292736219676 -0.3250411756426079 0.5758111513754663
Ni 1.8926608561020832 0.43832100289550413 13.743327893692125 0.7466951521149592 -0.44258944107343773 -1.474224787045061
Ni 9.05929924972162 8.995659024532683 9.816298377468218 -1.3294102296991104 0.8179229372126947 -0.47016657936075795
Ni 9.365668566855012 6.703260041921784 4.939435472474336 -1.0947165907028245 -0.06483525130783027 0.5551909040219535
Ni 1.6276097059593133 3.608450145052655 8.237337901770083 0.45072492569637856 -1.6977477541365082 -2.833896129621558
Ni 7.941249215363672 3.505904696559809 10.062036661732394 0.19136283741913496 -0.3360398407459568 0.32382118719257785
Ni 2.4760528779629003 5.518663070288974 11.206557340480526 0.29839349114809255 -0.42037228154645023 -0.4935569332602403
Ni 2.4829563191669703 5.7671683208657125 8.253987213208402 3.5874679542516925 1.0643953140114637 3.0620915624880105
Ni 6.649225009555244 8.997596832589966 6.199871543672074 -0.409652581136101 0.1154687571939818 0.564767491966795
Ni 0.8876996230178783 6.166496526439334 7.130314740568864 -2.9907964144874493 1.3352903426289713 -3.4976379806717373
Ni 4.881142852212708 6.043399132877422 9.011505263593417 -0.3100680992725434 -0.7895243314653435 -0.25375888315785333
P 7.235067240642337 5.2013656336786935 8.624462574775269 -0.8881593049314381 0.13640987822202313 -0.179290222525317
Ni 5.470413512939609 3.132699634219942 8.952886569860611 0.010137602654634153 0.19426844110170413 0.6901835901814758
P 8.563639624377304 4.694992165709977 5.739442759430744 -0.27730710279143855 0.37026662313931075 1.4096939543515272
Ni 6.885199722453881 0.9006484663775773 9.129834531368227 -0.0816212125169175 0.19534599043659906 -2.5358957601468264
P 5.14597972550299 1.6492144025210387 11.794260053630309 0.5432661275599096 -0.07711689688866073 -0.6611537786080292
P 5.4735904001873665 7.087793828288843 4.426919711947127 -1.1503444644797738 -1.344083515440569 0.25535990909638606
P 3.5804823576105256 4.449458841913398 7.122788033215602 0.313194303606351 -1.0856629651409881 -0.7152482464595875
Ni 7.595387742678252 2.6720882488347515 5.581353024219051 -0.9629043591538128 -0.43577524636508175 -2.477541745687965
