# total energy = -381163.3201499857 ev
CRYSTAL
PRIMVEC
9.29350525203495 0.00000000000000 0.00000000000000

0.00000000000000 9.29350525203495 0.00000000000000

0.00000000000000 0.00000000000000 13.60198433826893

PRIMCOORD
 96 1
Ni 7.986076460429491 8.834824426725604 13.190551927445991 -0.708760838963031 1.4187943739908986 1.2951289399187373
Ni 1.9745725021406892 1.49239756225061 3.872308160459256 -2.734898630609722 0.41025987570279665 0.18448025136668875
Ni 6.47348411097727 9.089847507995454 4.019876015065555 0.6354052088890153 0.5634629142227586 -0.9530050977622297
Ni 3.19753275626931 2.8706615848680057 8.492113404746103 -3.3173586547602745 -1.078204451980414 -3.2865049026042112
Ni 7.861534194765073 3.046671283354566 1.3209407520521623 1.6451920915269795 -0.9028210207086709 -0.5932478587946751
Ni 1.7911465863568972 2.585341676043047 11.365532372661837 1.5066469121295083 2.277465953875865 1.1303446243190791
Ni 4.038000209267387 3.375326807789791 0.03703368960869606 -1.8877167965319104 1.2285751632579036 0.10575872899506947
Ni 4.78592293564161 4.227968752842221 11.512284257495335 -0.07914703994481209 1.969925763231498 -1.6120626559628626
Ni 1.8900294836533227 8.354062099654046 10.89521687499356 0.3011206602712685 -0.5980897602680086 -0.04883810454862556
Ni 0.2550927825602383 6.724873431641584 12.532025288071184 0.713849566339848 -0.6695198911845373 1.5587464610382253
Ni 5.980500824324433 7.519561077113139 2.1762359928920105 1.246053265438009 0.5406973383914688 -0.3272281559915977
Ni 2.3966928102328833 4.501513790344381 6.681947659618797 -0.7793831292662835 -0.3894604224589422 -0.8334097199943841
Ni 0.3726472615256721 5.9713653085309755 4.2332502519525175 0.594373487758686 -0.8571374026286271 0.7698235106023065
Ni 2.9803528289271886 3.8240544217992465 4.311448594313544 -0.651928146244703 -0.47984703987331545 0.8337370214268157
Ni 0.49359758735878584 3.2821036552728318 2.717703497138405 0.33261076045974974 0.11793290246375818 0.18248584664447928
Ni 7.695282676932766 2.360420258715219 9.26975211458887 -1.0854428787103823 -0.12078708408310167 -0.32844428778688595
Ni 7.949246298588726 8.064346362781981 5.691410540364779 -0.28677724706540286 -0.5062589542079411 0.5532314663027376
Ni 8.946374371861788 5.2200876267127665 6.7165371573112385 -0.40099336279920617 0.043008899461358184 -1.6330963367047102
Ni 7.140646275555823 2.758293811257942 12.289869065006869 0.8950285212474456 -0.9563092224347981 0.28109022398295463
Ni 5.561326557439285 4.736304910391082 3.6404491413615236 -1.002776255648086 0.2762745477618661 0.41135619409076896
Ni 6.128202505408276 1.6797732178230282 0.5434758307600938 0.271727551821132 -4.145804860101795 -1.2899576801304429
Ni 7.532302472995978 0.8605665170942216 11.049925859137694 -0.47625006655067653 -0.51940937554697 0.1292591261098548
Ni 6.2208401670859805 6.2802070794853755 7.08520586918159 1.1574813326348712 -0.472549734880954 -2.486402795623021
Ni 3.7073187006582318 1.0180942214216275 0.7248757623699555 1.1178439207489073 0.8671654762885904 0.519713279940634
P 3.95386610501696 4.970073744845432 1.6426707562744831 -0.03155334932624888 0.28265525447722933 0.30833928950689476
Ni 1.887064855435507 6.08823113874738 2.1491956096238076 -1.2556223971836826 -1.4705200844999644 0.0525201813859031
P 3.7691948595115776 8.214705986405935 8.986355032028069 0.36652155427458166 -0.305946363794686 0.15069492738612758
Ni 3.6873097835643214 8.41179335510568 4.768067323745404 -2.050254739299553 0.5979789457217571 -1.774941784120008
P 2.4172779246606635 7.043807949444098 12.543587338120664 0.2881520159257424 -1.1163552520185225 -1.060543287255225
P 4.935362502232449 2.706194420069618 4.463872305483506 1.4639563152395174 1.0548755474464866 -1.3444606962743297
P 0.1399137235712111 7.148229775949984 7.384395405443127 0.3243176672130221 -0.9571245192472418 -0.6581900679940148
Ni 1.4119808601541843 8.480964915686252 8.653378956939356 2.9313234559327968 -0.0996472167806929 -0.3512792834035305
Ni 4.717504148997222 1.0476661555567053 2.933539583601855 -0.00016172238884488277 0.004894609088139958 0.4076064972403496
Ni 6.332036959017533 2.073566921501735 6.045266334001976 -0.189315467971803 -0.27586034304258295 -0.6642637849919205
Ni 8.553881758936981 2.47933995362171 6.790002317379682 -1.828815908430644 0.24408716439604417 0.05014756738866847
Ni 3.5456210004645747 5.885911526515879 10.505845950527576 -2.5240671429430144 -0.5556904693661914 1.379760142906572
Ni 8.113583354311723 7.257186833083752 3.068349314015623 -0.39193510925167985 0.5209610363048061 -0.3220648666231034
Ni 6.182671740469774 4.5664382189640085 13.170434276339076 0.5689630181053813 0.7316783669911527 1.3027851709124143
Ni 0.5189511993996109 8.135255808869548 1.7432302019423631 -1.1712917561554022 0.8812260681467146 -0.6608287911684425
Ni 3.872427117328184 7.128053575759144 2.3746616263671965 0.03070385684176002 0.1531757848264523 0.5691118849784199
Ni 5.478595772501993 8.705635408368686 6.142968956114506 0.8889722877510368 0.8828530622271764 0.6973682808553732
Ni 6.970314908859499 2.7930236408816955 3.5227915044863165 0.6175162444237365 -0.9166458424069052 0.7738670845440608
Ni 7.509663493878112 6.124578038308125 11.195317174782826 -0.016031599541565935 0.16753642442349856 1.0841200461339007
Ni 0.12080999390180017 3.413467353889841 4.988827109361829 1.6228538330410953 1.2939922552111327 -0.4562890500477174
Ni 5.257168713198927 8.533742732767681 0.19283930738826127 0.4777809013729062 -0.16963624437532077 -0.7250233235684803
Ni 8.905631644253937 8.276860950420831 11.115677409736588 -1.2709561993272755 0.15547872192801612 -1.550400660176691
Ni 3.5091068178069005 1.4860965655995784 5.267980777363839 1.642132478765049 0.5237555683308077 1.611161741415148
Ni 4.900502563533304 2.193462434473651 12.070046994083791 0.3580266294296931 -3.5476186834652386 -1.1592690206629133
Ni 6.215338411898059 8.147458181440056 8.320007907871782 -0.6655632205296343 0.4052009731226505 0.8940281050073894
Ni 7.336358205458588 6.744008759229305 0.15217185717402926 -0.993286828100412 0.10638659238705549 -0.8344245344121437
Ni 4.2017610676565145 8.082570926841969 11.548996391817708 -0.3682395654069529 -0.8884966336661989 1.0079305461555157
Ni 1.5953510149056667 1.2394562261869997 1.6774238196616997 -1.6050443156635004 -0.1320253760010823 -2.0644274312555093
Ni 5.265291236905418 1.1270512785553959 8.057788865382323 -1.1526394311615376 0.4983857221074514 0.06790720536493466
Ni 8.587068866666826 8.388522417621635 8.715689122494181 -3.186378175083938 2.1344511687428143 1.305445748463713
Ni 2.945976152508065 0.7642272522216711 12.285761335626697 1.5404594898035793 0.2589203727541347 -1.4796986656754387
Ni 5.4930657603864415 6.664874560876009 10.026675600928469 1.5833840570812474 0.23403492236636467 -0.667274032573154
P 7.422109379646004 6.102022700738725 4.730879361947317 -0.4027949347843192 -0.9630647959910767 0.645273874152979
Ni 6.877008114794074 5.2031734469120625 1.7807991974612354 1.6445248902566258 1.1680866189545431 0.7339936453878908
P 9.08534015788373 6.050694670497355 1.228668325136089 0.38670651386288885 -0.07293396915556472 0.8821768620957582
Ni 3.2264262645112822 2.9107630606042907 2.2535356532823063 0.3337582438006317 0.3965260710564719 0.0044212689961472245
P 1.9162278753336446 4.2523642044778525 9.32979187677814 0.3791050473665471 0.8975165777766221 1.8841049108109358
P 6.444441906649137 8.169009820427878 11.656329873560718 0.35656058640712784 -0.09988427249216346 0.3561687502853479
P 7.836785589924811 0.24560132551053537 1.910833924808189 -0.7236485547081408 -0.4753661212838265 0.1701635776337005
Ni 8.595906990287963 1.2967599803909244 4.773222431182465 -0.3976660981981861 -1.1398682475387985 -0.7442775438124022
Ni 0.5571670228932792 9.264844214395051 6.5434391140617985 0.13645975762335208 1.4948517192667934 0.07465043762603918
Ni 0.5690589923839283 1.1785651789044642 10.469760198468151 -1.605813332619041 -2.267957243054481 -0.716312940278676
Ni 7.764844564739508 6.098695625810894 8.765636137835338 0.013866473569447087 -0.02332273388634048 0.05776626027619084
Ni 8.782799383580361 3.8037295255222463 11.095832058337454 0.96011188401034 0.23386522955771982 -1.0834217345152954
Ni 1.6302574211317356 3.4620723870534036 0.6506262304470173 -0.7474418004729966 0.12884929226594585 -0.9898397500920758
Ni 2.941347986826334 0.8822436184047395 9.606401912356274 0.27564257060482206 -0.2194287424174156 0.5694821238336449
Ni 3.1142350675035333 6.054997563490613 4.428492859833341 -0.44216880859625135 0.23483813499395037 0.5829647317011122
Ni 5.67923326025881 3.3425857883184276 1.6195884769497528 -2.545564136474525 1.5111283449396298 2.4334000181737445
Ni 4.271462358044032 4.861218916270899 8.12329599678959 2.6888054357960858 -1.454644036699656 1.8719613334698664
Ni 0.006166240822949091 4.013400300513285 8.645353085688868 -1.0054363189787523 0.38260406165874106 0.0694066727285966
Ni 5.306191954104815 6.888011625169917 4.569505075741059 1.8128668413005553 -0.2778305793950764 0.25147471510936686
Ni 4.115127010457522 6.7689711146934215 7.025669814984188 -0.4534487523854448 2.2686167310153507 -1.8685060279314143
Ni 1.9094436164025927 4.8547134625013975 12.33309594660413 0.12478077862352704 0.3496096090105914 -0.5514034119550633
Ni 8.577440795087963 4.596800101056811 13.29482412851518 0.7919398828853715 0.14756640905947488 0.025170585728356648
Ni 2.5857412967746023 6.138769221031024 8.48146304757489 -3.3575583669076106 2.034181230776458 0.31308657438389303
Ni 4.278664824717409 5.9184109148472315 13.166190861780287 -0.7337085100473042 0.826033739245287 0.6084703321713842
Ni 0.6853281795546162 8.560201342598784 4.3359044537341775 0.5291497427631854 -0.5821478922267715 -1.075695055294999
Ni 5.266313522497769 0.34938375884593414 10.31801677189237 0.5183485383826234 0.7470684762939779 -0.5011175192163176
Ni 3.2629776211904966 0.08349192302832303 6.889922369877073 -0.8359024045092507 -1.2394581287189943 2.510395301882877
Ni 4.846116970020271 4.196761161759382 6.076496229497739 -0.028479595496931596 0.3272595234501654 -1.028667264482235
Ni 4.841498097843924 2.9061906559548696 9.624043773628623 4.197385303282249 -0.183996883972367 2.231054970711493
Ni 0.5987099213147785 1.8052448340259457 8.301944121454952 2.4836293466429424 -1.441641453792401 0.8722922559921945
Ni 0.9916727856120658 0.08365641807363758 12.875271615960862 -1.9096650186682274 0.5811197080725734 0.7811453633730289
Ni 1.895475477808934 7.220626182899153 6.256804174224862 0.09133484026025561 -0.2627726566206894 -0.827035441036924
P 7.217522152100562 0.6064123785778684 7.4835533904989475 1.1779306016281585 0.14454176330053817 -0.3844367439921057
Ni 2.5579258351572896 8.196100388625158 0.6738163144342139 1.1386112352032456 0.505969190881664 -0.2852875498937539
P 6.793115641683658 4.45528789455938 9.932917142501333 -0.4973485390921886 -0.9998873641360652 -0.272237401578015
Ni 6.7948999947175786 4.1322456473766955 7.517109450392576 0.10766314510663393 -1.1150758710854667 1.1758050706447234
P 0.035222385409159084 2.3231625956267443 13.151622362738756 0.38002910184271327 0.23899303770258842 -0.4012615288589283
P 2.3330230048402316 8.904181857413876 2.82617915069323 0.9120361115490357 -1.0906282795660638 1.1136548223682239
P 1.611791225931736 2.2118542816305706 6.321930271911344 0.02018675936052007 0.34548967330494695 -0.2729637382210783
Ni 0.4397231366419269 6.029161618520306 10.077166286334647 1.2154049444245327 0.230868351712925 0.33160597334431924
