# total energy = -340860.545958517 ev
CRYSTAL
PRIMVEC
9.40386415560375 0.00000000000000 0.00000000000000
0.00000000000000 9.40386415560375 0.00000000000000
0.00000000000000 0.00000000000000 13.76350574888180
PRIMCOORD
 96 1
Ni 5.84457685200311 0.2256438415087887 4.618454954311141 -1.6494228417788754 -0.07221945958704336 0.29461834037637646
Ni 3.6477777438837644 3.4194331125671287 12.018196794307489 -0.19642431110244235 -0.73784695769571 0.24261160829178213
Ni 5.501843616150787 3.5130673887395916 5.883183476227116 0.12672787504756883 -1.2132012519049944 0.32840546412915056
Ni 0.08331917749479131 5.114084678348706 7.487967013461729 0.5432818112891934 0.899092149793858 -1.0342614707405606
Ni 7.832732424374899 2.5161167220303784 1.251030853273532 -0.9957831121597045 -0.7076804614146586 0.6842538549606022
Ni 7.628931878707568 5.157549338835713 12.839121228362865 0.6231909262110106 0.29630395560891554 0.9974954668651208
Ni 7.730183284909126 9.105075255160699 9.814026937401964 -0.8814129873465401 -0.9434382800094011 -0.4621550219101912
Ni 7.524511370259338 6.779226918165717 7.941845461075621 0.8334063775602744 -0.5728137593100393 1.1456300897232399
Ni 1.215101509196789 2.3515961172661686 8.123413390922229 0.9533074594939969 0.509208009533936 -0.5142450577372112
Ni 7.861188517545319 0.7726496970129614 3.1670512638833714 0.06188156799614504 -0.4349733192890767 0.9934477791583085
Ni 6.445511988113273 1.3943015460294144 10.68262802273451 -1.6715109319271664 -0.5191481514657832 0.3853003775439816
Ni 7.563170656123052 3.1230327157930144 11.7024620526694 2.203849356830979 0.3850327257048917 -1.0768114282876295
Ni 6.612439982121246 5.589948420153982 6.120479645907573 0.3124692525148683 0.09047763446628289 -0.7229178471897034
Ni 0.2171954098814571 6.500731478892092 5.14632582687309 1.2445746240099533 -1.408318671270555 0.4056948820399336
Ni 4.231842347559117 0.8609576244835979 12.455958899398095 0.17577603872447145 0.8278661644683354 -0.9868030201482813
Ni 4.032621483773476 3.274773469063966 8.012479766105912 -0.30543728536875137 -1.205946113004478 1.056680204755393
Ni 4.301054788317311 5.3336178888785994 6.781898555994441 0.12044975534834094 2.141353552289602 1.711367658912788
Ni 6.384725409708251 0.905931605180073 0.16611079820608607 -1.962312469660614 1.0814905789308538 0.2642407565257836
Ni 2.1934419285880047 3.5386553033188095 0.8266288180993883 -0.6663288950510654 -0.808922276375981 -1.4981733274408586
Ni 2.045613182838169 1.3279760915908907 2.3817749983641567 -1.648890366314173 -0.07421463564020121 -1.6471255611042666
Ni 8.087426683273662 8.988279261381248 1.1947534277684497 -0.9207989453433303 -0.05072889381343522 -0.9358890069072334
Ni 2.144795738908367 7.229483937663308 6.5832362817442664 -0.06463213415808869 -0.1464137835122704 -0.32820851762699604
Ni 5.559536323223004 8.145975141991123 12.310025032291298 1.5950000440536207 0.4677335444392332 -0.013644844476944244
Ni 4.848707629680743 0.8975179678504053 8.472786695309791 -0.322260013353045 0.4839847161907729 0.5079777366712607
P 4.431129038394392 1.6513279632580726 6.309824571475245 1.5721326525371442 0.8574585334134716 -1.110749218685655
P 9.555172408966321 7.813181790633557 11.296727628385078 -1.5773036552151223 -0.572811188206878 -0.9262157454835274
P 2.3725103113213613 4.233760735862741 7.075446760746549 -1.5035461617169976 -0.049954477541255905 -0.8032702202965263
P 2.9806394035701134 8.6005579390361 5.021201770928496 -0.32815169624713164 -0.20867227523185997 1.477002349790198
P 5.509065783882077 7.17034303549914 7.492866426727356 -0.797057406617595 0.20138602598309185 -1.8015879259526264
P 3.832225136958655 1.8921233108197961 10.089282745447164 1.0499007199397143 1.9467225856421568 1.17041192465361
P 0.3846152259888394 9.070487842510069 2.4654985420209865 3.100152888136106 3.1343009947727247 -0.7575544634269663
P 2.4768461849914907 6.015595526952634 4.477763741514494 -1.6966128692011169 0.6761610506501387 0.4921320278882557
Ni 3.494551180063928 7.622791155363126 12.644395411680813 -2.8944108991771635 -0.7021785577598229 1.0510299484481511
Ni 7.8310961519982785 5.398090782063133 1.79205020880669 -1.3760605825677976 1.5098898445468383 0.04096590088940042
Ni 0.9203947483711195 6.006896952536693 2.4770041699106122 -0.6285552758467176 -1.166765071929642 -0.007291391455090669
Ni 5.780545940437549 3.787255858194296 0.6659365264646161 0.8878142628871936 0.1410327217060152 -0.2778807159067214
Ni 9.024549965729666 0.6753526157215698 7.737649953110485 -1.1245987229742374 0.07581566157873394 -0.9653281381039569
Ni 2.0685398038393203 7.794816043785629 1.191333242346744 -0.116656863964812 1.1272587863049037 -0.1430654358653278
Ni 6.243723869391901 4.1894121121377905 8.48019129800721 -0.07675360001197104 -0.25823028866564557 -1.1819376659050225
Ni 2.380503595919794 0.5402773906451391 9.683575592369118 0.6482640671295545 0.5592951559983143 -0.18243905256694387
Ni 5.9392549571054865 7.605365794938543 9.566655467581787 -1.1382790486748073 -0.08456538274690598 0.5410536932896229
Ni 9.365703352390769 7.191417095246303 0.48525820217449256 -1.1891760926349906 -0.19315335366065445 -0.21882787560862313
Ni 8.161538537297483 4.703258061581971 4.232140450055318 -1.2660513058264906 1.1357534540394763 -0.9124760272999318
Ni 5.385404969212209 5.0739489858003415 3.9131707791209234 -0.3364260204407819 -1.2465808558067046 -1.220146829984892
Ni 7.908555781689207 3.502036655993755 6.526228175988245 -0.276008438584673 -0.4207294077755528 -0.7494786283973672
Ni 7.66739368342238 9.002714192979594 12.542339034700872 2.2103254514736252 0.4300666260160787 -0.46973000604397164
Ni 0.5445655527355924 3.9512686542899 5.245685175590877 2.1251522599393917 -0.3351913767027324 1.2907930315475449
Ni 0.5486402471079462 8.87748293298274 9.359445080743408 -0.01779846163400161 -3.3569999233009793 -0.9000221178072951
Ni 3.398208590992232 4.267765108930896 5.0949196030409345 -1.3006586114877148 -1.472843333316502 -1.1937750248595829
Ni 5.505727412079202 8.32234461568948 2.537921462028479 2.2105673922811024 -1.0146442107302653 1.0830396685855284
Ni 4.21677735705713 8.761392229020798 0.8519637687307263 0.79461177329058 -0.47525659228915573 -1.066041334255319
Ni 8.786989547464248 7.59254832798835 3.1884121414896534 -3.0222942279854146 -2.7762401696709866 0.5675543106833129
Ni 6.570874902209396 9.315383274877577 7.386942240388198 0.4743780463389443 -0.9744529832233604 -0.2042132110192418
Ni 1.32791966840549 8.916631219786593 12.568255144141839 -0.8245576689203928 -0.4838201655884506 0.6679813430528239
Ni 2.2607265771783402 7.73261888574559 10.513501405268755 -4.000179119708459 -1.8766857355287292 -0.5159270734253244
Ni 9.193020193471924 1.306234357483154 10.40304925830119 0.5581052494552711 2.548972647935442 0.853500577206988
P 5.696983202859111 2.8695609592446005 12.474870070371562 -0.9091166239093957 -1.0152597328270774 0.34876885827685095
P 8.792001807100677 1.2177910143675557 13.518625650143502 -0.07642552724859096 -0.6089670693021447 -0.8744936345188875
P 4.110871038060015 8.085611737476606 10.670405820390293 4.08941696823037 1.0218736385991691 -0.23642553408572833
P 0.48286397834065614 3.583944313467105 10.94981813642668 -0.5431159751352904 -0.8317883823408772 -0.14060900390503525
P 7.058540493627652 6.866861528957239 0.2954656526693091 0.4340690623072525 1.980869406727195 -0.6740468325206134
P 0.7966003988291355 5.463588696449113 13.520566607721287 1.1416636488763243 -1.826864698241544 -0.05847434208680897
P 7.30613483503016 1.7273299939928166 8.725938720474268 -0.7752714210907552 -0.7885581108973323 -0.3442149203575814
P 2.617292897318068 0.49467617220429283 13.90458186717203 -0.5003315329799125 1.160280749756879 0.8922255045810117
Ni 9.012418980868516 6.200682382795399 9.88532139370144 2.041740016960322 -0.7571148047863864 -1.1762519283741548
Ni 3.0035660245712643 0.34181729947598466 6.840710322910438 -1.7174496034408098 -1.0336022398900069 1.0594636810378013
Ni 3.25660520336494 5.3643779287862134 13.599858110164892 -3.9160968472455595 -0.6471962879866724 -1.3851990545339563
Ni 0.018377031485008206 3.255664816941595 13.375457459507764 0.05771792353675866 1.6948773745672487 -0.4348151964446576
Ni 1.6711513090621855 5.414641583114005 11.459701297482885 0.14499016369186643 -0.11512474359100172 0.10171875459774095
Ni 0.3544466891415081 2.157284070610389 3.5188601691073966 -2.806653234745205 -0.6811993844049946 0.984203377741905
Ni 1.8979443027803018 3.665438200914184 3.012418822360635 1.0899924457542778 1.793475838368453 1.3185190367079034
Ni 6.754899121393782 2.930742499947427 3.9941831887192496 -0.07451288360691037 -1.3632559746039619 -0.7766919555873657
Ni 3.179230208452113 6.24157038448244 2.5167260924327057 2.074116633518815 -0.19808087286925888 -0.3359580796654279
Ni 8.498808128030172 3.464129679268717 8.79298074936738 0.7077545091857036 0.18001450228585125 1.9863409713647278
Ni 1.8102156533464457 4.653737312528623 9.055258284383997 0.4015044981076698 0.2320909112661164 1.746452161320747
Ni 4.006459933476018 1.8396027290759773 1.2598864722221716 1.543510103704445 0.6977668018453725 -0.16511958745188982
Ni 4.757903916642549 7.165283756541545 4.937052232221891 -0.33909636818409344 0.6229320161226691 0.14983309360646452
Ni 7.7964147007053155 7.803477002744636 5.740042556797656 -2.001087790656599 0.11340159025230791 0.004306340684837745
Ni 4.1968599726106826 2.1507577888323746 3.9404090718731117 1.128091309508528 0.3594888157975164 -0.378584913197019
Ni 0.21978899563704263 8.852910635740734 4.993510211920255 1.8801495257076135 0.8207359811814574 -0.8777406807012754
Ni 7.685608968442572 1.0282279191496684 5.604017541433647 -0.10204888424365005 0.6687344191687644 0.2567184800068095
Ni 3.730964326892864 7.793113944359374 8.492991838001782 -0.525025950402799 0.536508754231418 -0.40419361490405875
Ni 7.4594648413565645 7.1291729178850956 11.258203758166326 -0.1207505744182114 -0.5201745358477686 1.384454720168764
Ni 5.322276828613058 5.559667977322273 11.69639279869313 1.056404068275871 -0.11631773545783838 -0.2988598892615498
Ni 5.035449565628596 6.273204983763767 0.19653417977414386 3.017802767872964 1.6994986753893442 2.225208282122729
Ni 1.5621040994110982 1.8043570459290061 12.285732029817027 0.6652680578867188 0.8371020812443066 -0.4451191494738269
Ni 2.148369207317078 2.1401126145201093 5.0245326196399835 0.4476478294329516 -0.9405781848527865 1.0248795153050285
Ni 3.3986129571542705 9.311527690541862 3.180003206092102 1.5930843150881469 -1.1943362966796915 -0.2537719957839758
P 6.939732072902244 5.490634209984515 9.969967456439571 -0.0767073201550679 -0.1446641478110154 0.323055769781463
P 6.823058329357828 6.613408580137292 3.9039775614463026 0.523642182681395 0.6867102869208948 0.6770213417679051
P 4.032724926280045 4.398112071070749 1.6480149818886283 -0.43430354691556167 -0.003366859589703879 0.9767844595700146
P 0.1333120005326588 7.370673555264329 7.648545518339276 1.1815075203461394 0.3542262818469964 -0.49005509075456893
P 9.006964739613114 3.8333630045309026 2.295546265275536 2.777695156949958 -0.3943357482733725 1.5393318039570392
P 0.28143226607373145 1.3655727407962244 5.777121053083726 1.469053784367083 2.3760338215494503 1.0091111967271782
P 3.7077461861004757 4.950165920895437 10.538895600244764 -1.6598517504216832 0.059563204275613554 -1.292353176945813
P 5.845188103178285 1.170705866150671 2.5452028741044392 -0.53794445823668 0.32358515992237175 -0.39041635861430823
