# total energy = -340890.67333550245 ev
CRYSTAL
PRIMVEC
9.05096374321576 0.00000000000000 0.00000000000000
0.00000000000000 9.05096374321576 0.00000000000000
0.00000000000000 0.00000000000000 13.24700032363299
PRIMCOORD
 96 1
Ni 6.279567798440658 2.195383699438555 11.627554277258163 1.273068360574272 -0.8709370275158806 -0.3899856988347929
Ni 4.495559458805456 0.08593256646896609 5.9714295429692 0.8869657988439691 1.39217677140337 0.44321936134795276
Ni 2.754543197651826 1.5631557697343939 4.820901786440654 0.9557098982879024 0.1871004625983552 1.3865658529744957
Ni 3.409543352505384 4.570311369580046 4.872564688329668 -0.010026016777434345 -0.0945417772333275 -0.6030249927860969
Ni 4.861073584573836 4.720729338482203 2.3006599859350616 0.1430430672678246 -0.3493314156485403 0.38357465310212646
Ni 7.082189174354098 6.015831761624968 2.6402195676500186 1.2370993986788306 0.2852746943779474 -0.04731061216050561
Ni 5.10870795662769 4.40132987373774 11.493362876419534 0.9960348231591943 1.6093655687466737 0.5318702270181421
Ni 5.734111459558145 7.910976886876006 12.527727847083652 -0.4189522612704721 0.34460701358967744 -0.019289444357231296
Ni 2.1260623669984793 6.488608860463897 0.451556208900425 -1.9852212559379876 0.47655988448161146 -1.4592506822337319
Ni 2.806169895685276 1.7605482412300997 0.16854433428637663 -1.1336001551418993 -0.9015282700391762 1.0721435904983148
Ni 0.37796915717858826 -0.035874400477801834 5.008108303173589 0.22701606784637032 0.7802963851091722 -0.22966224721996575
Ni 8.655653991960177 2.056894900944548 1.5555294275599576 1.3784157130635357 1.2525159903442171 -0.6055960959473828
Ni 6.834554802300243 0.6348400378830626 4.89504456734539 0.11582536920245215 0.9790832829065201 -0.6660653569770335
Ni 0.44345288092894053 7.369131882585945 2.1664142793130883 0.4877922628623212 -0.09876352862415894 0.8313471810384003
Ni 7.755119288675444 3.918524306907742 3.952971370379956 0.40602089792078455 -0.5953309665759489 0.14383470993118455
Ni 7.664663955550216 3.9912759546624526 12.536776095685342 -0.09592888738884124 -1.092204622914248 0.6207211245142794
Ni 8.082890895018949 8.755721448737496 7.08178007078623 -0.7454936756076903 0.1763771626435801 -0.10222963279588845
Ni 6.848620000186635 0.8046524122105485 0.488097665416983 -0.4591825695454286 -0.6963416393630718 -0.5346501037561244
Ni 1.972386051095614 6.504782932936859 9.080328838104757 0.2113914739352359 -0.30823387427728205 0.7015722916343917
Ni 9.011021987206906 4.611873395766862 1.2406400581223098 0.5420193996370021 0.8265286766038346 1.2941141255009778
Ni 5.988371137180107 2.025497107207164 6.537858775379608 0.8348001725840074 -0.438245048061813 2.2609664135589447
Ni 3.226922054079557 4.3616413970763315 0.3521847712463141 0.3089478696251711 -0.7627334365247445 0.6313737191321191
Ni 5.9138636024305695 5.6865486443116895 4.7233767454202775 -0.11269762220674785 -0.7453000715396454 0.7716111986303485
Ni 5.437411812251953 2.8648472945897034 9.430393873607832 -0.9567979891457585 -0.6141925793671422 -1.1971840505411318
P 0.3704568571491767 5.672926943655949 12.57007911732175 -0.4155766599300198 -0.6597234739194058 -0.17975944885225173
P 4.266470511763967 6.117202557202568 12.603831971863535 -0.5493964088273635 -0.2378116157999775 0.06272643249494358
P 2.3392578214476223 8.645335893124601 1.2520497032031244 0.16276908494184225 -0.310159373434769 0.7776172956151124
P 6.4068515036377836 7.926951838143369 5.883389912106443 -1.9317371679769182 -1.7042400467290713 1.6903460623557984
P 4.71415833869744 1.0431869451685352 12.511924864130215 0.4441436729344351 -0.5008177285877116 1.5436031776388834
P 4.1351591276354105 6.161923369787295 8.072073182976597 -1.33215642498568 0.9105924371239738 -0.9755122777258102
P 4.981044110947148 1.0471150634971673 3.683249026046853 -1.6556469683117163 -0.568584294609724 0.6178641146814585
P 0.18773780831332854 5.572144460731254 3.6153450745520854 0.404256092710878 0.6970489498427415 -0.4564589999666784
Ni 1.5963728072138401 1.007064548280124 2.9972665166985015 -1.157961100484767 -0.6739509303726974 -2.3202874199167653
Ni 1.6810626763405914 6.770111939397339 4.890355262953537 -0.009820328524531475 -0.24509426550431984 -1.3386258347601074
Ni 5.743696430318563 5.331732757862303 9.125222524099797 1.3380133979870892 0.7907057533679543 1.329059017007279
Ni 8.753313892342527 2.3533230193340144 10.336727529457438 -0.8191364979048216 0.6224563620378313 -0.6691833337807249
Ni 2.3822408489653033 5.325442337958158 6.959735968585522 0.11183527420645255 -0.368127722419437 0.3124057462667846
Ni 0.6081822339353208 -0.208721562997892 9.082580717920802 0.33015947070577983 -0.626192946262128 0.19885528914143816
Ni 1.5098727453089171 1.056193180279697 11.322675273883803 0.3481919027274584 0.06193761804506108 0.14182899235506544
Ni 4.162565446296926 7.024344464127629 1.3015141259630485 1.2508270326775683 0.8813623366142627 1.5628651111922889
Ni 5.620395149233413 7.81568833903306 8.233633793524788 -0.6552908920693489 0.469476752382585 -0.3548184069050405
Ni 5.200330864094838 2.9642359290752065 4.683543453336615 -0.49599151084366183 0.7395500564297457 -1.5043056655908416
Ni 0.8530922658580273 7.253614430446934 7.0692616826287855 -0.41923096885315536 0.720127943149392 -0.22768018379293045
Ni 4.863689313138293 4.207503482015032 7.1952673917245225 0.6760096126739391 1.095127452987998 -1.0415474628790125
Ni 7.8736959666095645 7.048293314582837 8.934081553363507 0.7232142953841997 1.1018943393981862 2.7832405122482196
Ni 4.754932931025752 0.293164340810423 10.43113903889936 -0.8894389429748101 -0.003942015366883533 -0.1241734840568313
Ni 7.910651052175935 7.217102842111216 4.686113021985229 1.5679062731606224 -0.6055544440761701 -0.6649453844399774
Ni 7.095991894287655 6.1178632775666015 7.13725885905163 -0.43362426146034994 -1.3122208624040177 -2.529864466351082
Ni 2.197601185591815 5.378589597925272 2.5350917169613223 -0.06087446688786934 -0.43783649976948463 0.733116642099576
Ni 2.736205944808949 5.059135827397465 11.377743148388555 -1.5653575385968397 0.14674622715102467 0.18478904085635917
Ni 1.4351570383898906 3.2806666776634676 3.8957973365777994 -1.5740566090327344 1.0144719468184593 0.07869658267095479
Ni 3.530844370570653 2.6724781080534226 2.639053803500876 0.9124248623470221 0.14221774315305183 0.11530317815039498
Ni 0.8415197034271772 3.4991026402054164 8.237859688565429 0.9508610548360333 -0.5508084586835417 0.033262875818187876
Ni 3.638559891835745 2.317979005340217 6.930208103987989 -0.30544885533297716 0.0463994132001459 -0.1124335699120838
Ni 4.020619179596612 6.945646333096625 5.678869806546687 0.22302365885752556 -1.6380056010808695 1.272854187680937
Ni 1.0207858095386633 7.2234385168348165 11.209280272777198 0.6827957823578369 -0.652449823076128 0.5856008837723786
P 0.1381928319747759 5.522843860417755 8.130850142483823 -0.2980299371610867 -0.021526046997233896 0.2501724513581756
P 8.636511203331015 1.4647989451324481 8.23291786228102 -0.5301941248672998 1.1521102981309448 0.2684193133835055
P 1.9015170038302016 3.178037798105037 10.447657953096563 -0.5873926855654787 -0.012777097160010253 -0.3029934518139491
P 4.035689034474889 6.304729478057241 3.524563001630398 -0.8389936418400648 -0.41501873054402066 0.5607264891282021
P 6.956290266632273 3.965363045042928 10.426330261784146 1.471205540602763 0.668307616043991 -0.33317280361080687
P 6.325048891992215 7.828549758721969 10.467117525461905 1.4305576851744137 -1.1510836566386433 -0.9397567173927558
P 2.2894956219756892 8.667845640321163 5.955347790327925 0.4569418531403679 -0.20578184105794234 -0.4523447206879887
P 6.9526608301120385 4.017578055729284 1.8657874187746535 -0.9166939220360212 -0.7041331103830326 -1.8751003933194803
Ni 5.215047731381372 2.959981976046504 0.49200587162505516 0.4877231001872826 -0.0050617307936235405 0.2745521657541207
Ni 1.5902905594791839 1.1895500822475877 7.353528925934496 -0.8154407942207891 0.6411477677997474 -1.202720664088645
Ni 6.897404695558356 0.632742929549551 9.421690466730384 0.42643108614602043 0.9169062951571435 -0.9692740101255822
Ni 3.047016044820987 1.7365179320998738 9.286174004778134 -0.2074276041914815 -0.49858241149928967 -0.1658675213615079
Ni 6.553929666864214 1.9827675066784274 2.5631886241677106 -1.0163321399556495 1.3714097140593478 0.6672925445159152
Ni 4.062606601086299 6.878569639701482 10.578736727453125 0.8185502863840485 0.036125027857331335 -1.681029412940563
Ni 8.164802118231206 7.408575983222302 0.0953410434335122 -0.08790370309151957 -0.8030889575236556 -0.5246037752637159
Ni 7.460066916797388 3.63892193039138 7.899199772661222 0.2864334905727389 0.026748214628121676 1.693969775151315
Ni 3.3119830127258334 8.305273077817311 12.327076123490846 -1.069548318967313 0.8940851834975698 0.7166402417111077
Ni 0.39181713193159984 4.822851364062744 10.431867641492573 -0.6479419079034454 0.25886663669806387 -0.35241082590481243
Ni 8.446748694395302 2.1102231801894793 6.178851387552365 0.5665883472256177 0.9363086109431553 -0.9604006188953524
Ni 3.738129545599066 2.6802347841078875 11.50031763707327 -0.5770913036394707 -0.24782323439970866 -0.9247090790310138
Ni 0.8998522606073632 3.3179475979299085 12.563362397018345 0.8820205390235518 -0.4290582393562224 -0.05970410072885202
Ni 3.0599227193293497 8.445662578728399 8.066390082749527 1.396093332848957 -0.21816555943427587 -0.33818208389994014
Ni 5.602048845426646 7.850959945315731 3.5248019470771164 0.6495735299695975 0.5366856461289145 -0.36311844213030364
Ni 3.2672350472494354 8.39711320841784 3.9003934160415765 -0.32850625137307293 0.5501086044030397 -1.5512426964620123
Ni 3.3653565467902187 4.438999985451488 9.159227900534137 -0.1222544126572475 -1.3079973112409733 0.24892495210431967
Ni 7.304281726307953 6.01004819569871 11.475611220940397 0.1302410304071499 1.030078800117781 -1.9897029458584248
Ni 0.46613550153581784 9.20311059386257 0.27916430986404495 1.1222909007766673 0.11482546718302805 0.5148418107809456
Ni 4.400967835182106 0.5766197126551234 1.5556353238374805 0.377981218174749 -0.8753696093659377 0.17169929755193655
Ni 6.207513074905543 5.694251014582809 0.3023456385813086 -0.3838021957319003 -0.6102765321421877 0.950210565736228
Ni 8.419007490069824 8.707896155538206 11.043348951766111 -1.7873378437915153 0.5026635235471988 1.0735816084964223
Ni 0.1678238775606644 5.127262432603947 5.831237353070934 -0.673930104437091 -1.243032476333814 0.24039197493264405
Ni 7.814013910713252 9.08137512953054 2.8194250323034358 0.769744577735255 -1.7110930650951626 -1.0933215101275107
P 8.613159716492602 1.7829946316794258 3.830039368621554 0.5541408654908844 -0.41849460490776313 0.2614714213107626
P 1.7498409509472157 3.1440061738754133 1.5683392567546879 -0.8690035579385937 0.3947319552705267 -0.20464412790907338
P 5.009762819372838 1.0351134853778905 8.198356756663781 -0.5759551331524984 -0.5605372559355314 0.2597773214377913
P 8.378775955574964 1.4967126438116107 12.303854065436076 -0.10791202789264642 0.6645499487737716 0.337597929261696
P 6.475358249327681 7.700496721594121 1.3630498192642087 -0.2687813247086145 0.8135343212266958 1.013157084661778
P 1.7964443640212395 3.350503915045322 6.121862898509971 0.3810061210440019 -0.5815441972045017 -0.1427849285104315
P 6.76156782948437 3.9640144514231905 5.955122421327043 -0.09209665812694462 1.2166768691584207 -0.7527680977819164
P 2.4765156888524724 8.53266949461121 10.137876947678915 0.6531103394782624 0.207778559772997 0.9333215032903732
