# total energy = -381165.4924362563 ev
CRYSTAL
PRIMVEC
9.35828213840006 0.00000000000000 0.00000000000000
0.00000000000000 9.35828213840006 0.00000000000000
0.00000000000000 0.00000000000000 13.69679185920848
PRIMCOORD
 96 1
Ni 5.061426801893571 8.304595567275891 12.27407837685879 0.6387862095461063 -0.8002530307367572 -1.7520733641622666
Ni 1.7384786827419185 5.003948234051784 11.10676933238266 -0.2643497712998221 -0.22247164300879751 -0.49378241900748504
Ni 0.18067660662556792 6.716485759180966 7.085048592859537 -0.3731568002029122 1.6380886477129788 -0.33948126232733794
Ni 5.990039763204649 7.321873019631172 10.001849146296443 0.21551938006068044 -0.22884643618688974 0.21994964791789218
Ni 4.87842559802738 5.848130775455894 12.47629774857257 0.38668208838285667 -0.12654738360564657 1.1782723012382934
Ni 1.1061770033543972 8.737341241997465 5.522121921538015 -0.7288090158631577 -0.7887951666088029 0.20947343097691665
Ni 3.9738821379356235 0.330784385205679 6.672035791493743 0.5528900238029187 -0.258135157848678 0.2607877649801767
Ni 0.6576766609412507 3.2202409745629823 13.375012870655231 -0.6944729615854491 -1.018430160135259 0.5124463139655755
Ni 3.7019398222543343 3.6073650246950546 11.574391452339135 0.16638611286913924 0.012999497583461483 0.013730976432847321
Ni 7.6939770272060874 8.945665956866563 8.403913142136085 0.15070572601940496 -1.5849382889422445 0.3008710061543077
Ni 6.622566041359381 4.660948483394479 5.177483535708276 -0.7236521542525667 0.287333376679189 -1.240994619968179
Ni 4.378431309090392 6.357951260458313 5.997605934175032 0.5555763123858303 0.5662996123406053 -0.9328875010767481
Ni 1.7285308290109158 2.671237362964413 1.899512255518592 -0.14013772069557154 -0.7563632713323426 0.27081943818456583
Ni 8.138907185048794 4.555330913114048 6.837657729918875 -1.0960707907378735 -0.23224312057326454 1.6034594876748836
Ni 4.528453927304604 7.411235254134791 7.998200736532808 -1.3456503457070565 1.0851423167508278 1.2236165337010474
Ni 0.7203883800590266 8.160599682648478 0.8255511378358573 1.1721039676440523 -0.28525463977328935 2.0037630234959165
Ni 1.296140769004092 7.15476217854508 9.559292248760586 -0.40930316821648216 -0.12186617607989336 0.30839842487960434
Ni 0.6310064931632781 3.9624369590898882 5.824902583785413 1.1640304466072986 -1.2524051757979657 0.38064616660142186
Ni 5.79032466774526 0.47922451793925686 0.1851255338727163 -0.3965785215609622 1.9597223403359347 -0.7192026031216452
Ni 3.9966695545254556 4.041916847836273 2.2794201344258513 -0.6167302581873314 1.687917655419964 -1.993140253674748
Ni 4.020916863102152 2.44537522768901 0.41791466946014894 -0.23216598747842593 -1.2246735142106522 -0.10317811275208683
Ni 2.400324458299502 1.7760053934298972 12.068640691976533 -2.1321801133204503 0.2170892956509616 0.4846930551117072
Ni 6.537976530658971 2.5957908937458383 1.1499316506914654 -0.41655162224877934 0.3221828802582064 -0.13817468343192976
Ni 9.070524154871304 5.916605324608996 4.873564906373681 -3.9473326653313894 0.3620982283959054 0.2685380983495569
P 5.967102614103344 4.076879389265272 2.987133657388669 1.5934892638360494 0.077109440689493 0.18781831460098622
Ni 5.019333249605658 6.344550200681459 3.090927298513716 -0.10415178951926579 0.06192784785304818 0.5254242142824822
P 6.296673230137893 6.870242331900039 4.765305493093945 1.0543597841523327 0.1996901263379077 1.2806957952125426
Ni 3.335113885708852 6.800541847809249 10.849858289196892 1.2126536069316405 -1.1046163663150395 -0.6968085516971612
P 2.333347234261132 7.3945213625415915 6.8344384809222 0.8672454375969064 -0.7387314171831922 -0.42017353527208284
P 3.105611378748257 0.8593495089881523 2.2349467710337114 0.6418334810128623 0.0023484456275185365 -2.12816482151347
P 3.5372247013518123 2.6927052617968874 5.272265151299027 -0.4819779701733892 -2.9476445616903235 0.6350912771930223
Ni 0.6832556530418621 5.0415123778676305 8.387217031278624 0.5323849618710315 -2.208070851111494 1.5353172834810074
Ni 0.5273887877392118 2.005713782593768 4.298230832632544 0.14120472850750523 0.6059632494788144 -0.16878752322178028
Ni 3.1367370245707544 3.1045164597581083 7.304060465735038 0.9298597699940181 -0.027620589930745978 1.469585745611153
Ni 1.5872675627178892 9.03461642696363 8.032757128524436 0.6484221899739736 -1.3074815479468191 -0.06751125547809662
Ni 5.426558889403012 0.8223066214778717 9.355004696732083 1.0133105795205064 -0.530024689168971 0.14053984122999666
Ni 1.2855284772534268 2.7589244649959235 9.860881601713576 0.20640481935392194 3.524900415932117 -0.8613005328673813
Ni 9.279410366658428 0.7572001180047206 11.760339579196758 1.1431075804117024 0.6081723413149913 1.6244517736558344
Ni 8.447206426172176 1.640385171163018 9.857073716781173 -0.5849452524662506 -0.9182262995201477 -1.7313780405964438
Ni 2.7732707112514525 7.4261242807444106 2.5631903826853293 -0.2956321263528715 0.3206433036852284 -0.45332816764718054
Ni 8.210011411434644 2.166460991942249 5.887606816277615 -1.881759807617527 1.106361116920288 -0.44575626883719366
Ni 6.690001821214137 2.9102666009674922 10.865678464862233 -2.462558642015572 0.2199681598606534 -0.2023771862517676
Ni 7.790283106929276 8.412805381661203 5.85714560847478 0.41557537437843917 0.3709538790143224 -0.8186479883041773
Ni 2.5577588358316374 4.24202499113828 13.49249019167254 1.4444151598827963 -0.6896423729660253 0.19515572880266388
Ni 5.52610293468681 5.144809094220226 8.386449652157323 -0.4760860301689866 0.6640454983335273 0.48038157222054695
Ni 2.4146519879910966 8.599671555979794 11.820084722930972 -0.010744125890381496 1.3821384133307617 0.6277026980384351
Ni 4.732417682777045 3.140573920177256 9.317557531440825 -0.006340854616363274 -1.3207561535685381 -0.05192522811438154
Ni 5.6710720806387975 1.8726951627137363 5.419806888963765 -1.1282620307584375 -0.7009349151607089 -2.4562411844379763
Ni 3.2661714224573957 1.1738093071304625 8.82871925043679 1.0059888490481126 0.9983570435344676 -1.5480223897525018
Ni 2.224239024806982 6.40617448743466 0.08077507497062801 -0.564315492031041 1.4592216287680095 -0.7302922852769036
Ni 2.909031307747838 0.2927897604193465 4.293012654607701 1.6087778145640037 0.48068650505547533 1.4583263706472496
Ni 0.3579355686767593 7.6176883126104755 12.306635839822253 -0.15920090797460967 -1.104497838459304 -0.5060512090725091
Ni 6.166134554979137 7.81204111250273 1.0804099097862474 -0.7516782071518473 -0.20629091948387698 -0.9144380361223089
Ni 5.389097686688803 8.859466821667818 4.964909224997926 0.44245317260588957 -0.574100853552579 1.280798639338994
Ni 1.1844215988811275 0.401676178590877 2.8212103822841974 -2.0081894346983864 -0.6915624728068736 -1.3768733082770803
Ni 3.164737004216249 4.9210806472333175 9.07202896661161 -0.6438044886963041 0.5132623821089677 -0.16398855917124017
P 0.5427120386321036 4.256483536777413 3.7217335244428984 0.36606621190471794 -0.6735961181364399 -1.0275267231198884
Ni 8.833347856697706 3.414013560973278 11.349380920722737 1.6205339266586671 0.10488275414801937 -0.45856987566209406
P 0.3454628504710392 5.280691348382184 12.629359936769688 0.13155486412256698 0.24766691132750246 1.7802400564044694
Ni 7.225501431934215 0.2554417929169391 2.0646269750611075 0.09851747405162388 -0.04841284408574888 1.9692534197548217
P 9.091889112602141 2.8378428568242837 8.16334259509303 0.18974407086878936 1.8722829784753434 -0.008368169459037202
P 4.9979776501567885 4.909785200899055 10.560678018132245 0.5747410582397393 0.7382357084936964 -1.121287142102501
P 4.111898080386074 6.1014220351768 1.1187769941948695 -0.48364353080127026 0.35199739251647766 -0.640363067114923
Ni 6.354254739081317 5.601334163420141 1.1173966476047257 -0.8088389726335554 -2.6926584909935882 0.4970448918088407
Ni 6.383798835251379 0.7564598779011248 7.196376586796278 -0.7064532738757769 0.39971243920425353 -0.7382333945008512
Ni 7.671432925947399 4.6924858936235285 9.304791899009535 -0.1595212674285059 -1.9982824599973197 -1.2775212541393033
Ni 6.7389175610560486 6.774142134380126 7.314182383510629 0.9299502728252952 0.18331117075925205 -0.5025527090009474
Ni 4.773912305019065 2.0474330036029973 2.8680120862297467 0.7934771454655044 -0.9155094148096168 0.9235669950067708
Ni 9.234659062291867 0.9173343598843579 7.308607654942842 -0.43781515961324596 -0.8354717447297352 0.675847633174778
Ni 1.9003863190543169 4.880952334158491 2.0458626838889216 -1.187749387490793 2.2351558802537443 0.573872796702173
Ni 8.366753276101216 3.884482470304137 2.216606410034634 0.1799111439387676 1.2891354413394638 -0.21138247507417143
Ni 8.075607765823484 5.631533339327898 11.28688257043381 -0.7746705542819626 1.869294842381297 0.9265278774073075
Ni 3.6742393076317863 8.428143605805241 0.26557774811548013 -0.7810479185632162 0.39086373056437196 1.9064951055806778
Ni 1.9652766462140285 1.3639040887276965 6.4281505409779465 -0.13837034438250365 1.074311287573595 -1.1137941761595658
Ni 8.182572928707174 9.117362356116525 13.599640648539177 -1.0600501496688906 -0.13050713958434298 -0.46648784495759016
Ni 8.444389583300087 8.33648859221969 10.413191494331112 0.9449151216652436 0.1794930825647425 1.4068595702265254
Ni 0.3855443721360297 7.69626980628802 3.4559059101988976 -0.6535679958409712 0.24578897757849924 -0.7500797523164758
Ni 1.7513650370105835 6.056090517328278 4.37417984159275 3.3002680178265744 -0.19894553486239933 -0.20807012287148682
Ni 1.644624472894104 0.7518612181425032 10.074825964903905 -1.7631571327802535 -3.8288186935531803 1.834598576550692
Ni 4.147309819349494 4.441141156551776 4.562620078938205 0.28376828503574997 1.471075442782802 0.010702731129484794
Ni 8.370627604835585 6.6700125309324605 0.5818324647390755 0.1807611506438887 -0.9210791955879104 -1.0548169262944092
Ni 2.466983500750991 5.0867409546145135 6.612057626538549 0.05806887911827418 1.843103785808226 0.10988560667924946
Ni 1.639542925785981 0.774817083807743 0.42180958641484634 0.7928459396394087 0.769492609625449 -0.7677943959874196
Ni 4.507650466491792 1.359215589462191 11.782240766484307 1.4402412310107646 -0.7349074154514117 -0.233709677816462
Ni 7.721649466982734 4.20462929639784 13.319513579449481 -0.1149535081204601 -0.006458354030834038 0.562841992809308
Ni 7.535372864428066 6.986369252829497 2.78461294899555 0.07289720238035834 0.059823914136167944 1.5258396830078753
Ni 5.639169697413033 3.2854214084636735 6.999183548327015 0.2401567189933864 0.6836185353694485 1.4296264316093958
Ni 6.713116777672817 0.29903922111696046 11.216248129802707 0.541019497617578 0.701134946986657 1.1210079202991856
P 8.203104999342942 6.705873467430299 9.230912006192248 0.6422289166790682 -0.2932559128112111 -2.355949392094749
Ni 4.842695677477081 9.017500129245846 2.8431527460124033 0.0755032725446377 -0.763610182702743 -1.866446060078592
P 8.454253212493386 0.22634221514031333 4.0252956032345475 0.03372438883563869 0.20942997933349092 -0.16218647296549488
Ni 7.181096384000435 2.3534488239264135 3.6802866294389114 0.4544090594161852 -0.4771391540238492 -0.5421443552506405
P 3.8698741921535302 8.72423028896159 10.040446444441454 0.3869973056304303 0.2676898914166487 0.05694890658121806
P 7.229085653927606 7.3510521428045195 12.450301377096228 -0.9385968927566998 0.9715496935336363 0.03386811350235457
P 7.554098786644188 1.996112185295547 12.622072642601925 0.08800757565923553 -0.47544351148898123 1.1414289071576988
Ni 8.772210200606793 1.766759410846425 1.1745542263750417 0.7607498304358125 0.0718456211873924 -0.20494648964084058
