# total energy = -340852.27743571356 ev
CRYSTAL
PRIMVEC
9.45421591000188 0.00000000000000 0.00000000000000
0.00000000000000 9.45421591000188 0.00000000000000
0.00000000000000 0.00000000000000 13.83720063107236
PRIMCOORD
 96 1
Ni 7.7701175741212065 9.174286093227929 10.885780920158343 0.5886203873249927 0.794445937136677 1.5436728545345544
Ni 6.8090492492840164 1.4870630847667734 12.547532389741548 -0.8719287020051886 0.7158650541079801 -3.430720135803266
Ni 7.4722152287803985 4.514841929952783 2.0647591701717856 0.586813158912925 2.8708811914863395 3.01952514988071
Ni 4.291902063069838 1.5693431263885143 7.707154386577547 -1.2551295167076642 -0.5758119227064147 0.29570257457949073
Ni 3.346291381350142 2.269815442118308 12.198170746854247 -0.4524447366009627 -1.1548611214032045 0.7493467308051933
Ni 1.0473758624638552 5.5122711694259845 3.900402034164811 -0.2868885758322866 2.925833379352503 -0.2429057424934333
Ni 5.128174737050198 3.4477067561032633 8.524559281738592 0.9577968627239182 1.8655968247044192 0.34854362963992225
Ni 1.4747915124325186 1.2843079689883232 13.627331485888243 3.007275385979079 -0.002267198767621902 0.02485691114267977
Ni 0.7995165731166353 9.328767982243123 5.450639135491464 2.61511504809047 -0.6119618902644106 0.3720363134452238
Ni 4.0508101015168085 2.216011499010262 0.7305991203525493 -1.990466820607643 -1.2459913018518218 0.44393669912995154
Ni 8.117890908724876 5.98589902707557 4.415617097040838 -2.115917885825317 -0.4386319990875865 -0.30418104436414706
Ni 2.1023150977069123 8.535842888503563 8.154926854381431 0.7104582812701119 2.7658544555612883 -0.7870722703804252
Ni 0.08045065083077137 3.4703968744408686 0.20685919093276461 -0.9461649349119448 0.14627494394156101 -0.9287104868809232
Ni 0.9755710921413088 5.9640219713117295 0.9613897681803055 -0.3546219746235183 -0.325771111830097 0.6797284562864229
Ni 3.20655806925439 3.6460751156697766 10.459152806380317 -2.7691547235791147 -0.09563706718003528 -2.385335301456034
Ni 0.643182603192133 8.300915075765584 0.5837467836283736 0.07372175516418272 0.7940870111353615 0.25530257349588936
Ni 2.1974056019734256 5.312673761782851 6.325454757154637 -3.735014822927142 1.6610799664018296 1.05674216834158
Ni 8.205077688437123 1.918137516317376 9.700541789518395 -0.8286935454656372 -1.0793365087023281 0.2971555049759334
Ni 0.16696807205205993 1.2554064307557986 1.5478158766157113 -2.260807005162945 1.2603827946868036 -0.1169941926995727
Ni 2.089599177221879 6.998057935036268 12.698205175140817 0.06393690786327698 -0.20621070106524483 0.5207926290477418
Ni 4.454580757334493 6.914340852586478 10.304189697772044 0.29001195195261664 -0.09754765393918684 1.3087305898625718
Ni 1.1269709067489793 0.4163910887213797 10.086004356102425 -0.8439502145143918 0.4377267136644977 -1.1583166840519727
Ni 4.237181061012313 3.092086422241172 4.91346571059422 -0.6805499237464537 -0.3021730127951828 1.5993971446800521
Ni 7.103841157569378 4.317853885918474 6.319961857673742 3.067967304542497 4.568806351740976 -0.4976383024184655
P 0.9861030887363472 2.2925055604559135 11.405506589475568 3.4185788724550417 2.886205480548236 -1.8987144331939942
P 3.1295156632822465 8.955033370574846 13.071629688525151 -1.2983492466282478 1.4154115735615946 -0.7149366287564397
P 8.566928350626082 6.601746655622071 2.4062615233198996 0.17369858737015245 0.18266171010071122 -1.334044128926696
P 8.56964171061062 9.108210577785627 8.96333700846481 0.08424605173427427 0.4582783125636043 -0.7016162574984497
P 5.759158565371077 3.0562549436997037 6.211090888203523 -2.6366194978211497 -4.391694367813901 2.371684800552135
P 7.492494522044632 2.846588796044258 1.0503019423078088 -0.01425625280869803 -0.3686383435072684 -2.0269350907370063
P 5.241596966090302 5.386350466868249 13.685752868077993 -0.5244083714234581 -0.09622147892859557 -0.24794613313081817
P 7.0095542616606545 9.39887099369035 4.213925580559462 -1.328391301516293 0.3596726496735483 -0.5374042694624938
Ni 5.748210583273183 0.940210433555346 1.922720920221572 -1.8932354123572943 -0.9972604680361791 1.099900448896609
Ni 8.243064728220665 1.371135488493559 5.378921343955879 -0.6410068713465089 0.29814820790650587 -0.33507850527395194
Ni 6.961782108344022 0.3454428703660779 7.721476578356563 1.412773107497483 0.1847720715754947 -0.616059457372552
Ni 0.3565752096754654 7.447114285369422 8.964596310032547 -1.5993382664176583 -2.14962607671104 -0.6578828211662412
Ni 6.943497654650302 7.365212412386641 9.891620003147356 0.32336790170524304 -1.8743272625988816 -1.9686831490736483
Ni 6.919465037644388 6.967662630679851 6.825544965315455 -1.0344830998330636 0.2784910957972107 -0.4660569280677586
Ni 9.373231159968856 0.8775233091181271 12.110552854893584 -3.236904208857948 -1.4784889616380537 1.1581583040972376
Ni 7.544322534014113 4.113491553424443 12.158596344208672 -0.12552665565061605 -0.34322273164764117 -0.9040358669523786
Ni 2.28642649958463 3.3708534344506 7.272860794487796 1.264250762282642 -1.0481731957256464 2.526213499862056
Ni 7.684953996627395 5.176892311964232 8.263133192468677 0.7947866083055474 1.2608800460381964 1.3792299814347149
Ni 3.5509751571872887 3.592290080993678 2.9921704861415277 -0.9401760643183614 0.4946465667799932 -4.34705256073481
Ni 7.548576931202414 0.9170060058687549 0.5285199810162401 1.5354648648024654 -1.455893849946357 0.23517366395649822
Ni 3.082745656858858 6.495935070441039 8.631756854981413 -0.7880811712609136 -0.7863842431744651 -1.6338134173763925
Ni 5.529941099081395 3.315829897481907 2.0615078652983265 0.7451710021609489 0.24142504418284874 -0.3956228425159122
Ni 3.2871741688647065 8.486056987184467 1.3237036869519903 0.4566004106405491 -0.6237835654896869 0.03574990390609972
Ni 9.001869556510051 8.701442935504184 3.7991275272297025 -1.0511780439902412 -1.226642722121881 -1.6948470355499456
Ni 8.839947199523317 3.7470177796241972 3.8988108896163864 0.2847887558804643 -0.34140419038166364 1.8752706003487576
Ni 3.592866788168092 6.039457160568293 4.918709964194999 1.4367730699565062 1.9261391050638503 -2.6802552322332294
Ni 5.002726745291164 5.679431162062317 2.9037508766662694 1.7632106117260085 0.15844243254203036 1.2786430264485722
Ni 9.487494814230645 0.8938242683005017 7.231501435866329 -0.16761304329770488 -1.1270482129559944 2.5284372469862517
Ni 4.210368904510043 8.413874048222961 3.778967357086741 -0.11406442064728743 -0.012325868555204579 -0.029878275616671127
Ni 1.6663717449296984 0.1645487381843128 2.641521179038567 1.5215176585937538 1.1970051017611063 1.6908610543190041
Ni 3.4867526680758925 0.331054499075244 10.689514232802852 0.2819266038413209 -0.5330732461873078 0.03996445620807956
Ni 7.406262618145759 8.574869892044244 1.703912545719266 1.6347307869843395 -0.40436896413965845 1.8539358434267235
P 2.6249441567497516 7.881989311741574 6.237948424942468 0.03893807182609423 -0.5748187055552101 -1.5831979092123702
P 5.867276979249766 6.5282779432881 4.861091244941442 -0.4301568717370398 -0.13264912562801026 -0.08256763559058683
P 2.0083307367093566 7.644376501666977 2.981930624820086 0.6560411399718121 -2.499814698153553 0.32370780154316514
P 0.20181158502424487 1.665000883613468 3.6344927556800264 0.4045705386275032 -0.134018238061395 0.832375622302915
P 3.7575119593553397 1.3163483069242166 3.3154347112541935 0.5356068112424389 -0.7132008770122555 -0.9820104838556443
P 2.2056307698708078 3.4646298026967273 0.48945516061166316 1.064146174115135 -0.2103972283427667 0.7874653920537857
P 7.071451013642446 3.8173193296068773 9.729171046330869 -0.3411432234107931 -0.8429060895205934 1.6601898504873924
P 1.9662594756250469 1.326814124007437 8.031083243073185 1.0096932944828931 0.4953569625834566 0.24569076143773813
Ni 5.120724814862685 0.03734131683251633 13.581115496520932 0.2877079864097884 0.2548433744712837 0.1565830107357884
Ni 4.600525489325165 8.637891695726942 7.37154768251082 -0.3786211657515931 -1.5601937350077129 -0.5500327568597817
Ni 0.3175463152915897 7.212800996669753 11.289371000450926 -1.9774734936717686 1.556706547790061 1.150598746582425
Ni 4.410798283158889 5.09418683062366 6.810352040245234 1.9039250308606568 -1.2256402489992957 0.4019130463999981
Ni 6.785186808165635 6.594381821378324 12.480477417524341 -0.046947572394132046 1.2230444632476614 -2.373123075660558
Ni 3.5249949716907305 0.9470288141157962 5.4409532912261 -2.3776217348618602 -1.5076781816075002 0.15642437367073705
Ni 0.44698493161325065 3.38117743829421 9.46182283617484 0.8509988938310569 -2.3694237724321003 -0.2704821094498051
Ni 5.379619065094761 3.3705887164033275 13.138961669270397 0.8039723885698734 -0.14078126781684142 -0.4649025027483413
Ni 1.2317330739568972 2.4103996336517204 5.545341071481446 -1.486135165329402 -1.214370332512431 -0.8304236407828667
Ni 6.304118482544509 6.905709153402214 0.8842679467939804 -1.8572157997295757 -0.420357883368747 1.0610030005004631
Ni 9.206780233530575 5.224399747233592 10.410335016776957 -0.9625552033445102 0.40722725952405997 0.2659227722138969
Ni 8.728434722109961 3.0385093803165018 7.311451958672076 0.3870523272380818 -0.3431646247161961 0.6911145866361775
Ni 3.4867337596439443 5.5801808027672415 1.2800790981831522 -0.7905864541812707 -0.28593032568407534 -1.2369528457986376
Ni 7.43997635230905 2.0031403721396295 3.12540875186314 0.6377392563388307 -1.10276208671512 -0.2582721976471746
Ni 6.44864508213908 3.725840335842433 4.244062784819789 -0.8297736659036935 1.1878278061372125 -1.0683087901332569
Ni 5.056549596831159 4.514435398665901 10.937559770204759 2.670286551056291 1.2893745539334633 0.6034191429007221
Ni 5.306084173248971 2.0956026043653706 10.55244322792538 0.4763408264922699 -0.8116085649588924 -0.1681735437868652
Ni 1.0985420793151548 3.806475343884697 2.418355356393843 0.9971023451917602 -1.0788204882978583 -1.3619310851449513
Ni 5.640205619986182 8.580400608389034 11.325873728326547 -0.8639505688957185 1.7672395303797437 0.27824426989372725
Ni 8.000630267999327 5.584860639674373 0.19213330413165888 2.477199017636566 -0.29624944822189625 -0.27172163828386103
Ni 9.35610957483994 6.982808284670202 5.942455013831836 1.2836404796631635 0.46910137132103724 1.0914741725061268
Ni 3.0240822467401745 4.64249275403376 12.72242025851503 0.4349982589897412 0.7062807528536547 0.004075455620954271
Ni 4.403442903131115 7.220184739345449 12.805955820018118 0.6745669666901414 -0.9873113272432674 0.463432345960718
Ni 5.669995854520263 0.867941461228476 5.905537245874955 1.9905948615450748 0.19492252974593527 -1.6820629964113998
P 8.443465744221589 8.640113436480833 13.03366061175196 -0.9805485545981371 -1.4316578602171277 0.3458396004451979
P -0.07732886871615587 4.852045451097518 6.496953289501439 0.1663226066210555 1.0467403199338619 -0.45113938752597793
P 1.7754166719738396 4.865725701611899 9.004060098351227 0.8193810098154598 0.6156233982763978 -0.017000391212738462
P 2.2572791517367814 3.924492321888166 4.509502188770666 -0.9189454370743594 0.9836292504059898 1.297155997651095
P 2.099734096746009 7.869122123800956 10.287737471134085 1.8875440183994716 -0.40335106439810536 0.6874250535997323
P 5.477290570322176 0.07659711239976809 9.08073189905719 -1.558246124363039 0.5640704658997705 3.1778927633207465
P 5.311387988410386 6.242410814882198 8.368517447087685 1.2357020041106719 0.5995532321874127 0.571809486415241
P 0.36834665398469546 5.345290806893158 12.64691132637387 -0.2023864422231482 0.17132983002765978 -0.1474098288769526
