# total energy = -340861.85008449724 ev
CRYSTAL
PRIMVEC
9.38170587388639 0.00000000000000 0.00000000000000
0.00000000000000 9.38170587388639 0.00000000000000
0.00000000000000 0.00000000000000 13.73107486379742
PRIMCOORD
 96 1
Ni -0.07319231749999076 8.61823214393958 2.415543493325615 0.1270618613482199 -0.981582138068974 1.1671869899584093
Ni 5.57845620240329 6.8030033775579115 0.5104182819177153 -0.6753694079867788 0.591824238974271 0.542357242592395
Ni 5.549626219876953 2.020481730166634 0.7041720886631341 0.9439391309052195 0.06822190839187606 -0.9872956435139835
Ni 7.398676036374938 3.5714841288711914 1.0753133160435926 1.836131982476083 -1.3257415225982716 1.112055339091588
Ni 8.263425404869112 7.973314910348474 0.252862307203907 -2.1924714540113404 -0.4548577169178295 -0.6759224522767714
Ni 8.160329837676818 5.803767253608143 0.8388202094618634 -0.8331605800980555 0.3880995375556735 -0.5356602901881936
Ni 8.385715942529641 1.557128652720079 8.20365830864969 -0.958252205093782 0.004383988000308579 0.33490392736930064
Ni 6.935820189346181 8.099067297521602 2.2521432581603174 2.1735100824174887 1.4080106531118333 -1.4012337393993157
Ni 5.973932636967304 4.9882812233000395 4.734968594208315 -0.471034326677692 -0.5639560518090933 1.370075825739273
Ni 7.842665272645326 8.26254352450547 7.3374885498676905 -0.059912617195232304 -0.7452764173905616 2.2628731436633545
Ni 1.7983041687645136 -0.051890215865008325 10.59827496858017 -0.4739838962243192 -0.006207671472608664 -0.6374921733250312
Ni 1.6460296987401146 6.81927125575533 3.1893850688871654 -1.5041503709598998 0.1320796262777854 -0.7708848619872853
Ni 7.7413616112983075 5.936959333636262 8.380692977139272 1.281794170483044 -0.7257010663617953 1.1164601530275031
Ni 7.173843452175891 9.448409925837737 12.059659558926581 -0.06117322907521077 -0.39099717081844276 1.7233726537934642
Ni 8.637586603409748 7.624503081409581 11.55180248274583 0.654943278921943 -1.7190935668021359 0.09687016825618801
Ni 1.25124751041982 2.0184552816714536 7.9510342967780865 1.314559537839523 0.2827709541194872 0.3566839993588696
Ni 3.198448735050099 9.299437816324003 0.58290884780919 0.9607148077016615 -1.0324920375449638 0.6288679219911298
Ni 5.6076426897574825 2.3329582117822247 3.87326171296871 1.2370178947086181 1.1709238312930221 0.36284821918805255
Ni 0.15439473557954111 1.99849101131153 11.952900435542771 0.7231484751432707 -0.11298918530523767 -1.8767986069575098
Ni 7.428528624854861 0.5511508348414373 3.6316218024774627 -1.162021900817702 1.501239367960692 0.4697580310684297
Ni 3.618045535730355 3.9487694355085643 4.03673043458778 1.6000023823642187 -0.18242054062418261 -0.8958240205655476
Ni 4.137416779680248 8.443075692990435 9.800266118372399 0.04996810438801072 -0.16278425445049383 -0.17390684672621662
Ni 3.7812403115343365 4.943915135643988 6.567985075158786 -2.0640523073042774 1.8073009171770038 -0.4869736236157678
Ni 7.177070759038586 2.834776283813219 6.072856159503085 -1.6398848203814533 1.1532660090019429 -0.3998494790027501
P 5.672789256195129 4.430013426289881 7.115443270520117 2.650556419617216 -1.251323512698013 0.1049747996411934
P 4.132979232744043 6.17820052162267 10.688955724227688 0.20039820814852585 0.8452679048845506 1.3712554478696708
P 7.901347843651586 1.8099093390818188 13.21290576851005 -1.2695487774567877 1.087583322092153 1.2458126101821125
P 7.8375991514073755 2.76103607468305 3.5164594850328506 -0.43626966950299706 -0.5749722004139388 -0.42591172330744065
P 6.479606590162738 0.057806319666215016 10.02684276171614 -1.593979058988274 1.3526905403832896 -0.6722064368777648
P 1.9220770159724425 2.893196167051586 10.275183086629875 -0.22640774483841009 0.5736866488332959 -0.031505783917765096
P 9.222010596737325 7.517532869640855 9.328219952149759 -0.5809163338125156 -1.5093473417798071 0.4536724383604767
P 5.616714799455813 9.32379272509015 1.2417888744344465 -1.4898169850563634 0.016676689324732572 -0.05490642222989254
Ni 1.4414428360808784 0.9987576569439623 2.086230602129236 0.47746516990470034 0.779072025783768 -0.22348105810991833
Ni 0.3718823821541586 4.544892416213408 1.7297445376854486 0.008183564252056874 -0.15823725850975973 1.3819664065292716
Ni 2.591442975389657 5.1041828191771526 1.7736152712649014 1.3483929414492004 -0.8163962161555229 -0.489871256878537
Ni 5.359627910041815 1.5043377930794348 11.61212309961903 0.8298518274397967 -0.2080333560962804 -0.18432392829448255
Ni 6.5584316839428505 6.0946658114324626 2.7562936223019685 0.20069517056365435 -2.812629764043614 0.3351900911511517
Ni 5.776635359867119 6.666931113788959 7.2542371671985695 0.2645220352116283 0.9946320292743968 -1.8228249809545316
Ni 0.7536108647513341 5.31944606326007 10.948733286921398 -0.051950167815046015 0.4095286539637269 -0.07195694995427607
Ni 3.5256263499617426 5.375998987005192 13.023704903684587 0.017029187568144866 0.4469549171309851 -0.4538087068280249
Ni 9.336917731778842 2.0656640262443555 5.87659837542728 0.32351085504101057 -1.3128957769838552 -1.5169279823405424
Ni 1.2627401002651708 8.361182781349564 5.569351256733973 0.6886028759579172 -0.10320973732097063 -0.170710451276106
Ni 1.5695312680470614 4.889172881156133 4.249534733529092 -2.162822520796656 -2.4027897494870554 0.7724262383324761
Ni 1.2067031703498399 7.552601686654668 0.4802307665337273 0.23166847901671714 -0.9693822535686724 0.08136050265636309
Ni 7.197213281812438 2.031439562770201 10.367716729211642 2.5482967049143403 0.6115145183143469 1.1942856459474143
Ni 2.665323910109769 8.719348171166672 3.4457308035274634 1.358887413222621 1.8567090352964863 0.0744383216152331
Ni 0.7758126719913525 8.985873056812853 8.255822470329788 1.206371887687987 0.35871105709122736 -1.0787317852387937
Ni 2.5205454231763382 6.4421266747079 9.145843340265937 -0.2279465500804397 0.4336173194818145 -0.12702920833807155
Ni 4.92030138165154 5.423695580289897 8.911343846208403 -0.7824728239352009 -0.6780366704062968 0.2930941904223662
Ni 2.3384465097900042 2.3745566961693965 5.509237037392692 0.7104819354191957 -2.69061420687005 -1.6082193709573722
Ni 4.258628421151213 6.5790714371345 3.2115061934556164 -0.7941253205724645 -1.100744542064459 0.42467476557654604
Ni 8.20153429041215 1.1815977251039962 1.6738042393418788 -1.5423497648477564 1.920767299228976 0.1736926738328815
Ni 4.109449914105562 1.4457302757211439 2.3935734142237033 -1.1437835234328044 -1.4862565213986145 1.0321544516998868
Ni 3.3838875357710814 1.4506650530751475 9.619386826765572 0.5083757434406277 -0.4605647946049359 2.3325145581105766
Ni 1.8549884363935827 3.5667745124610963 12.513224702507296 0.5933306483164684 0.22251843708633293 -0.7115617987469359
Ni 5.685923644589815 4.386820051883355 13.709723391245067 0.2397743959533032 1.8527806467763577 -0.2548621435243611
P 7.163054490280256 0.7944119041288283 6.620355634370799 -0.5187691708598098 -0.21152979928531312 -0.23463373229262816
P 1.8548664742156318 8.942614010464352 12.658321229273998 -0.02690608036222463 0.7324481552776418 -0.19147159508285735
P 1.6315912532119559 3.9393502026883747 6.4476318597864735 -1.4697947762981656 2.0640507646423805 2.109617911749218
P 3.1627231986165514 7.1622289001525905 1.3639649552818214 1.1947749268790069 0.5890302211689017 0.5181011982585078
P 8.756574780559612 6.470572007288394 3.088928575591604 0.5430794654704002 -0.7167063190623528 -0.28073823996017455
P 3.0478817355170094 0.6748551955955939 7.826932151689691 -0.5893662643520817 -2.019814677642141 -2.264024997879611
P 8.587432003154039 3.9601682082939527 9.992171729036565 -1.2321849920963488 0.31062422888632957 -0.2232835973871316
P 2.6798561726978902 6.295481228281225 5.295457979198375 -0.19235502612907518 2.7206413493597594 -0.26800819398801584
Ni 6.0041042034510985 3.180726692423268 9.040965248934366 -0.831596063824413 1.4122876832206321 -1.9931644220444638
Ni 8.944415298015624 3.866144750799989 7.365307184487636 -1.4613453599792317 0.3456727358500305 -1.0237793402623143
Ni 4.560128306751245 8.045263213633367 12.27608894906483 0.2910938721628858 -0.10547230810290223 -0.188115791236747
Ni 5.1132174020514976 8.994091431265527 6.166200381482923 1.0419742660037863 -0.6748824410480313 -0.3036814790199093
Ni 8.379964956753968 4.555540652519101 4.549956661110159 0.8778417250555138 -0.7184148171130272 -1.4686645193484642
Ni 5.245555746833962 0.9515207672530716 8.093590257561017 0.9393124307664856 0.3191322663573407 0.4086763332657607
Ni 8.311591083453626 8.851320629415286 5.251916543499388 0.7211525277591645 -1.1054602023725737 -0.279175523458745
Ni 6.378875212881487 5.238078527154986 10.798872729849823 0.4255540828577058 -0.39065547120830785 0.7986805440433149
Ni 2.9726310717214512 2.318060062660251 0.5695868252945793 -1.323219013286734 0.6767326068828926 1.0635370797762265
Ni 3.3865425585680073 3.359176122177078 8.287967009584584 -0.03732933257807765 0.4024156970680295 -0.3778488063619428
Ni 1.0602922665730692 6.518653250518943 7.086539172516409 -0.3743287090238263 -0.7702420861969638 0.1306729757382459
Ni 8.181504348110252 6.160834983823694 6.016284472345971 -0.5347658033983823 1.3508460309753831 0.28237988932865565
Ni 0.09254771514076073 0.36450085587634473 0.1313982978416441 2.568210927339764 -0.46153358627610835 -2.373740911750215
Ni 3.3151665393488816 1.2673746630272957 12.206802235771057 -2.379037898483096 -0.7689130829728951 -0.4497607620108964
Ni 8.362458693365049 4.344405359074513 12.319520618803658 -0.23534695630956887 -0.3022596589717182 0.46589623412017833
Ni 5.190466369224247 8.700960027414112 3.511956266154672 0.623787679254745 -0.42987507883056286 0.16186611351159866
Ni 3.3852666465525236 7.567612416248596 7.085646972276171 -0.5870309313506858 0.1781021157544868 0.09078179597026301
Ni 1.1030353190917779 4.582700691378113 8.691702159937057 1.308690480653256 -0.531144147485395 1.2368188913239344
Ni 0.5480398611330958 2.596030629621801 0.5586721485385946 -0.2688975385715046 0.7622400418280937 -0.02731437154423683
Ni 6.385038993720994 7.435940172591863 9.700029156997147 0.23918689888094935 -0.9476227504043938 -0.010265643592066193
Ni 4.558251965552004 2.8074379925402786 6.086148160558508 1.1499202324581614 -1.7821293030073824 -0.22041604603134943
Ni 8.70596047671009 9.51633347725026 10.299926398024265 0.6953548499697703 0.29273989240674103 -1.6730890750475635
Ni 2.3197487697395682 7.091490836941207 11.477503123938288 -0.4366350232622158 0.13079870268283278 0.8485602024825772
Ni 4.218643590195389 3.3664281809121444 10.621577249933544 -0.2759626729484021 1.5607213253764087 1.2587411453183224
P 2.1694632213863647 3.042956339869002 2.5983310239320705 -0.2928705044473343 0.186102360351144 -0.48113953343249394
P 4.271537648601991 3.126068873289379 12.925033749040104 -0.23139079987529826 0.4161654425539542 -2.0629287352227954
P 5.162171143939694 4.3710118772797495 2.2227588168096046 0.1482390096464673 0.18600928641670547 0.7490500255003809
P 1.1911858286321173 5.569609253648869 13.121154560208366 -0.517366119864696 -0.1843169863159471 -0.00663138927358858
P 6.845558795956696 6.637988550790666 12.538750448181771 0.45925276066173165 -0.3040424619037538 -0.20577592752067142
P 0.8439473117887893 0.6122426279475233 4.061459673423176 -0.5113620797624613 -0.3639597070846764 2.0546754940750676
P 6.312743567314241 7.181395725502837 5.083559953056295 -0.06757090507143847 0.4607329447516839 -0.25722627288116345
P 4.216101147870417 0.7294595390053042 4.606515213878879 -1.7433256998766236 2.360182199229174 0.6116772691444562
