# total energy = -340866.3393965662 ev
CRYSTAL
PRIMVEC
9.29524336782814 0.00000000000000 0.00000000000000
0.00000000000000 9.29524336782814 0.00000000000000
0.00000000000000 0.00000000000000 13.60452824641074
PRIMCOORD
 96 1
Ni 2.6076503471840797 0.8044363734646618 9.069799162883127 -0.3485071199750321 -0.3376683774883152 -0.46172024836561776
Ni 7.587799979003893 1.5827010601670846 5.787801229908377 1.2783517204603985 1.463562936455841 -1.4031556390123772
Ni 0.9717712006528916 6.006335186182801 13.266754840529991 -0.07316588266071271 0.7221002363844145 0.044437404377768636
Ni 6.452125754953302 8.33581608527526 7.149233673250729 1.5096756716535031 0.5841081012769359 0.3512247760165112
Ni 4.04851529131728 3.355787291617086 2.996383924601884 0.60221920905535 1.748159116709525 -1.3100886465523631
Ni 4.776370015081438 6.070983602659351 0.44426150126361497 2.1212719510483793 -1.0740608621256855 0.9209791796749365
Ni 3.1459378810671823 0.702160812502552 6.391774529409478 -1.2708515554286113 0.04310685849180318 0.41621635039654764
Ni 7.046324176702177 5.1193551940272615 10.572691264909643 -1.3374868360596577 -1.0373761051101424 -1.1191441276175695
Ni 6.431862124770861 3.033865133769158 3.6067235361726895 0.7203089488119465 0.052829742206521924 -0.22014042377245957
Ni 5.573520776923624 4.326331520167187 8.129032245933692 0.30099647598857837 -1.2403202196089735 0.15732528821845163
Ni 1.7267773298128812 4.642750894038966 2.591635572669709 0.0033159517471104184 -0.4174116562562295 0.5743394519259464
Ni 8.303041057741643 8.279105806494034 2.03684247543112 -0.8260797619918742 1.598354048127518 -0.21159099154055172
Ni 1.9028850075360597 3.9528207625428617 5.3950799931565045 0.9292823002239932 -0.11980723666833559 -0.029789829667922894
Ni 1.578481019752943 4.426933937352765 11.73666671594027 0.9196797441372225 0.08683052463199885 1.391190496230701
Ni 6.45365947008179 7.644510257785119 11.319484117175502 0.6597360723248961 -0.4575563467959152 0.6712957521380375
Ni 2.435744119388637 6.675620582525143 11.332014105013085 0.04946725349219223 -0.54073179117383 0.08559408112173646
Ni 5.716044740954528 3.521400639764128 0.9965904295291007 -0.48912280874828656 0.14404425483882935 0.0338071783574321
Ni 7.5786348692057794 8.852585131143522 13.346830572150484 -0.6267835286582754 -2.1204849363707097 1.7382788814813352
Ni 0.28116251640297163 2.0904072439124666 9.154963110632918 0.3351291560062293 1.1755839557728527 -0.3182287807064648
Ni 4.985373558499874 5.81644266278964 11.79781919144819 -0.5109453039400168 -1.1936631818720669 -1.0094832353546164
Ni 7.120593169893785 2.036587785767359 10.448454762356233 1.324204774238771 0.987706505799157 -2.5946544662432736
Ni 4.8937317557619435 9.059088254140363 0.30829904940967734 -0.5059385947540447 -0.08366755352298492 -0.13619107734299768
Ni 0.3838275480552852 5.750316302643822 6.160321114607268 2.671995306217282 -0.38168309250636845 -0.1257508558462802
Ni 1.5649657361358473 8.375711269102341 5.299766569353408 0.4942614155264327 -1.1791948130525627 1.7017692165910756
P 7.750429554082787 3.530444911400603 8.901170437841046 0.6314421104762094 -0.24556040650746094 -0.039875753149015196
P 4.610226838071828 1.5419600092085346 9.908164103562894 -0.43287709888168024 -0.3794680871329207 -0.8606140483233179
P 2.4692534711352883 8.032967766479796 7.5944962722073015 0.6465270298337897 0.7655531653617268 -0.0779260230535174
P 0.9751081929627523 3.4585555004689525 0.9041232091947488 1.520374031907614 0.08092572911178966 0.8810226938866568
P 3.71371922163326 5.564076809829422 2.3234083167079693 0.5917651036015615 0.0937323939581547 0.004762711495965991
P 7.88706962916622 4.903240789558566 4.858217420056415 -1.7493091711535678 -0.38097423936480196 -0.37035404064679445
P 6.382095392662242 7.680427077521335 1.2858193579835964 -0.401500898563244 -1.0364901029607634 0.17780669600125507
P 8.727517633847768 7.729478075903327 7.730147333413941 -0.09697944014054265 -0.09160197787871321 -0.1804924703635343
Ni 4.3040043459936905 5.531032220242919 4.6283832366201585 0.09951454785757054 0.9950053534534155 -2.932570698076337
Ni 4.336974573634571 7.780378827682707 6.306841103691122 -0.34793067864627175 0.3300905651410573 -0.14136259424160819
Ni 1.3361912104247278 4.9843231960179395 8.205544181310172 0.6925842292031685 -0.7897554736395431 -0.2224857840761846
Ni 4.2230334824527525 7.880628025626573 10.395355685559354 0.36523111759793225 0.7834539569015475 -0.5229248448993962
Ni 4.933413148995358 3.717409433184833 10.550828852896295 0.7959500324860292 -1.17078781993579 -0.9349610957763252
Ni 7.876138423159546 2.3436375544905594 0.9276643421305516 -0.8727681671873486 0.4679022088066135 -0.6442449186678324
Ni 8.922968712676296 4.049695787204055 13.163401031356338 -1.8486080034559065 0.5680554186894475 -1.1631938096386163
Ni 0.21385008322445537 2.51135162760147 11.606254453802817 -2.2541617319322858 -1.0466490457716362 -0.16996894512439115
Ni 0.9057368634147817 9.157013641283491 3.3034513542871697 -1.033544132958562 0.5299012762172294 -0.6156591366103398
Ni 4.933757072993867 8.393846288591305 2.935571654995194 -0.33966689597558275 -0.3192050285768051 0.26350362124944293
Ni 7.931612434594778 6.807213340549372 5.902501742459876 -2.3934903264630005 2.0148455065623234 -0.8108719439031842
Ni 0.634933895561503 6.642603878668249 1.8369919579946346 1.7600291286742333 0.7141246743781056 -0.2187062624290943
Ni 7.419955772488141 1.4744300673390691 7.937698030319753 -2.361569566495004 1.0947916669151339 2.2917144933750793
Ni 0.5606518890294114 1.5208691023810306 1.5426989810431693 1.6721611639166558 -1.7276473699094181 0.42986633707981453
Ni 7.139815732837494 5.763227395452725 13.54577015575308 -0.8374139560577706 0.4196276900709418 0.2009471386734604
Ni 2.7248540687301346 0.2346147270155357 1.818721227954907 0.42378593521368957 -0.05471538926500899 -0.23113548933138256
Ni 3.549797607749155 6.083550771469745 8.611502773907372 0.5519878237036235 0.14895737586973057 1.0486329089708846
Ni 8.476257914828702 7.081673986603013 9.831298948944703 -1.3457213081543082 -2.681729245675595 1.279580450661177
Ni 2.32284409544555 2.439443626183413 10.942380748053235 3.2990649986574088 -0.07966923099686925 -0.45377348271471535
Ni 5.576932131179109 1.1564490926091942 11.785956602072577 -1.4974536756660144 -0.8587571976202372 2.074817002019949
Ni 9.067491153995833 3.4402717570887407 3.9624004401878268 0.24597358278547962 -0.9003908140006236 -1.3975814873587091
Ni 2.6511056091578924 6.1851384844348365 6.456518686891019 -0.8719410433003629 -0.2578068279749818 -1.2641841707107646
Ni 2.7013185129402535 0.10336868156277723 12.638606472506645 -0.46169068067926294 -1.3073424512657936 -1.016411072822701
Ni 5.9077033605562495 0.7301264812029614 4.669917171823921 -1.2655725664178592 -0.8179062250421462 -0.6177314457583362
P 3.0155999808753524 4.501379540165229 10.180731308576094 -1.3269676816958889 2.0559978124309173 -0.43949666108072694
P 1.1258212662554588 6.200373388044479 4.096350471888325 0.1950343727334512 0.3450353593763477 0.8273802259708526
P 5.974898673670409 7.851348009537266 4.869115163187559 0.9042502969560298 -0.7513976997969511 0.43360574951758873
P 8.460446706140475 5.796597318551332 11.890330099425595 1.9905380401652106 1.895792631561509 0.3802759277461967
P 5.624886290863152 2.0615733994969014 6.652097110551426 -0.04259752295555245 -0.7786876458611558 0.4834018471041094
P 3.1207012957711604 0.5118983384299144 4.230423200799102 -0.3204741250972158 -1.0931366478102142 -0.9321092281498269
P 8.159689817065676 1.033974968167064 2.9058594100969497 0.6311124950509325 1.2978424821951584 1.8104001249276174
P 0.6773239226642572 8.56163472364784 0.6722905484698573 1.385812262637923 0.08368169459037202 -0.2582264320109037
Ni 0.8268453457783448 1.6711545944864008 5.156075122776214 -0.504353509655112 -1.0574031989643466 1.5027946282629538
Ni 2.0909370727750347 2.261597737981282 3.4379182015097527 0.2282337423035553 -0.14057120868856435 -1.023091055946038
Ni 5.92840386716923 5.913317687450834 6.426669801917691 -0.9724974021588864 0.259870652482546 -0.45618260637684016
Ni 0.17581022994068385 4.837337515249619 10.124462553847009 -1.5500191084675563 -0.6223661163168701 -0.8113388562372736
Ni 4.702965479507706 0.38456094274399827 8.02054932156065 0.6722899977305067 0.6519327742303933 -0.2659474548042452
Ni 8.404340618167442 4.751691144377594 1.7023754573564849 -0.1708436344198606 -0.6070246008637932 0.9694904970117626
Ni 2.7736540955456466 2.037461538628437 0.16786930367239972 0.8143017955203394 0.9647560676505708 0.21193654780542856
Ni 0.5276584232805239 8.130707248758863 12.126899616086712 -0.5664682767079857 0.3469541736656154 -1.1108422926200934
Ni 2.941730683141472 4.4017717140023676 0.2724045382571477 0.466517669754261 0.7543632101831783 0.3602074391310958
Ni 8.399544272674717 8.821418180684017 5.056721056752792 0.10585900201835963 0.9013979151088992 -1.2940354497442423
Ni 6.025343958532843 5.711806110053981 2.4920091560204414 0.1443576723141901 -0.06401944027475426 0.3388402863092293
Ni 6.313310592960377 0.7766054857906954 1.8636981212410435 2.3519071037045753 -0.6333056460475094 0.424208881683721
Ni 1.2399947385173502 7.890322964287255 9.394620507086056 1.7747211834687693 -0.019881569415275434 -0.10218849514530788
Ni 6.77920677277887 3.3439823327493334 12.312520045703792 -0.036609937913549856 0.4103339234738417 0.9789567846309851
Ni 2.7172226740605083 7.459237470263828 3.2514825790637714 0.09229283329815073 -0.6626262493884975 0.7461577915542504
Ni 2.957309510749624 7.240511102455102 0.8842713582861985 -2.7307843513310326 0.6978233661149207 0.4885257985942361
Ni -0.009202290770925083 0.5805901856997491 7.262723015612882 2.218615973617192 -1.154983763023998 -1.5748212551129008
Ni 7.837972154568213 5.464199421613675 7.962104550397751 0.6697680026396013 0.06892150556206193 0.22992501396304918
Ni 4.228052913782348 2.3806140319519127 5.036627529520966 -0.42919862158882854 0.9603347986544236 0.4717804608150971
Ni 8.595395046960972 -0.12660864861880441 9.411136295209065 -0.3153419460769731 2.7672587921079828 1.0112621816319098
Ni 6.242648154131516 9.257049048633688 9.717551198821505 -0.039295198055196844 -0.49711559714577613 -0.447646543881371
Ni 3.4186324309122624 3.282187555936091 8.429869074100036 -0.8184482135885452 -0.919486397179494 -0.6062807807192332
Ni 8.812076461265047 3.64630082268223 6.36736800933148 0.13256607899590073 -1.2570635005055835 1.4080507623211493
Ni 8.342155441139676 6.469470678770016 3.3278309181598797 -1.2918746946474977 -0.8757357344561048 2.637296469283516
P 7.930097309952696 0.9787147473254987 12.094506623048735 0.3763187428706616 2.6344749406743206 -1.358043577165087
P 4.507374972031135 1.5706079487600406 1.813565156550228 -2.3771291114961572 1.544548058050656 -0.42674938871738766
P 1.2012614600906384 0.6838677738791374 10.782989635706251 -0.5346580741759244 -2.179800800522207 0.20652463276123786
P 1.5782114577000574 2.3296203277405034 7.155560015774658 -0.22176021876406968 0.3282373139824024 0.4927231245050353
P 4.106889418631835 4.591022865614524 6.376890985992907 -0.22737370829610518 -1.596323905071367 2.200362426723643
P 6.004457547055804 6.258533724765367 9.033174975139167 -0.9280931650118983 1.7834171685808704 -0.004193469256057294
P 3.994240366255227 7.525298763707226 12.68039974499577 -0.16384637716642103 0.7715335513148778 -2.453759555666703
P 4.572962208071183 3.295331029825069 12.590133638251878 -0.4010679247908835 0.1031508590585772 2.038699944582418
