# total energy = -381163.34820451436 ev
CRYSTAL
PRIMVEC
9.31429509606518 0.00000000000000 0.00000000000000
0.00000000000000 9.31429509606518 0.00000000000000
0.00000000000000 0.00000000000000 13.63241237647101
PRIMCOORD
 96 1
Ni 7.709777426824345 0.8398737211957942 5.59715463641423 1.2180133285816572 1.0633553027827236 0.13281958976760352
Ni 8.645016490547567 5.084357047260114 4.0772907963335365 -0.8778316977531849 -0.9605330307081588 -0.3221630827638645
Ni 1.1910934377475952 6.789161806518002 6.486615802236001 -1.3734072041053507 0.5527010477205642 2.422259171065577
Ni 0.48104608834914764 7.869731817778532 8.747606000408839 -0.7207984868538554 0.11635553067430929 -0.9539309520106087
Ni 2.612212709013189 8.002413952474996 4.479556576134934 -0.22396571105582075 2.6256249464828585 2.2051619049948155
Ni 2.036253952881874 4.601783414503088 7.9509003116078665 0.798980848892553 0.12487925187460427 -0.7255046340802731
Ni 2.5764923870362892 7.6461328479278245 12.515086573657303 1.5165952815914718 -0.7826036930861102 -0.4133421141725462
Ni 8.74381321941562 7.823747142524306 4.8210344713684465 0.001151082885307695 0.21609350739659555 0.11347126714797878
Ni 3.6938166070375877 0.35823710653286933 8.74551959829076 -0.5379190043153833 0.3580068319353512 0.09760473242936739
Ni 6.495156079477362 6.588280402586892 13.553167564640903 -1.992698538151639 1.5738666045091152 -1.2437071338033354
Ni 2.7672025806417726 2.8536206112289113 9.617094523097606 0.821972938912352 -0.6339355663220244 -0.824532214999096
Ni 8.114856123767078 3.8060445495407604 11.538269427724773 -1.203400720874805 0.20000868601959101 1.5261253325690942
Ni 2.9699841007875594 7.045910352878693 8.292774064386101 0.004165444231599278 0.06926423361346136 -0.35623559896754137
Ni 8.940791933670504 1.5861872102681032 11.660211248660726 1.7601872515186523 0.21990259673004064 -0.5300033490127324
Ni 7.443537613685437 8.752186770773438 12.600929912232452 -0.6868889785906042 0.5822453370365843 1.8192148950057703
Ni 4.047890223629473 9.105235814896623 3.1401581364022553 1.157612716006413 0.53266598344656 -0.33060247178046936
Ni 5.3476721717156455 2.2856628346486154 8.763132930457205 -1.8106757471865076 0.5280583094712196 -2.3488804010631097
Ni 4.276304684083064 3.875454677147504 6.1322133910246155 0.36882731958962284 -2.2831938574985777 1.0793354802610635
Ni 1.2939232564242518 1.1460681348958783 9.585985708659365 -0.4042725477711102 -1.5629003353055986 0.4181796447705056
Ni 8.64397328948853 8.666569769570918 10.821967529119679 3.065903737145249 -1.1788163466672215 0.7514048988858028
Ni 4.42877969601575 2.9379336111076335 2.8639380559887067 0.706837396688073 -1.6998308619177822 -0.36389388684374746
Ni 4.3652189457757595 4.8017240746220295 8.372223139327057 -0.5399095523828508 0.46615077333314564 -1.5376127643834037
Ni 1.5917571587797552 2.4717345092594454 6.850600760318269 -0.904268808898791 -0.941400937864398 1.5315480462465625
Ni 2.5454850984154023 1.8440255291636827 2.2764081509677165 2.0056977786247847 0.5343510844584668 -0.2781429684291726
P 5.022528755921741 7.7513191832824875 8.243588065881951 -0.16302310993417732 0.7880492895817137 -0.007092130960091012
Ni 5.002158392384979 8.790608238349634 12.564340566516194 0.9453866619850234 0.1863201327889049 -1.2903433456046358
P 3.641228096507841 1.9724789738529733 6.899731804480917 1.6155549853868367 -1.925610229143574 0.573551151696696
Ni 2.4848024653829373 1.6088861475973615 4.745838303602108 2.5970263089095593 0.10299453598637101 0.08407018827804232
P 0.8015407394237128 5.498936325276235 2.3986908751068903 1.1991208625525285 -0.3535387688616686 -0.5946871623443629
P 9.15935186983425 2.106520995644256 8.421682046679688 0.0759969243516046 0.5137999997799926 -0.6415403752524759
P 0.11052715220513352 3.5243988921906944 13.436242423083506 -0.25262554088435846 0.02248275448354838 -0.8709725087395064
Ni 3.0380902270705037 6.742124615909567 2.707451377126306 0.9010454168654869 -1.1633758437424353 -1.2593260712875152
Ni 6.681656211666011 6.820169095138889 3.7066666086541016 -0.5229227880168671 -0.6537934815882159 -0.18383721846605114
Ni 6.355013194349738 8.310819579848435 5.520826781784738 -0.9811100835285621 -1.1886191916902562 0.588832760446115
Ni 5.593616135679152 0.6462947246779548 1.2358216145833898 1.35477853326057 -1.6390247863740028 0.8337588758036867
Ni 2.7378066650852935 3.278436299636848 12.234844580589352 -0.8240496189357227 -0.14816856141984805 -1.4062450765709782
Ni 5.853438399445939 0.4761225519222926 7.284984092724816 0.47781638259653186 -0.6530432336857528 0.9196563470984549
Ni 8.393269720693159 6.095125730516761 11.142533900267054 -0.552938617652667 0.5883488788311609 -0.6754753374370238
Ni 6.9824520598855715 9.265171577260471 3.444583765449559 -0.14602400427301948 0.6662885287314332 -0.8732844447021347
Ni 1.339488788395828 6.266816133385132 4.392949465355844 -1.3026414462456986 -2.898642677870324 -0.9065424354243162
Ni 6.555726940967787 7.903673109377964 10.314187550773635 -0.20970123071700658 -2.487503741996684 0.578457587859378
Ni 7.208128117559186 2.2283985479435358 2.0812606271432514 -1.1672373835803702 0.37479047915159325 2.916965644549228
Ni 2.6620441881726196 4.19317459969093 0.8162107543164422 -0.04893400669654153 -0.22881661139021886 0.5413331722032548
Ni 7.7346186520427 0.09828444263370265 9.094727427085845 -0.10032701645653688 2.138972967872568 -3.3839463699828363
Ni 6.411597537507409 2.6909185031995793 6.671512012796379 -0.316317679726681 1.0399271536667702 -0.24554395144722874
Ni 3.963120823287421 1.4421602640545943 13.56688193284919 -0.8757982122629239 0.2348895570571761 -0.7169739709014427
Ni 7.108530359306515 7.025744903835671 8.02233350412553 -0.5839389226889233 0.033057701785917264 0.8509114763235731
Ni 1.6860643973758738 1.9797068669048832 0.07366955478797803 -2.174355975357552 -1.269723612471755 0.3768512183353639
Ni 7.447440303361661 2.780428879783154 9.495752542770601 1.2970976336093338 -0.9941823433314878 -0.05786730463042938
Ni 3.9645272818580892 5.621922278700743 12.894612433230693 -0.7858239997956209 1.8314744290994134 -0.13027651163077564
Ni 8.641039286509983 3.5072326461924086 6.419189619500465 0.3005434476115598 -0.9069155024930189 0.043003500144719486
Ni 7.185019351242448 4.415581339759879 0.08525467512040785 0.45590929811079545 -1.1245434442562698 1.0485670887299556
Ni 4.927746488271953 2.6079747047108452 10.895365106488695 -2.0015572740938494 -1.328195897676035 0.7613339850740566
Ni 0.503015716366596 1.4019318232154208 2.51074929743797 -1.5570773008659184 -2.637936159750044 0.4956305279598173
Ni 4.898816287473974 3.6257011664594727 12.78575812843809 1.5552487322976118 0.7023474792375194 1.1643878299467172
Ni 9.112510279424384 4.9069104099766925 8.363989302396789 -1.2707119445269535 0.5422615975547951 0.5800804681747816
P 6.965742214350615 3.169030588570181 4.61055002911708 0.7892047433423957 -0.42892865575689354 -0.12752286014503844
Ni 3.8358130369040393 8.978961915277111 6.468565629626084 0.18651810773232394 -0.3350396816162165 -0.9907900298204873
P 6.909437300048043 4.654651353887934 8.140254343836599 0.3219103433231101 -0.061602089082513266 -2.054103937842314
Ni 4.263134270712702 7.983822619315702 0.8133354313974673 -0.5895323576163009 -1.143079298276928 0.9102522801757356
P 4.604251702723135 6.837773113010163 4.4335737637397425 -0.30599881429917625 1.8680565990988216 -1.7202677896158953
P 8.341426353777011 8.32078587568032 6.845775023990699 0.44108380306218875 0.1663819991040812 0.8689089413422584
P 7.1620782422387705 8.207477474937429 1.5898123339482622 -0.8932200072837971 1.3586231038176408 -1.0360424739003835
Ni 0.9566805712045329 9.09412386075883 12.49878189996224 -0.9601609920807206 0.8665985480415268 0.4807890920716107
Ni 9.270266496718454 3.459468940560715 2.0959967735316876 -0.13538375095035393 2.1238841918602454 -0.8952789466953549
Ni 2.2551771465572483 8.985500550486442 1.5974463302695836 0.2499906743646727 -0.3066989256899944 -0.9452977018156429
Ni 8.209610448531357 1.58133446248454 0.3714792399760398 1.3767758634672678 0.08282140347260576 -2.044343773131757
Ni 1.7720725989755335 6.414419768943915 0.6257976867268814 -0.25414454863204616 0.5711258300846551 1.0011096665789403
Ni 7.9418896624604205 5.713956829275385 6.239051150912918 -0.43330441622708604 1.142615214156316 0.09425432789989574
Ni 8.626182985713854 6.832072764366131 13.415302956111857 2.792411123003894 0.2281229277573039 -1.286632472411952
Ni 4.341709664766712 4.709298323650248 4.081503652038922 2.467904222598201 1.7865140623386395 -0.5363264630172828
Ni 3.3824956052759427 4.757425286793572 10.588840035310076 0.7438792799327189 1.627605488793468 0.4060792619625458
Ni 3.1084690413749256 0.39391271989295346 11.370672657583613 -0.38331342902093984 1.1678696178477306 -0.6573950828965452
Ni 2.393047343663395 4.1440510069644185 3.361602709780145 -2.2811544584710455 -0.42840903580799766 -0.10692472427871264
Ni 3.102507892466134 5.738416168391771 5.687442756644499 -1.4984348086323613 0.6397300615166144 1.2435901486094971
Ni 9.2734799285521 9.00783623030407 1.1093651547785446 -1.325368198419253 -0.9340663518761977 -1.6654847803377446
Ni 8.186976711268288 6.4718144557813755 1.949107544412442 -0.5608313901371825 -2.5398349473002324 0.5563407013556806
Ni 0.4269551820084823 2.672122255546545 4.406717856476119 -0.7956764671096683 0.558013203962097 0.6334853661584832
Ni 5.109971358977578 5.703142932583029 1.391664675649544 -1.0103738654896857 -0.931545642336873 1.3922729306616022
Ni 1.4223301296376922 5.900866790451513 9.798705581751529 -0.06585237971843498 0.4299887215902917 0.4489536927285688
Ni 5.1689867331746155 1.2520182424544803 4.757303269526844 0.3300046902954704 0.6640257008391854 0.518009666985966
Ni 0.634628569977546 3.732815560914323 10.38172271076266 1.2576612819905824 -0.654267335900841 -0.9789498426524494
Ni 1.1668017559442692 5.567005194378499 12.144571363231355 0.434756061071948 -1.167912298160208 0.5476184909913343
Ni 6.806011366480508 1.746430344372559 11.989761257499552 -1.6265888746034953 0.010124747138827724 0.46918467506346295
Ni 5.2114319762642465 6.094194300999763 6.244039887405963 2.424641555254824 0.38047004603487383 2.471432033245802
Ni 5.605156547394766 0.5606134548387615 10.238350559499601 -0.2552028146932315 0.006395876224014791 0.4413074890372206
Ni 5.845130048154311 4.331193825519796 9.889456622451746 0.7355314221886559 2.494430293913188 2.926977263148959
Ni 1.5591757542751408 9.246440529673627 6.933540833088935 -0.8375761926672478 0.18558582572604165 -0.4574164787839413
P 1.6851609107443848 7.954762018385342 10.509594943433344 0.5816236442921854 0.9046177075977775 0.6951051958528093
Ni 4.2067455277536006 7.702679933904815 10.505287081917224 -1.2674620701310881 -0.07763703105818888 -0.7591981696779764
P 1.3979639334730063 4.273910910224377 5.777089121937555 -0.5900833450237645 1.348800204189948 -1.1277475530158643
Ni 6.48940915935748 4.36455763081869 2.852010169594021 0.5644355625486732 0.38372814796085525 0.2361771655203481
P 5.373370312089641 2.8115013684702306 0.9882299518043128 1.0009098918633086 0.4840461655563276 0.2923372576516836
P 5.498135295891616 6.252239261444101 11.448854056951934 0.5662942130239667 -0.7423785270174763 0.2467217738054138
P 0.8740646359057824 0.3402176710970125 4.640896002780898 -1.3280058931524161 -0.7101662039509898 -0.29569383282874234
Ni 0.6097938647658098 7.693114152765238 2.827580636222179 1.0438159471982151 1.0967035392258662 -0.1775004776147459
