# total energy = -340890.01868443756 ev
CRYSTAL
PRIMVEC
9.07765446515650 0.00000000000000 0.00000000000000
0.00000000000000 9.07765446515650 0.00000000000000
0.00000000000000 0.00000000000000 13.28606489313171
PRIMCOORD
 96 1
Ni 6.232436193620123 1.8904487890218922 11.389080456549665 0.6938605248124309 0.25564273044412744 -0.25504520606944464
Ni 5.033686524543154 0.27680219631413644 6.004636991994649 -3.721805780436035 -0.5674830911257452 0.283512460271202
Ni 2.878260999764519 1.9561074642438356 4.988638663933602 0.8994886139013283 -2.5278559205614854 -0.34075652949533575
Ni 3.020616778117971 4.411168209778161 4.739790196981895 0.5464836060559427 0.5911590945864464 0.7468748722259331
Ni 5.2546820240977254 4.918373079037232 2.5789716376464566 -0.7159339596727025 -1.5489233043002164 -0.24667883638262034
Ni 7.4820388833791505 6.055303920758824 2.7068231395904485 0.7215806164355185 0.27278633210294956 -0.34378528901933053
Ni 4.893391373768216 4.715968615961928 11.312459605716217 -0.02888634401704702 -1.2658124503428072 0.9184217033604055
Ni 5.595112224315245 7.781456240426099 12.17093884129541 0.2604643202024869 0.14101523820451842 0.9047370067844611
Ni 1.764242158078898 6.378459344404056 0.5057070562614733 0.4241366336848889 0.35184698298154243 -1.5462688973965046
Ni 2.755594654088573 1.59475327033261 0.2482438951599496 1.0500045925074304 -0.359260244726478 0.8424011248597169
Ni 0.4835702879224396 0.16349309692863387 4.815281787591701 0.24988243092158252 -1.1894501722319837 0.4269188244157164
Ni 8.913948109082085 2.1448228242865537 1.6842217256236303 -0.8127287946062648 1.1244915079724118 0.14506755389702114
Ni 6.8803265527989605 0.39839102439726576 4.781748023989132 0.5246551973269417 0.7057019975320491 -0.9274642731786479
Ni 0.9488146068779141 7.37143674057476 2.4568063785006156 -0.8493585300141566 0.5236905194208271 1.081703209162292
Ni 7.97305829460964 3.7549445637399637 3.8189992174062986 -1.7671803950070337 0.3668249444476134 -1.4565646507611367
Ni 7.709152722087542 3.622356341661752 12.739303500190914 -0.6627609751941489 0.7360065620528615 -0.49827824999530956
Ni 7.809533425890148 8.767816026443782 6.924789812456724 0.47293925700988865 0.24666803774934293 0.5022328637676834
Ni 6.908694223207999 0.7757191669865023 0.7463193672573017 -0.726270308601704 -1.933834416825579 -2.342948608959707
Ni 1.8698879015094214 6.618390831310067 9.23056035934145 -0.2936881152526232 -0.03651814953069195 -0.16784187147905932
Ni 0.20970017402178132 4.803976476638928 1.25618580482483 -1.021481545367073 -0.9167620562697953 0.5955898766642904
Ni 6.417338938759866 1.8348481550201776 6.756123360210935 1.3023311140941314 2.3584431050508803 -0.06504402488452668
Ni 3.343336474345719 4.358926307952876 0.6095617784530517 0.7017916067340494 -0.17572050289618768 -0.6469839148655503
Ni 6.102344326537907 5.524451761446779 4.734834705373481 0.6825139894513601 0.6864935429243983 0.013397761463144668
Ni 5.4419449594155 3.2457153775205043 8.717279815904853 0.8415490612720667 -0.1660611254295527 1.5322939232736512
P -0.014949989246926356 5.727001466994577 12.51935283867285 0.7065232078817638 -1.300732916369076 -0.6388144916808804
P 4.0752042155898405 6.0906976957747725 12.76046805172969 -0.7093617057718236 0.8388977396921488 -0.3876920177046097
P 2.588257170466106 8.542145534805803 1.5715816493770547 -0.8066098261927205 0.6881814721497826 -0.08237994505981296
P 6.208280554913419 7.554251625172397 5.772675685766761 1.5645928925166732 -0.9972902928328502 0.5654830299765808
P 4.821078777775129 0.7253735871927212 12.48900714734153 -1.0456540288482186 0.927312578092132 1.0021267949895452
P 3.9417899269493177 6.13208272278111 8.001081014146504 0.21039414301897316 -0.0574610703309462 1.546131600487692
P 4.774964292758196 1.1005385247072461 3.801475713099864 0.08479652492110556 -0.12776120140808964 1.1584041015594564
P 0.42196569321399274 5.4373516662228685 3.593588346687902 -1.0487961740216258 1.1634095251938479 0.2742585457731019
Ni 1.7271690169747342 1.202861846579463 2.9184432375455134 0.4821121817584084 -1.4032471702849187 -1.069592284831371
Ni 1.8650222786808632 6.654819458942537 4.858009399703157 -1.5669526509981015 -0.6253000021342134 -0.7339669059150133
Ni 5.899676611481208 5.639347634844281 9.169563967486573 1.064078554101993 -0.020926208629705893 -0.32120817504976296
Ni 8.379873382411573 2.2926433506676016 10.306718119509625 0.3577008706591582 0.4360503544033394 -0.5909935155428596
Ni 2.2018304947405563 5.376894487047127 6.9832889415501525 -0.5864971703344029 -1.0820305105947237 0.4872207066295674
Ni 0.5082070423192809 8.961869047350666 9.129479768374512 0.8591536617277075 1.1108044974036224 0.3520796678176388
Ni 1.3129284077665309 1.2043596595770603 11.574646778235618 0.03811300482163759 -1.615026880797509 -0.8284541757613216
Ni 3.935353869886915 6.854763877639969 1.6768479468481865 1.047234743071777 0.3229902066508502 -0.08976543889060669
Ni 5.623470817069751 7.717613096110333 7.855425508371074 -0.048029235494085026 0.2575576880786532 0.730463006526813
Ni 4.989006308942103 3.2341504456481474 4.940131309182326 1.5641118391151965 -0.7138030293726286 0.07752338829846005
Ni 0.8167320101570733 7.477273114750432 7.027039605327241 -0.41671154486541134 -0.3272710934143912 0.3180606305597168
Ni 5.405588953019277 4.919961668580137 6.890737714780442 -0.045059611342799816 -0.22599533989133982 0.29293735312952773
Ni 8.398636894326929 7.06101726623637 9.31216302698145 -0.6330374799877871 -0.4265670975032524 0.6458426021722554
Ni 4.712092457477237 0.11636100683878851 10.178068691732367 -0.8387028500725233 0.15261579855792426 0.23574419174798755
Ni 8.265740031994666 7.161207339293828 4.966796011601369 -0.0862859649824385 0.1626410440044102 -0.8716240262805762
Ni 7.543821400116403 6.330919667625773 7.183284195112957 -0.1699550611673202 -0.9478924591260127 -0.35052132219158344
Ni 2.3074399275529562 5.250923875121936 2.6338033943094046 0.5549345650367733 -0.21061088701546954 -0.2182249519173016
Ni 2.2562873442713784 5.431233327069047 11.399244706327906 0.15870622772637827 -0.5677286314776481 1.406928732901564
Ni 1.1601424043570843 3.2606027309511676 3.813658833245775 -0.06191730633008691 0.35877867710436917 0.2727138269938013
Ni 3.7884864972316104 2.73185658749029 2.725915262599821 0.3416363609971278 0.6128129254107962 -0.3282388566442992
Ni 1.1183761158604493 3.1232668955532996 8.388010591933066 -0.22397830946131103 0.5820959559429136 0.16392042493746609
Ni 3.7262228648042206 3.264524277708513 7.296241989268115 -1.6384920537989847 -0.37559446311012734 -1.1932903719136805
Ni 3.896973546530303 6.871484917285872 5.963981808412595 1.4256803024774545 0.5816776374585725 -0.4159774949128643
Ni 0.909662682886176 7.493921533160089 11.509425645962063 -0.3842683367350414 0.2654658871821363 -0.5173602063274251
P 0.26662977664681864 5.3745433745236255 8.182542420453586 0.45874548200800996 0.6303383358890693 -0.10177917552203115
P 8.398173933945852 1.5465327694645106 8.00624892287094 0.5905402300555248 0.5255519981095981 0.4303635884312072
P 1.968861568859739 3.220533963851809 10.584928260041503 -2.151399366561379 0.8544657693337349 0.39762856009203135
P 4.09533845333936 6.140452320258593 3.8658725943420134 -1.8699538161215346 -0.4562538259344078 0.07349549808598956
P 6.668926134083543 3.9026289253030493 10.358533371571959 1.8002368112413705 0.009783818859641216 0.6330678190050903
P 6.429639160649225 7.786131232509508 10.021266733958456 0.2766085340625172 -0.018055057729497937 0.27588939650830546
P 2.2873510780760915 8.599588932677287 5.868122684331827 0.8881276803625543 0.03970297501657678 0.0011505686646754378
P 6.841701132770014 3.9042901360822024 1.477981953509025 0.9625392625049102 -0.5358693208752061 0.6387003347005193
Ni 5.278356547114291 2.8776346416018876 0.23970091448092695 0.024951270628698962 -0.3153494022761408 0.16485733492943866
Ni 1.3034513364362794 0.9534260553796072 7.116069609904419 0.21710780759372283 1.0672541236164974 -0.2648681056971374
Ni 6.5529863304149885 0.8028640773302292 8.884152523615338 0.8059835054626312 -0.2696832676975936 1.2981952375488868
Ni 2.6525995857810702 1.48812714021275 9.508358374357625 0.680514442522828 -0.6177317028686523 -2.026209525424891
Ni 6.395189461704489 1.889804275550199 2.532629303500799 0.13979344998227536 1.9334227832094575 1.9369115130890062
Ni 4.189954846514849 6.726006425773794 10.328853072317752 -1.0376496704865035 1.4364280279122617 0.021946679474420267
Ni 8.169344418531121 7.420365298496269 0.06629501880455879 -0.7165633657265853 0.8924265648482242 0.7938646107119103
Ni 7.803614795136006 3.828927448166735 7.917484893571518 -0.3649061301583457 -0.42026892319936654 0.4312642458686056
Ni 2.940397545028476 8.167301946261672 12.604622878743333 1.4114736719597691 0.40522925525742465 -0.23873669871740819
Ni -0.021956123013868952 4.827932406945952 10.407040726323235 0.12426655799126986 -0.9542628814287307 -0.031185938684501126
Ni 8.706469237124013 2.4615240355603203 5.788566120023088 0.8224077124569256 -0.5025647931858055 0.9157331007846486
Ni 3.737052506659575 2.4779001243340497 11.46548889026709 0.8858864497368614 0.029038039103562893 0.41751527171362934
Ni 1.0273544738791933 3.131781735503276 12.752363521764508 0.25823697353386493 1.6007336041032885 0.36858332189961684
Ni 3.2892790416142557 8.306208215893383 7.868326670990378 -0.6856095976575484 1.1456128633320593 0.6343322875398107
Ni 5.471538113186209 7.761449089840013 3.7765775222525333 0.8365210119298562 0.6417185527015529 -1.519816359631931
Ni 3.145307440754306 8.345732323720888 3.86144905328911 0.3361216018264856 1.2093649088780396 -0.8458823985400981
Ni 3.251053038384669 4.586303398642663 9.448916984723889 0.6910518517190422 -0.9171538923915753 -1.082950965526464
Ni 7.09571206185344 6.042903844669626 11.381055809944357 0.3870772669387463 -0.36964210218143434 0.13175875260325698
Ni 0.7539899853359057 9.260115386963129 0.6431136973646823 -0.39590952051839556 -1.1300219508723377 -0.3373577882264319
Ni 4.5503921973184545 0.4708325230846917 1.6251116703802726 0.22104288098207092 -0.8931025078693264 -0.012142806010121023
Ni 6.077480630777793 5.756267825202173 0.542729362500264 -0.03127361330230098 0.41985060471502533 -1.5843284232723875
Ni 8.188806909845354 8.99050904739563 11.127172875789817 -1.3804558834220162 0.147582607009391 0.49536159056914686
Ni 0.0624288457398518 5.041665782875809 5.765009606515423 0.05263279570436742 -1.0347273546333857 0.24936718184806086
Ni 7.963817242297192 8.786543227741014 2.682855408332534 0.6184392704586381 -0.620072435186687 -0.1270618613482199
P 8.376986688270751 1.5421482623260898 3.800784903590063 0.5357147975752128 1.385198026092692 -1.5353118841643687
P 1.9365632740388246 3.145343751372429 1.6951421440242938 -1.1169589470407926 -0.2755677515028287 -0.6107750690451611
P 4.604749192649437 1.3968876345227528 7.977179549766665 -0.5446725209891329 -1.5122298055339247 0.40765174865598824
P 8.443407886473288 1.533633422376113 12.828745630283796 0.8451298366447897 -0.11299252773934733 -2.269627945888685
P 6.412146520368196 7.678760734718115 1.5677154763123475 -0.26856895158749233 0.48526255446193195 -0.26567491786914893
P 1.811745524239057 3.199310407558583 6.216230764751575 -1.1613145903380322 0.8221783700549389 0.7092750595952881
P 7.0881049873565525 3.9143390996478997 5.8161077238698144 -1.121005092085708 -0.15477706787530118 0.31645909040055176
P 2.5786711672814837 8.471294441192189 10.143179634308337 -0.9459566755558806 0.3200411513248553 1.0631120764236657
