# total energy = -381170.0412373084 ev
CRYSTAL
PRIMVEC
9.21791919990721 0.00000000000000 0.00000000000000

0.00000000000000 9.21791919990721 0.00000000000000

0.00000000000000 0.00000000000000 13.49135651061217

PRIMCOORD
 96 1
Ni 4.8685915650528155 2.4228747805135926 4.680771850353774 -0.47923537443124564 0.31471074025087736 -0.626295019057631
Ni 7.5861263539131745 0.30900309077771093 1.3682397283029548 -1.296163808941155 0.08102471658349916 -0.26851444420047305
Ni 7.299504371196088 7.190327335005789 2.4086524528254794 0.7763651683755661 -0.7523549215038978 -0.11757911866876525
Ni 8.164458610800995 1.3770096567250631 12.717681190007458 0.4522835284327501 -0.27529932833279036 0.7814963189545444
Ni 8.335386488382618 5.48194269736169 0.8808118261768576 1.3551374592618854 -0.7622922352222677 1.5536369077258017
Ni 3.6193975773428386 5.036818592279509 3.3094975830172286 0.041658041860418576 -0.7078933487564131 0.7144609746716017
Ni 0.7612443513514939 6.643050248239979 1.9819475940887434 0.030493283492850708 2.6308645976152434 -0.14880362390068563
Ni 7.906144858254496 3.722398607602076 9.720724535195314 1.3663230435650597 0.18975718349491189 -0.8187688301527576
Ni 0.6467356706380212 4.723510733188654 10.972399064988945 -0.7066119109408282 -0.18030477983276044 -0.22013785266929828
Ni 2.9124384745415215 2.9522783217565225 2.3748024095716787 -0.8221842835922099 -1.6809720773400663 1.3157602430158435
Ni 4.994379291821881 3.564108497380882 9.702605793019051 0.0749160325826 0.7240059380475595 1.1709870804307896
Ni 3.193483616082051 6.481257328684751 11.96409416421855 -1.9836657385254093 -1.0162748043551528 -1.7568638435723745
Ni 8.48450476890022 0.6609957917952647 7.403314734769873 -0.17611413879018056 -1.0537800003894626 2.0297460778232397
Ni 7.050021385339076 8.545619573859833 4.793937480225223 2.2182570476158765 0.48733383516866396 0.38780206091991276
Ni 3.3384722687532102 8.091830624635564 9.650637007588989 -0.03543237266568091 -0.5569212564494989 0.8699062722585211
Ni 6.075585918206967 9.078055810552494 7.479932236408385 -0.1369256415161771 -0.7569119447469609 0.35005055320275197
Ni 4.31781166895297 0.6806456303672724 6.165900326133486 -0.685091263260233 -0.23283910228605062 -0.09751448670840625
Ni 4.958097561456716 8.957614476977481 0.45448766750721564 1.0502064241055913 -0.8003504755465699 0.46426924003971654
Ni 6.004598721676952 6.823435711023496 4.338563970673269 -0.9461366527771705 -3.1196045691028145 -0.5589819956332696
Ni 1.5539015280938442 3.416262289726694 8.558822399673357 -0.32237674143656736 -0.611906868656759 2.3533934584421146
Ni 3.5883239713822257 5.280678647363464 0.7052390390599201 0.4137462915895003 -0.40963921139966225 0.13048708497968495
Ni 6.382662463850958 8.935933930783664 11.470216483958179 0.08154356520144666 -1.7701412774075709 3.663385945736246
Ni 4.529879120370905 4.168942272256471 12.153000671603072 0.4803095813320309 0.40147518753163114 -0.17609022753078063
Ni 3.792768203538984 8.988494506632792 11.885507715017539 -0.8221973962183324 -0.2368554225342953 -0.08683129596294722
P -0.08468133744223254 1.581435453043221 9.44722794776963 -0.3472436798815762 0.45678347318563267 -1.4025270042894427
Ni 8.853378245532033 8.720833783915998 3.1926355675064424 0.4674296400455692 -0.03481325102444327 0.6449694555386828
P 0.18704264410204305 3.215459135693472 0.4760281013276725 0.2048811836205439 -0.26598190758660645 0.06411817063614764
Ni 0.8592400514307804 8.497944495239754 8.924141446623054 -0.015129656552586848 0.9777848758100709 -1.2671972465054757
P 4.6216619428419285 7.579563195371508 5.699989813029595 0.9038414915533852 1.0682887355285988 -0.8923807992119533
P 1.7069189884753846 -0.173429620879666 2.8065393304543353 1.2666066641093283 -0.47073736426256346 0.8803418657695484
P 2.660604919262986 4.294213795544732 10.388817203059721 1.3490853395305347 -0.3090728252388097 0.6678391610480047
Ni 2.7242730878687267 2.725268623153137 6.792236741360402 0.06847567627389498 -1.580556357824465 -0.8155577794146278
Ni 7.871227379945744 6.751794042223175 10.045853453996607 -0.6927976307655552 -0.5489739765779642 -0.19635694819961666
Ni 1.485154285953752 4.542055991766328 1.7578424618568171 -1.169008359437864 -0.7087502974400697 -0.32193579724440685
Ni 1.2882964013809701 4.804591551352271 6.52591722590177 1.410147754059494 0.910199058340297 1.364404229275792
Ni 6.354427977034773 6.694486237934497 6.756768031477504 -0.333612976472019 0.5612867325070462 -0.7245340426368877
Ni 3.314487242734369 2.291925018936474 11.032866772013694 0.2125929504425048 -0.530774422850802 -0.2928180539428441
Ni 5.308258661909342 1.4730142862355298 2.035346078802251 0.5114425552914095 0.0512845092065891 2.391721921708668
Ni 2.4955765100334246 5.833799894965533 8.860137745754791 0.8023322818632892 0.0922151859826799 -0.6701027602712007
Ni 2.8854576247501496 7.528449832852493 0.4943837440299472 -0.7192036315629098 1.1401942634196491 0.7951355070045338
Ni -0.2513643631861606 0.7186326758029549 5.282109268438838 1.5639783988611258 1.8264427802127772 -1.7473278790574813
Ni 6.356612623908896 5.221554912972668 8.461563211346148 0.9946397425838804 -0.7437309272803126 0.2615611528110915
Ni 5.15117609911646 4.782735864691751 5.250916751319255 -0.5652583155602845 0.10619504520153969 0.4039899835336849
Ni 4.101365705867491 4.5475867433463835 7.630400942103449 0.3615968632794547 0.055808622329187756 -0.43809926651256814
Ni 5.116728734692014 0.5475812781027128 9.891579591214466 -1.286902695354203 1.1524753947798474 -1.1502663029436706
Ni 6.52690446505881 5.001937985647958 10.994160728872604 -0.6040693748902113 0.04563219601681818 0.45282474564820074
Ni 4.957304820396908 6.806917199637729 2.0808392759239993 -1.0327038964454538 1.3611854652281783 -0.43828052928543876
Ni 2.816830215560959 6.427028309442305 5.4583604944162625 0.415812944310542 -2.150539846774561 0.7345297203970188
Ni 8.128840570625437 3.1677379674768917 2.4262181198437363 -0.7960662463489193 1.1202520159697675 -0.09037556167077984
Ni 0.7556619794233577 9.561655510793264 1.0095207115721234 -0.5320034101618967 -1.0554951833083563 -0.6984597141473391
Ni 1.8439986663870647 1.1428560706641058 12.745109108884883 0.20235070388920637 0.6810731432397754 0.5906556725874665
Ni 2.254454176981597 3.780499152950561 12.817706675916625 -0.6483856803090834 -1.5321306582229097 -0.09624667573957618
Ni 4.65051403025122 6.050190550535211 9.971151435988656 0.3303469041262375 0.32530574215790425 -0.0734931840931444
Ni 1.0761183349314338 6.8649808733090145 10.369537924843575 0.15750063745405132 0.6326047633257428 2.1928725461045007
Ni 6.125906539666173 4.981382025608751 2.868504949365349 1.2153504370375132 -1.619652295384662 2.2842351542788983
Ni 6.487746743872016 2.4835932149433035 0.4046417688919638 -0.8635530763469836 0.540733590946043 -0.3602334072730248
P 7.072568415947104 7.565533522196766 0.2733795198505723 -0.18631241947942107 0.1386927607189289 -0.8431714273668381
Ni 8.164403303285196 6.17922298489791 12.205752058381714 -0.6436232259234335 0.8304632357715505 0.6378508422160305
P 7.299255487374986 1.3078291723778668 3.5260744405567688 -0.35494207696709834 -0.023281853346076034 0.02944890138873638
Ni 2.7352516297551372 8.61272602636451 4.94057521865917 -0.4566639168886329 0.6742424934711873 -0.30045217344933417
P 6.292243893436348 3.706460825132215 6.724887857578133 -0.07416655601108518 -0.17282904028100557 1.5198608397166211
P 4.76088017803123 3.6015701214164593 1.8198486396127513 1.5216395288835989 0.7237423999735277 -0.8460922005580589
P 8.242377682644682 5.268206802550438 3.8666903855741483 -0.7751338670716263 -0.3339215088513733 -1.4772741153943463
Ni 5.246268154616217 8.81744679610027 3.3932248658119017 -1.0636975166134905 0.451779592213138 -0.1196668544357294
Ni 7.5845040001163575 -0.20009245245518445 9.716137698551588 2.4531502042174784 2.027731361386056 -1.6122007242026233
Ni 9.411219067815749 5.396667725916532 8.67936789573646 -1.2885970523374903 0.09363906291340002 -1.075153580969232
Ni 7.447341360930976 3.3115651623162394 4.97036384666935 -0.8456949651196403 -0.2158376826320476 -1.7022759810241652
Ni 0.07364287908037141 7.6242332322997575 5.538822790194843 0.3166688924185127 -0.40134843214577975 0.10540571653102492
Ni 6.17726878600629 5.385200634307216 0.744270474752303 -1.4984029269531614 -0.9720112065510872 -2.8490540683089187
Ni 1.0987391088938616 5.670209481146785 13.069279364078966 0.206738805654573 1.897829973706512 0.7041770762470905
Ni 1.5538370026587434 0.37615286750309695 6.8960664625647174 -0.022353685104851823 -0.02062513244951932 -1.857520218343872
Ni 6.750190124264958 2.21106543083606 10.927243243713582 -0.7600980557844265 -0.4533075988218903 1.1038501775729763
Ni 6.7634547101377915 1.1886230399890667 5.814437655475688 -1.0822382557301553 2.8962381821938896 0.6201318276697126
Ni 2.176166388365909 1.5315204200332186 4.380845644710864 1.2279277594818916 0.6591226071106132 1.1165046331121933
Ni 6.776793039365026 2.00545974084749 8.449596508510767 1.370172499218137 0.7356072697319137 -0.20704168160697245
Ni 2.8520703210452134 7.17048115475269 3.136052291674752 -0.06650621125234998 1.1872819609360714 -1.533439092621688
Ni 2.8760184753868545 0.8584242655727223 8.588340942648044 -0.10543631265864421 0.5580779957617614 0.595689378356632
Ni 5.259606483843451 6.81888205888925 12.519560450490562 1.7276702527275534 0.15603048066642808 0.3494026352061079
Ni 0.3661099444256459 2.4794728050161625 11.336827660934254 0.09173593235341619 0.2743415924052114 -0.09477780450353356
Ni 1.593160646392939 0.5505393084061125 10.577169713494307 0.36443664672109494 0.24182433650379648 -0.12460311539508216
Ni 8.828618914291983 8.38442581905911 11.972688952173955 -1.2922994408897421 0.700561076761058 -0.09075839893149532
Ni 0.6711834362057272 1.8395371934458196 2.7800156894602477 -0.320934352563086 0.10436004887532996 -0.453449009495761
Ni 8.968086033302388 2.8832821957953274 7.042312439428409 -0.8992531008517546 0.2915499858636979 1.1832638409156138
Ni 3.3599592386417267 7.77049395783433 7.306568062755749 -0.6971538508517219 0.7418049139021935 1.8565935927645443
Ni 8.338225607527047 5.270916870824665 5.974593472563219 -0.9275501480242347 0.9209676097107107 1.2091499646537562
Ni 7.765451755977179 3.961410037134182 12.690901290856827 0.8325684550400113 -1.1087229322842456 -0.9848836916383812
Ni 8.301123482344172 7.510760645715615 7.9327155106370135 -0.8054165772155678 -1.0305698808215864 -1.8312792823694721
Ni 4.622288761354335 2.092016003075362 8.120313073480922 -0.3953407924991192 0.30239258500515664 -1.9193349376578235
P 1.6233954216972437 8.183207858657386 12.121242174238462 2.196975512529281 -0.9552260166729484 1.0848746649117382
Ni 0.5603508617091314 3.303951160974363 4.990600866700773 0.8088711114230714 -0.6492472569784302 -2.3187326738351355
P 5.247291343658528 1.301883614429307 12.359890417750144 0.12056005567396012 1.4552798705114423 0.018577248781555106
Ni 3.7981975580067386 2.0188072879940244 0.39501088680722685 -0.06373867580954184 0.3447347974167934 -1.499343950710192
P 1.2306290982395895 7.036498697725841 7.344464772582291 -0.15057177154470197 -0.5988232959999235 -0.7030920707130279
P 2.7627763367852145 3.938171662578648 5.1185935197664225 0.9064897278095098 0.7992916952647525 -1.5879734762241424
P 5.894177266381141 7.8535105390509665 9.143146304106239 -1.08279515667489 -2.5227723353909908 0.8396235621145797
Ni 1.1477692216510553 5.771966092300509 4.068655919231111 -1.0482608703434462 -1.2084297986582802 0.09515729933013935
