# total energy = -381166.5735562382 ev
CRYSTAL
PRIMVEC
9.36957600813362 0.00000000000000 0.00000000000000

0.00000000000000 9.36957600813362 0.00000000000000

0.00000000000000 0.00000000000000 13.71332157915720

PRIMCOORD
 96 1
Ni 3.345969355437425 2.78091832377109 3.927508967293894 -0.8733417803026314 0.45387632684116663 -0.0020175446506610416
Ni 0.9636421726303612 3.127920578198648 13.284451226985736 -0.16116368812793536 -0.8170888713471735 -1.2126371518714083
Ni 6.79747761714924 3.773990335233825 6.305166353324754 0.5255162597756562 -1.3137840931260794 -1.1003758458711308
Ni 5.60337197882009 2.3177239549340247 8.207519193284915 0.33016795534621207 0.6579946641537572 1.7089269106817793
Ni 6.45501023760066 7.42582013602114 0.8759092089592966 0.0709408499849359 0.21601148920575053 -0.4744621214123183
Ni 4.5008820565377246 5.283813213071304 0.6047611695012172 0.954515620869485 1.3821109025269358 -0.8672940314466546
Ni 8.248337751983813 4.13451288811255 11.707460668270308 -0.5821887727670361 1.8453979811590413 0.18431955741910835
Ni 2.305843332317199 4.853431100073453 12.450379986615486 1.0930137490791048 0.4716138533302458 -0.7737971505380739
Ni 7.614542139765702 5.824493977051232 4.795713573747027 -0.5409032837546878 -0.48375640223005073 0.7128481216585272
Ni 1.3270411854013298 0.6242526988622447 11.063894461994764 0.5045697394309762 1.1629333568883777 0.4373006818706726
Ni 2.1771803119905018 -0.043199368010360374 3.078654409601225 -0.9519344904058703 0.5226494797508225 2.15612916793688
Ni 5.694612911819025 3.418499244772479 1.4743056253504114 -0.013365622673628594 -0.6949259899624677 -0.28581539737276584
Ni 5.998721246420219 6.15818206370394 2.8290310975387563 0.967096028637657 -1.114300683482339 -0.42446444933795285
Ni 5.395798387768703 1.541857458852406 4.346670075839135 0.5508405974730578 -0.6768331370164988 -0.2882579453759874
Ni 2.050185076226735 2.1702093473005033 1.6361228910474854 -0.07470340235116167 -0.09016344565997375 0.7993420888867137
Ni 8.41967919188436 4.378018803876497 3.2575992605850166 -0.39645819393301396 0.23512121345200798 1.2843421337158785
Ni 8.875012486292784 2.1288145596655377 11.0770455991438 0.7343980799151609 0.8954008169851998 -0.5710929199641906
Ni 4.340737260191679 0.4748220128965932 7.307705384576164 0.28632473290901655 0.5819509457246171 -1.6212384089248595
Ni 6.168900858872433 3.7251092562180683 3.985804596471628 0.29895064920314324 0.13321014033780285 -0.5550415229282828
Ni 5.523037232513572 0.3561085455326781 10.10590870251407 -1.6668099269070715 1.4517492316503644 -0.612612636474532
Ni 2.3800503757913787 1.1293806059655593 13.250880972432245 -0.8297245578333129 -0.6473058169813433 -0.3078788049307085
Ni 6.148503291493229 7.296126462312857 6.02897935578834 -0.1496618581359229 0.5732400482141805 0.44130954591974964
Ni 0.9231478012678539 2.5012458438896767 3.91081987817316 0.6581838973464277 -0.36184960272020905 -0.8142609149800749
Ni 8.527185709159959 7.927954463529757 8.81091896336482 -0.7528426597735938 -0.3117182332814567 -0.5256594702217399
P 0.7194110516688254 8.087977455385253 2.3254913336007035 -3.0335515460667883 0.2384189103666733 -0.4863928114116334
Ni 8.872745048853295 0.39562098530982004 3.5686176576309343 -0.2784234757840689 0.03917229932408737 0.8401892048100627
P 0.34888553924300064 8.216959041302621 6.970796974584811 -1.6907037028055336 -0.6846922280496015 -1.132476068839785
Ni 3.6473230346369263 4.001052644773381 8.878526077366372 -1.1429759399298443 -0.8599962122336607 1.2668084957074892
P 6.264760992936111 1.5502713382766247 6.327464070756554 1.4940662472510202 -0.44242026248542515 0.08118412497949888
P 2.230652483342414 5.3753633420847144 10.247992703784254 -0.3642219596071276 -0.7580432301379267 -0.5330128252630175
P 4.181904204513105 7.572491481797001 13.594975847366111 -0.42873273769600356 -1.6445943100419804 -1.1505067010892507
Ni 2.1006870919244407 2.977997989482694 10.946110456589516 -0.4827516151146202 0.8601072838902284 -0.1767818542811665
Ni 1.800785697035356 7.853747420055578 5.091153176451464 1.6586173637939499 -0.01625682817849458 -0.1593145507343385
Ni 8.949463138748065 5.486449037467275 9.65384913802861 0.24160836383824844 1.2677564614430554 2.443542763034701
Ni 2.2868886796722157 2.6663002981625494 7.340179398714695 -0.8861327614197126 -1.5698759952924837 0.9067314115066706
Ni 3.329254031503342 8.808376060385163 11.715496953773817 0.23192816043600703 0.8753223010677699 -0.412503934541967
Ni 1.1649568867826632 8.11742603337002 10.024835633603288 1.1754919102796788 -1.9463369201679641 -0.7198973151958248
Ni 5.637870758374626 8.3347158749369 12.31106656902653 1.896980224111707 0.9023165702684266 -1.3914617476142166
Ni 0.788912693977256 5.959940570544003 6.140880204299972 -1.512316708820776 -0.3874292509615263 -0.9582390924676594
Ni 6.094319032350404 7.637150927127217 9.973877319544826 0.8839707207713873 -1.74517020928453 0.0414235572521093
Ni 7.339011012563025 5.077551362687391 0.3475316354826447 -0.0708220650188845 0.5934203798167974 -0.14125126547472447
Ni 1.9372535743335164 7.019620899185771 7.800918938588348 -0.15606493344878927 -0.5185282584935974 1.9286700990158203
Ni 6.565411953920895 1.2396886265238323 12.008481727514841 0.8272876662570463 0.596372777576902 0.26096208577451185
Ni 8.329684412519523 2.369603298332577 4.929459589160181 -2.2475797078393938 -0.8190609074718797 0.20557101059871694
Ni 5.3173844045824135 4.775532443577957 7.619998980942389 0.1131650487614696 0.45807185297975306 -1.3090910585257842
Ni 6.650468966630315 4.945993143316056 9.65217666867758 -1.1760117873388907 0.612832722905138 1.0341079758818321
Ni 3.7225794706450848 6.99643119810009 6.432932705209472 1.2575759213656277 0.8090847700957743 -0.0466377544631971
Ni 4.788584263219311 0.29998572107485094 0.264589336120715 -0.8338231533827187 1.4607303521030521 0.47185502280677444
Ni 0.45675091128691503 5.611092509605788 13.49600688792052 -0.9995469500775107 1.3150511327639611 -0.7323401689448678
Ni 3.949932237046723 1.0010736295343194 2.4940968572519493 2.487348190255426 0.5553960780542242 -1.119723654270123
Ni 7.8596596226354025 8.985498528798784 5.885510531156353 0.13368707997422138 0.8760656069916977 0.4772003462790878
Ni 4.162865225682356 4.8163837957935405 2.9045639360447035 -1.3247616751835054 0.01738888490040876 0.026684451269721788
Ni 2.4588016637207324 4.395521172211064 1.1288324857580796 0.36704194555442593 -0.7334799389762658 -0.4170159634797076
Ni 7.952999340702294 2.3807812027346853 2.4185911905169712 -0.7295911454448208 -0.6952103539721058 -0.4185449985297243
Ni 3.6513988002822884 6.614855207508426 11.281236773188343 -1.5739311391984636 0.21389727107622516 -0.7714191372242005
Ni 8.853940309427452 7.979927502690273 0.20443853085612654 -0.07048190807064635 -0.44221431712220616 -0.5015306954943363
P 6.636067928016702 0.6215908022648943 2.7630973898458517 0.009904146487589393 -0.3980831311309467 -0.4135984531577264
Ni 0.9506278312937909 0.6341516561135667 5.764545554632482 -0.19648910290210678 1.486665069690943 -1.4848609266026687
P 3.7841375862543476 2.689105846624185 0.19923560519435735 0.7333570402451564 0.38734106212309416 0.3213565277021691
Ni 7.82895552144034 0.7605819064327008 9.752557623255942 -1.0440164932447957 -0.7981048740455029 -0.9257861141452766
P 3.3087908770907655 0.9252803168101169 5.2071400971422745 -1.352064990984149 0.6728188736507832 0.2975583968413069
P 6.327612110060455 6.6454375042129366 8.002367637680255 0.7955401986421202 -0.05399368060763605 1.2381211550751257
P 5.885677309612645 2.7960314501756174 10.498946495666587 0.12046286797446351 -0.19430649342849118 -0.26678794842766956
Ni 8.695856819844577 1.3407863536812061 7.660576741533044 0.7322861757784808 -0.15678664210616222 -0.7509801526435582
Ni 7.110018570327045 0.40177211208264824 0.5530448567284794 -0.16791669058105274 0.1783422567897509 0.48334939659961923
Ni 1.3122559941636711 4.827402417400313 3.7500997898486657 0.7998169716406032 0.3309194888002559 0.3620421783469894
Ni 9.58882427922674 4.161216180271819 1.409605890842551 -0.85168075038943 -0.7118070819885225 1.4291998855949386
Ni 5.008057216039917 5.498873095503483 5.065413076725169 0.32104053912364705 -0.932937123367761 0.468938877601244
Ni 1.9492747405932858 6.471257082724931 2.0194781641588144 0.6510953659307626 -1.3808068390035315 0.7604215005621162
Ni 6.722989486389173 7.997120675010364 3.902249526826464 0.19894682041397996 1.4528470927002335 -1.0072615451129492
Ni 5.503970144954234 6.056212965960316 12.1186267174473 2.776862376636018 -0.7256619855937438 0.9851865675907809
Ni 3.277271622766631 1.4789782329994738 9.485134927293487 -0.07805380688063332 -0.7660990105628677 -0.4393192549625982
Ni 1.1901048292933574 4.770238633027084 8.291499641689388 0.6739604434543941 -1.0280885091606293 0.3228382544540182
Ni 8.175067666129255 5.0170801179168905 7.6099332452347745 0.2046158457742992 1.8721132856666984 -1.5003947605722097
Ni 1.9249232120592712 -0.02323373809380354 7.757995973075777 -0.14824080941868018 2.4733526473072827 0.8312096270192718
Ni 4.166472512517907 1.7416074537799364 11.792661035495529 0.5568076136897702 0.9377114048279528 0.24855239925624933
Ni 4.177444286243698 6.314007485423522 8.884833676061676 -0.6128396648836736 1.4856302006685251 0.6957973368238275
Ni 4.323272370161897 7.813711220969068 1.9464826068868077 1.3337510231663097 -0.8399256667360309 2.5288874471497933
Ni 1.3851794056989668 7.69843732502679 12.537966784897888 0.21155011100028726 -0.22432129462302658 -0.3967844669241812
Ni -0.05733712153285913 0.6381815108355673 1.3538981386102171 1.6024421021539628 0.7545964092399069 -1.1553262339650814
Ni 8.524440423334461 6.443607463369842 1.9978250735693157 0.2390010081223884 0.032756625605730685 0.8300040367469448
Ni 7.931439945874757 3.2206419042365875 8.886150101517249 0.49126479479195395 -1.5216824663063921 1.0811614777262089
Ni 2.4791430136427586 8.43667560310433 0.9385794932630527 -1.688723696261027 1.6842299221557318 -2.0691276649446557
Ni 4.2665302167174985 2.9261280156603378 6.174875837612771 1.147220059918179 -0.30072393905348205 -0.3479769585031749
Ni 9.076336570021281 7.580746078425884 4.320629212716939 -0.1512268886301976 -0.8027691122903916 -0.4388775394394893
Ni 2.8569430650273397 4.86043017349204 6.691785986782851 0.5952736309754523 -0.09939936243594494 -1.022558837591652
Ni 8.644061802631791 8.598937923670723 11.407605184304584 -0.8191575809507441 -0.7935416801548527 0.7673465098167236
Ni 4.307971852233445 8.518771829735739 4.607868562334432 0.1147485911985056 -0.5979995145470476 -0.48458609722019763
P 0.9478919150444906 2.0862110967012577 9.19158704202307 -0.16200623863388872 -0.07467691998860042 -0.38163475576693634
Ni 5.8738810131815855 3.849808945813758 12.537760654221572 -0.48428913480506913 -1.6204459949305512 -0.033034561857465686
P 3.1057990087993375 6.128986464276472 4.3357545195705205 -0.9629840633518125 0.3110196645525353 0.22250712423242322
Ni 0.34912258952076536 3.489277023358837 6.288449155475432 0.043726494353673075 0.6396043345720275 0.14514931497755001
P 3.5480898531426033 8.60850426096708 8.793942228254862 0.8355275376683353 -1.778053333165796 2.009074408406501
P -0.1311618862982327 1.0178732796541685 12.782406847408602 0.13920595290992155 -1.139682099669921 1.6111555707675604
P 7.842738168025003 6.286966888521188 11.84954466954049 -0.08749541190950738 0.520643247954071 0.1952809415266185
Ni 7.973752951976953 2.7511230714670636 -0.10303816638761419 -0.26898547029962067 -0.7803262099058432 0.5893564941600689
