# total energy = -340856.45403864083 ev
CRYSTAL
PRIMVEC
9.34378700390984 0.00000000000000 0.00000000000000
0.00000000000000 9.34378700390984 0.00000000000000
0.00000000000000 0.00000000000000 13.67557676468541
PRIMCOORD
 96 1
Ni 5.419153373636355 5.673650093209532 2.420385552682195 0.5151840246117129 -0.7415274918710907 1.6840964819016608
Ni 0.9073583119894236 3.383908432417053 7.766236919304138 -0.21416518002563117 3.489785574506854 -0.009493541312732038
Ni 1.986461030623732 2.1721407608200884 6.141851362563301 -0.6192710223313141 -1.4990248768078764 -2.0166193106332946
Ni 1.8109753717661548 5.447119327364098 11.835445768580005 -1.3001644454601156 0.3221288870918194 -1.8159200263045823
Ni 7.534885693876965 5.052419087682411 1.5752213540247455 -0.2051969150887498 -0.8411903923810673 0.008821454946371904
Ni 9.131514597713148 1.1880437970514461 4.300722656592402 1.7819611528606343 2.0960458294917386 -2.052966481803761
Ni 5.595115565617927 1.1119853729472622 9.981379655481998 0.3502063620543259 -0.1219181123637513 -1.468297880037665
Ni 8.30119767619348 1.491885054424892 12.679666244776211 -0.13792991441097535 -0.713881448019048 -0.13155537834319925
Ni 1.9709970635607805 9.341310641498312 4.662250584572042 -0.9806596262547047 0.05375996733027516 -0.35628702103076704
Ni 0.4183717890214342 5.576596180289365 2.118812032351757 -2.025573691613105 -1.646200992407468 -1.4283717332666883
Ni 8.95928992042957 3.475776543693753 2.975572804738408 0.07875031872702566 -0.09092809174014017 2.1589000458137977
Ni 3.0660701824996184 3.876895964869245 12.671583869241799 1.1648840528568454 -1.1489630107512148 -0.12665459860747222
Ni 1.5508163174255172 7.2457982757738515 1.4275932609686688 1.0196051542799665 2.1927954130096623 -0.4981718063244323
Ni 7.227344296952505 1.144726001701692 2.626599188629332 0.6125195625400934 -1.3176507751703372 2.934103589781095
Ni 2.2247929991280833 7.503780227802908 12.807915324123186 1.8245090535251738 0.551196695260896 -0.005569009447345247
Ni 4.808966724041807 4.810807450030569 4.666803811852873 -0.14261163615736086 0.4608761551977676 -0.14625026135121263
Ni 6.15976994240416 8.054988895463106 6.469709889386058 -0.11053223912431286 0.26619170960456734 0.9454589099838555
Ni 7.618942399434856 0.19925251482212275 0.5388543128259783 -2.4055778537551538 -1.8884639591105798 2.009665505023281
Ni 0.7605795691484661 8.254843150151606 11.080690181709688 -0.0749114045969097 -0.009409723349674116 0.31206353243601737
Ni 2.731646711109834 6.598731699896844 5.751742659688099 0.4158499681960644 0.15166037662319043 -0.1896132017178799
Ni 4.176822175596543 6.127356346185804 10.923366975527015 -1.6321280592541698 -1.138194459380801 -0.44857934010828554
Ni 0.3148921539567407 8.967587203059118 0.017436440444817878 1.7084247742343803 -0.787943874352101 -0.6891746893009872
Ni 8.50375228525128 0.5070415220953253 10.600062610363763 -2.377597309381828 -1.6291507217934007 -0.24115225013743627
Ni 1.4849893398070928 5.233856738696543 3.8952695871245857 1.438980104910154 -0.7388699996435856 2.0537288138910825
P 2.603365862887925 7.803762501250675 10.099631817390515 0.8118931860788469 -4.196876996187263 2.6962773186930984
P 1.9565141941060527 5.561945122673228 7.609364083642571 0.206470896705167 -0.260244490882197 0.2404012309040247
P 7.211058076655995 0.5315773717089833 4.893134620661964 -1.118665131098622 -1.2617223394338335 0.11426959467955805
P 3.420750983552532 5.1868761789427555 2.2606955653170164 -1.2193700997198678 -0.5917213948478197 0.23627075367541892
P 8.074153002077072 1.6406194518315749 8.829649551236265 -0.5523722036262357 0.4764210449109021 -0.7673117999240463
P 4.738981761321864 9.528513408934101 8.098102061883145 -0.5401926308409084 -2.0568079670370385 1.1043461433727884
P 1.351102219538192 8.51428273291288 7.4863250997846 -0.42080011311248816 0.05041959010313252 -0.6258980407295285
P 1.2405932537052458 0.8533325370299161 12.170606464743969 -0.1564500847023499 -0.08610393087861946 0.5602495494917835
Ni 7.473627827976839 2.6550183160142065 10.990745956123781 0.47954724924470954 0.5958986661539608 -3.5643627356927965
Ni 0.22724743428877453 0.38214499343245 2.2956235745484475 1.0851307467866023 -0.37102715545441906 -1.4779703701304223
Ni 0.39475349926613373 6.495912670555022 6.558149765306022 -1.1764190500796383 0.3385505229829524 0.054201682853384066
Ni 6.635938658715378 7.191669719160149 4.391815233569268 -2.3407132918712845 -0.8971998178671515 0.8592976435047394
Ni 0.9703242221065334 1.7426909782337991 10.2950421671031 -1.3414933861158898 1.8136736534725666 0.23462241943871853
Ni 0.8004766041708808 1.2595144218638419 8.016199099169972 -1.730609794971852 -2.3773952206733506 -0.6140470549282133
Ni 7.352083849998064 4.510339299672063 6.128887792833307 1.2639394016898102 0.7450704720273426 1.2128826922233111
Ni 3.2048441032361468 3.9179899389736925 6.775674055107965 -0.5829837578645057 2.4607935796953493 -0.7936866903731493
Ni 8.816918641796223 2.366977402026531 1.0943714005542895 0.1299767210021697 0.0638605460993868 -1.2016798815289562
Ni 6.3777791747381665 7.1967807705096565 1.0794970264349466 0.6757766707275265 2.112101083182388 -0.17142521795494348
Ni 3.6594286721664475 7.463564569652489 8.253361225573851 0.19791092295029786 0.48252921469116905 -0.4692034441165403
Ni 3.20235865596198 1.369462760492089 11.29561596441785 0.8960374221279344 0.30036655571406334 0.9207457235078916
Ni 5.2435462455510935 4.335881457356434 0.3172010036614267 -0.7017175589630044 -0.5017294417687036 0.432648527810642
Ni 8.200667874604179 8.020491634800619 3.4146821940616636 3.4369118664362746 1.3320952327304414 -1.7670492687458084
Ni 6.729684871127819 7.842184152346056 10.096664230720307 1.7255413793100087 1.146557743743832 0.3165717047190161
Ni 3.079160827729343 7.553031327735727 3.273426563565667 0.3125080761726037 -1.5167986558515296 1.055892161636459
Ni 8.126646396010402 4.409286246025043 8.669973579551204 0.6320555756904921 -0.6691357683722412 1.0303377102061222
Ni 2.3157173879435393 0.19943845617834796 9.295671849521105 1.140348015388694 -0.7362425893230675 -1.3832984950771339
Ni 8.491670768990014 8.570009077059975 8.429460771220572 -0.03555141474204845 0.29062798827006076 -0.8901598803012347
Ni 4.562823349818649 8.460518583982232 11.019889226981393 -2.0261997552328785 1.0462798353576754 -1.7690249044149404
Ni 2.1793074452534924 1.8660663384145908 0.24156772185413966 -0.8169322911646512 -1.884430926691787 -2.1123507372993493
Ni 2.704054508851891 2.3206041884111666 9.11442948364994 2.363587368255981 3.716909114465366 -1.4600047867909371
Ni 6.087103312888406 2.1203574946793773 1.0826785858216144 0.9039651616154432 -0.18767021905889614 -3.537958534667655
Ni 8.945769461009576 8.827645308979466 5.787257458727115 0.8950033244364651 -3.579888599242538 0.34910027347434075
P 0.8932183595082367 7.309504213801165 4.423898994115526 -0.0016262227495133284 0.2175461806827221 -0.0778504326205756
P 4.800080782847326 7.152575315419129 12.5824600281321 0.713016014694959 0.1240410722440251 3.0210313021125903
P 4.6504961008468495 7.231502282054024 4.830910607212407 -1.1589095804409655 -0.3347900274992557 1.4620020197266241
P 4.332639163355925 3.201302808059797 10.495225323085023 -0.6229441003075271 -0.08844132076254446 0.27921254734426754
P 8.156546513594355 7.744093079097196 11.956815952125321 -0.8065270366709271 -0.038277555423959886 -0.7963603805505705
P 7.769610960697752 6.178588328908561 7.65876001226994 -0.9721436183638935 1.7977595533454718 0.2065662846324507
P 5.084701870886336 8.93674336301392 2.12080879957916 -0.48572432458969894 0.07514151832984478 -0.4644453606062647
P 2.499294766122274 2.0705831426888386 3.9549221904619234 0.5121994880620921 -1.0009417735425084 -0.35444636827760245
Ni 3.6074118113571116 5.020397930507345 8.820445921292455 0.09574273951996415 -0.6624930662447429 1.4590709621227582
Ni 0.02375564342045173 6.3744434428702075 13.127459749500257 -0.16969435130676583 -0.36806678727451453 0.7114733527981877
Ni 6.409566737244608 2.7630324907862414 4.94876752694161 0.506066892801793 -0.5892312814361143 -0.22917168073679242
Ni 6.421115657661411 9.110668609485085 12.05123211404738 1.2043175762621194 -0.4786771879349304 1.2536575601478281
Ni 3.960840544986197 9.498800167085047 13.363650122082657 0.4685984635426898 -1.3538897028977135 0.6974348724272506
Ni 5.964157766897884 3.661680524771989 9.248641767697567 -0.22292415716518382 -0.24373106660820604 -1.2086311160358088
Ni 2.8506304915204823 0.26468518463990887 2.3909965402331914 0.58868697889687 1.7190087203978135 -1.0370153793366141
Ni 5.194911835543443 0.8557376277380754 4.376581123660244 -1.087613661109456 -0.8955219159440965 -1.1378075083550274
Ni 7.900713632516647 5.444559129795972 4.015518516260505 0.8465220890066258 -1.0679143829083155 -0.3883391643703054
Ni 1.9270999534328377 2.9311645894755145 2.0048944531142396 -0.4769208673654561 1.9480078801124838 2.709372975534792
Ni 0.2943442325258426 6.701774980120547 9.366497753048096 0.2925306046094123 -1.56752986365781 -0.868684226925962
Ni 5.061949750162296 5.814311458868547 6.985867209829792 0.24025956311983784 0.2636272913115008 -0.7851616836212737
Ni 3.9726137162848794 6.997225516996996 0.9977136641921102 -0.252770551102655 0.6681626058256944 -0.6654809452284733
Ni 4.212823785924972 2.006073639001457 7.184368484197618 -1.7872434843054963 -0.30408539932654727 0.14752964228426851
Ni 6.199154003534275 1.1705055093311076 6.974120201133996 2.8697033691281546 -0.27382942865548326 -0.26630303837145103
Ni 0.43325644130619645 3.0307973875372975 12.196166393384878 1.7062452500845582 2.100557858429479 0.7446678372722854
Ni 8.478879124936128 1.5223925181472704 6.309418162154502 -0.4082567292298388 3.809470885154187 3.643639359236938
Ni 4.617391064409365 2.9030304475863624 2.5025351913654346 -3.0194516163302967 1.0825642716110064 1.6466298524147707
Ni 6.877335389272084 5.626370532279904 13.026834641286156 2.5162021383726407 4.539884526500304 1.76206955614303
Ni 5.999710875462554 4.55817948780639 11.55759892593111 -3.0657088475256233 -1.8877484211007942 -4.147687936057122
Ni 5.622259266112111 1.9266607954558232 12.154237084745427 0.08582316641340702 0.778606399001259 0.412663857158599
Ni 8.607655193855521 4.899947175577733 11.192898782351548 -0.004804106256862693 0.5487960562392032 -0.4346437038637998
Ni 5.74996079955583 6.149641277572595 9.229605670962007 0.8131923645062447 -1.0642814141414187 -1.0500151340303916
Ni 3.7930448226197435 9.12237637427655 6.021451998460787 0.473843513991713 -0.7442670022894408 0.9360095916454978
P 1.1720005152103055 4.172953847884118 9.98541336821981 -0.668201686593746 -0.21499976011178457 0.6013110954187838
P 0.32044329766193674 3.623800813307817 5.216698743096726 -0.812561158680149 -0.2698167079516644 0.2413003456795264
P 6.642722247892237 3.2794542403948577 2.9213218445183466 1.1418965908227365 1.7909438159752187 -1.1731542632854377
P 4.241705430753723 2.266157943048135 -0.060499150416433625 -0.834403451366221 0.9047848293032611 1.8740336426178628
P 7.39800856184967 3.6091497556916794 12.869947789944472 1.3408364692581811 -1.25658887486201 1.8012765653597949
P 8.590229031576124 7.2250083502662585 1.321987914419491 -0.9816351027940966 1.062108574859816 0.3596950182710515
P 5.345244020483519 3.7134170719789754 6.548098653904441 0.2412725777653845 0.2647035550948151 0.6031126674038968
P 1.6243519191085547 4.766788870674942 0.44977999378602923 0.10242040865045586 -0.05887440573870505 -0.7834066486033798
