# total energy = -340862.46111163206 ev
CRYSTAL
PRIMVEC
9.27354085803045 0.00000000000000 0.00000000000000
0.00000000000000 9.27354085803045 0.00000000000000
0.00000000000000 0.00000000000000 13.57276442960181
PRIMCOORD
 96 1
Ni 1.6565418286474203 3.593812277953151 9.465930387663521 0.6286902587626849 0.18186158279691908 -0.5428264689193296
Ni 1.8552923505141257 8.294987310974667 1.5904697066711273 -0.0754168834784185 0.23403106571162277 0.4447779640843243
Ni 2.150747353625046 0.4665852116924545 13.088013054097011 2.5122652652120796 -1.599648598569226 -1.2913039097456922
Ni 6.0255850055353015 3.0255946255483983 8.08548597350512 0.8052515123926132 1.1713457493217891 0.6631985769521997
Ni 8.54505760645141 0.7601354295667464 6.408299388802285 -1.184569961321547 -1.6226715418269602 0.5384116276810855
Ni 7.770039998950188 8.106307854185754 12.08831054112268 0.1299281271524214 -1.2469714063769042 0.8864310093864218
Ni 1.6985973352107604 2.2684471307588754 11.55555305321559 0.15156576002685512 0.18854645101626238 0.7158586263500768
Ni 8.649023269975471 3.928930214155892 8.867657190215375 -0.17694923309696622 0.2886392399748061 -0.3437788612614273
Ni 7.484915720053505 1.3054270349316115 8.601426822911225 3.6167448488389384 0.03604146700458954 1.5679188715661128
Ni 9.23238461415926 6.742884096421258 5.420894518000754 -0.6476714278508781 -0.33918635679473846 1.8363865216890505
Ni 7.564612527860637 0.6640374378769403 10.834404515631851 0.6354777139981636 0.8285613907631473 -0.0012436425991139873
Ni 4.467296339410172 4.165748620133405 6.850743719637918 -0.2327043764803992 0.6861796112284053 -0.16439222236756204
Ni 6.0429450735147 7.753496002542471 7.40519109162461 2.6359160439962217 0.03882571461794604 -0.4333216426182666
Ni 8.202214810939461 3.7605876318748956 0.5447722870919771 1.597271613696617 0.9541721214871374 1.7254107672694154
Ni 3.8309645313918064 3.13454018036783 2.0990139801048144 3.47562136719133 1.8110033057292552 1.676681163274196
Ni 2.9591404336999094 7.4493424183606765 11.065589245702588 1.4799187521060448 0.2186011043097977 1.0716800205983348
Ni 2.5769500054761068 0.4781984665699123 10.221811116808821 -1.2853276375575993 0.9994906429182787 0.6981486106648234
Ni 7.328675108238917 2.277915415698494 12.721113766947585 0.032507228599085954 -2.118342693216726 -0.8101672045266757
Ni 4.671444061898678 5.387027547775986 13.539945144307497 -1.0990517277430687 0.3694829508957508 0.848239843028681
Ni 5.647632585359887 1.6476299561430385 3.3153779312361342 -0.6172439645989563 1.571515330668119 -0.2308189865322283
Ni 1.912602831343551 5.980200297901125 13.512297010400562 1.948094783399335 -1.4305988228249944 0.6634806269689929
Ni 3.627428862582061 1.2951983196638355 5.7735691212433435 -0.05558365080257524 1.4825428199924533 -1.1112667817520216
Ni 7.096873687719125 3.367658443651016 10.690370665292308 -0.25110704735730305 -0.34067322575291004 -2.0518915035720275
Ni 0.4171776421515141 1.4063695242242156 0.2856714177913339 -3.4907057723282784 1.9082825364984037 -1.2111194296753014
P 3.82702327664221 0.6488232671894394 2.7439238131664196 0.053037230231637686 -0.8030133670907138 -0.06754056605413529
P 5.513731932820071 3.613258892564689 0.836046778106149 1.0437488414057057 -1.9622484491918977 -0.48552712097722833
P 9.21653613329559 2.0445838609818003 10.293855398923325 -0.5702853364612307 0.41800892352059615 0.2448602951166428
P 2.5260104470301465 5.633963386534229 9.34632768000118 0.8951570764055099 0.5374029839109132 0.5860577688041391
P 3.1301816162918055 7.343985723748525 6.117543288706942 -0.11103231868918295 -1.0937148889111872 -1.256593245737384
P 0.2536016597323828 8.189936643201895 4.016044927078794 -0.161396887184664 0.26278011281985714 -0.954551616313743
P 4.433531378131865 3.538848002892309 4.435864600943626 0.2245562934519681 -0.46034342262274913 0.29666211027928263
P 1.0670970418383707 3.7045476261059287 0.31439435505233376 -0.752906937352626 -0.2296473348216303 -1.1049066438619488
Ni 6.798404783917336 4.6099419407238 12.569750110127849 -0.9181355395785542 1.4064636203396872 0.28400894029164636
Ni 6.112320430648183 7.866345717949151 9.824129239033956 -0.4778078979560997 0.12317101093424594 0.16153135587999923
Ni 0.7686068088932317 1.4718963620139758 8.353710152035536 0.1725935272314318 -0.31990616840888775 -0.46015573209197524
Ni 4.216920017094047 8.232344544307551 1.1430018988993622 -2.5745165578428177 0.3745032869284776 0.8785523779692934
Ni 5.815956620559709 2.5791385610547057 5.746029487761281 0.9498853211863253 -0.02152321878375648 -0.9864350952859011
Ni 3.9404757721870625 5.478807778968353 3.7495307894326753 -1.1543749257954055 -1.0971889635027168 0.06730942387993569
Ni 6.155776241840203 7.586943213594821 0.6917031915109895 2.988536157698363 -2.1288315085631915 -2.9228850953574566
Ni 3.050707373458768 3.354573477882356 13.292038365849766 0.7473718664670096 -0.46288392965641567 0.49521452346832134
Ni 4.288678674158463 1.4314080838098866 0.663006220163634 1.5744011368563466 -1.099232476295307 -0.7929243582858279
Ni 8.5298953675912 7.586238424510188 9.7670014469541 -1.0708294996725816 -0.21749090196475446 -1.060402905022619
Ni 5.613524503079851 6.804154379081453 2.945941403382026 -0.7067157835085441 0.34742339999255006 0.16112512158051603
Ni 7.849236035565609 6.614807227370256 3.013275654232248 -0.445427167632549 3.4855144579353263 2.287525909215028
Ni 1.8648811914813792 4.058759782377891 2.31145502994053 -2.4510197881380367 2.2549790856272582 -0.3073411872596836
Ni 5.075779705044919 2.2802338008453154 12.022374740193023 -0.8346600474617174 1.5611447860670726 1.3646492554070626
Ni 0.6587403914934826 8.72613275995875 11.068168217339913 0.5346771003393179 1.2657291466003815 0.9752019455742431
Ni 4.120243356471595 8.868852549597076 7.188094724414078 0.5261942596792873 1.3356870638467577 1.696265256053711
Ni 8.101003388969826 3.081541895911492 6.512008175252077 -0.3232475740772949 1.1866065321356016 1.3463548279732491
Ni 2.0453906590128943 7.7457433226115 8.867493975901038 -0.9630326572015607 0.4774584850364809 -0.8260460805404614
Ni 8.461011508108841 4.637725468323307 2.8602019565282175 3.342035331571348 -2.569179976121253 -0.9979240697621072
Ni 2.779845799985329 4.7981020792398255 11.467506349463665 0.5892945305738819 0.10977762034647544 -1.1233458244037426
Ni 0.5963396642356964 4.295420538165421 4.768926593198166 0.4672496628242792 1.6319118294783055 0.6613700083838933
Ni 8.909517025072324 5.997207971338207 12.892809661504943 -1.4135012439127592 0.22904929622631517 -0.4553937919269576
Ni 5.504578948260419 9.158910352086197 11.920388977584349 -0.0763206262396105 0.46347502627319537 0.24471091402297213
Ni 6.364069236971226 4.420928636473744 3.2192827216085047 -3.4515530133882173 -1.1926445107995656 -0.23640316548822513
P 0.7237386374697676 4.910692135510059 7.160406714282618 -1.1159289631143814 -0.8596141463038938 -0.09369408452105155
P 2.9353445285529345 5.874417020421958 1.928038639651088 0.32651955996034737 1.8625143291243536 -0.36315623734677455
P 2.2486203009832586 2.4152565517961944 6.872080281821145 -1.966247285938646 0.8973453423060803 -1.230957547447151
P 6.098586317038413 0.9718299593851853 7.293229781406193 -2.3183909742250006 -1.7332693440818858 -2.9408419369461933
P 0.26711969984646905 0.6106487373618781 2.1753342917841167 0.03145693295770066 -4.429766749205591 -0.6007961034555782
P 4.749824026942416 7.345228378187221 12.64791585638402 -1.4729217519629212 0.6874013994506485 -0.5930030897737206
P 8.092573740575983 2.8641793780861042 4.40770085818004 -3.1219748691072042 1.4516433022001194 -0.6635582742844637
P 7.364053665579411 5.834809728573661 1.026312937689547 0.5737987489311279 -0.4593859438054863 -0.15520129989691336
Ni 0.07840129418708894 6.8135948433993105 1.391208212718062 0.8068993324086813 0.022681243647599648 0.26446289983891874
Ni 1.8012925236743615 0.35676145257940695 3.935571923924506 0.4801416882955989 0.7439582127997703 -0.2892280225987406
Ni 5.566266540247043 1.6414908722742554 9.949650320299103 -0.8410646654364805 -0.6663276094994847 -0.7379333467619291
Ni 2.452879305958812 2.726309650174929 4.051646049393384 1.01178617245618 0.2455328957036352 0.902913066201845
Ni 9.192740228148615 4.004926879268698 11.767803995469267 0.5529620146914348 -0.8926692769866499 -0.6408922001455156
Ni 5.51943516028125 0.2816596841332742 5.0735670382607925 1.5317015411052912 -2.627064507142863 0.6701935202127942
Ni 0.5637218399280366 2.11445071576641 5.184334843805626 2.5588680526722833 -2.390131951513729 1.9095434054886984
Ni 5.208864286013055 6.383988802152716 5.496141881034107 0.06558447076902899 0.24431547835676629 0.48148406125610627
Ni 2.522430860363454 5.222552031919888 6.156021990665767 0.2737970327556511 0.44744008429751975 -0.9969048844689733
Ni 6.528396376177928 8.903368667662953 2.315961043311892 -0.042592637859546006 1.2412812979706622 0.6805416962163376
Ni 2.1996467331418033 1.7302572027757535 1.685900003438649 -0.5100770424024506 -1.4412758429228663 0.13787232170016256
Ni 1.4637263727565772 6.341924022048788 3.7432192177089685 0.8315438704302388 0.08118721030329244 -1.6582828632726667
Ni 5.217229019622787 5.879322723392632 11.218744550563787 0.7238997514869985 0.9902084462854044 0.6829569905260496
Ni 0.9360619133400246 6.349055374760411 10.905526080457921 -0.4737437551890551 -1.1295069589091322 -0.30230465327704065
Ni 7.877715078709162 0.667297087393371 3.794836671971859 1.0890403662536536 0.028813067576950378 0.977221032886801
Ni 8.553134860302936 6.356427839527303 7.706533865654398 -1.2886718714394838 -0.016052425477172356 0.35017807991955174
Ni 3.518974805413756 7.9759404206096916 3.7444813465828983 0.3342899479343856 -0.2487190067411007 0.5775471602299665
Ni 3.4021467410951316 1.9295919576994585 8.486085307148743 1.6844636354330926 -0.38919611305396196 0.40479910969854155
Ni 4.830494556511214 4.6579325132630025 9.540051942869578 -0.8414197347830542 -1.4612078059601026 -2.059448489983679
Ni 4.130277327387037 6.594683644295846 8.027950145639425 -0.5435744028289478 -1.3185275213483356 0.3018673086293059
Ni 7.543394666996928 5.123260232851821 5.129283397463264 -0.8436437390175664 0.0938493791519932 1.319212206120186
Ni 7.056737804057352 1.9115549212571878 1.444277903436922 -0.12422310634784413 0.17482293078258276 0.6105745229985807
Ni 0.2231677542330288 2.37888572561286 2.8956676851502325 -0.496623488000706 3.60890606952081 -0.18362021735923859
Ni 1.887341706783785 9.121565804141197 6.388251848760691 -1.7909355884451026 -0.11508052061662763 0.44964351970674177
P 7.94929753850242 5.467540427154801 10.454909905656773 0.05876770495751169 0.5527110750228932 0.465667920159456
P 7.014311355870521 7.643196510797296 4.931337818919534 -0.9163424522338735 -0.13047011569882047 -0.1489254941905306
P 7.396205030795531 0.22183236438845966 0.10086644625978838 -0.5156769050877312 0.30391262119410883 -0.11715051577177889
P 4.344273549979241 9.190050901378301 9.504789304786424 1.3728955545762551 -2.0789045418257617 -0.8563676143421382
P 6.475973051238002 5.194267733128667 7.4043360711824615 -0.5767819999291679 0.22724001093171833 -0.5294911852630043
P 3.6981396095601147 2.894680053077687 10.41264481707616 -0.4164215244288183 0.3039239340480185 1.1725950483478578
P 0.06081680652547791 8.536581590354633 7.771777860456246 0.42291690234517487 -0.7371388758850917 0.28274729997040343
P 1.096169591579511 7.808599380712122 12.976594246002952 -0.6989731634486478 0.8303519070046667 -0.33778047758614727
