# total energy = -340867.0956886805 ev
CRYSTAL
PRIMVEC
9.22474156255650 0.00000000000000 0.00000000000000
0.00000000000000 9.22474156255650 0.00000000000000
0.00000000000000 0.00000000000000 13.50134172796578
PRIMCOORD
 96 1
Ni 8.628767806372156 8.727288045086596 3.5428874113789415 -0.15036376929895395 0.6642213617897592 -0.7455913775278191
Ni 8.097847036805597 0.2411753304349998 1.0034498482119096 2.543698801131013 1.061178863956695 -0.7610426790858829
Ni 3.271416185065106 6.264199054552529 6.554968439985336 -1.2320443527534266 -1.46897228039687 -0.5237216297690788
Ni 8.920029792998536 8.586675311123654 7.718069043570191 -0.6065512607718005 -1.4166403037623732 0.07128743469107722
Ni 7.701635166672272 1.1171254146589293 8.352389017605505 0.003584632027464794 2.011743470598232 1.0381302096673475
Ni 6.121953541352467 4.095739081275062 0.582227859052126 -0.33250765922298214 0.2717638043757062 0.10564688600755352
Ni 3.43078281840131 5.997096665790675 3.9246238172247465 0.4284393748253008 -0.4096986038826879 -1.1270734097669752
Ni 6.219625103853262 1.2857444636721544 12.957466663344476 0.20749008199830074 0.27680393790277485 0.3879838379134157
Ni 8.383048368297576 6.340727509643821 2.836874591721822 2.0154859683598 0.1352492822550187 2.1375431774045768
Ni 1.7344635621540356 0.7344176435381585 7.6177269184188505 -0.2500762920999435 -0.21800280860416651 0.6538019662286483
Ni 5.016829515323453 7.274631109569959 2.605030087266191 0.597822622649551 -0.023486770268030515 -1.5728445910025042
Ni 6.088661449449806 2.338748700493624 6.641323089672003 0.34015540557622714 0.13356700945658934 -0.365374585154332
Ni 5.807150014538894 5.058543796172394 3.8537012375142385 -0.4223805702257306 0.562204102114993 -2.221435445343858
Ni 0.7255997131835581 3.5026527790590065 6.460324437629304 -1.7619947370410365 0.08910132294404655 0.2882299203515294
Ni 9.031879783112073 5.3480530819227665 9.903126171669289 0.22706620435801536 -0.6829076253453529 0.5284645437707027
Ni 7.292554782212483 7.387089932619373 0.6905364709219864 -2.1978183201455503 1.1558327412878546 -0.9253906784790707
Ni 5.695724362532178 5.116327576631874 9.873153141741296 0.6414933240646242 -0.5652660288697684 -0.5759448487398533
Ni 3.892684072419047 0.07086446383935636 0.8527673864792423 0.3466906355915836 -1.0244398566644484 -0.43276294190131925
Ni 7.752601863198235 6.455031280983767 11.677661088219548 3.5380896609288808 1.1125618464143614 -0.003332406807342648
Ni 7.307148323190596 4.183540170421508 5.434654954680365 0.5564782553748093 0.14287054624570233 0.5088398275612398
Ni 4.485392160235543 6.712816680878431 0.12692229517304351 -0.7062041339794483 0.9677989682419524 2.6673305537517615
Ni 2.858415285487935 8.481291864768435 10.288009136824598 1.1340107603167566 -2.120009796506504 -0.681078285446098
Ni 7.697622404140364 3.5699011442489192 3.182279353356315 0.9025507977664198 1.769468162599946 -0.7170655021739843
Ni 1.5526531328635025 6.864775846828147 11.589214267171414 -0.0427769859562102 -1.0848970335092414 -0.8767865443181221
P 7.9277704786428504 6.655023675677498 8.632204022563274 1.8326800193717407 0.5367141853740046 0.6468324768893505
P 2.8612011574066396 9.295126229946714 5.455918906202899 -0.3385322681505073 -2.0216152211859892 1.7279785279965916
P 5.252881424355643 1.5821261818047605 4.675096200787119 1.188253066600089 0.2541527761621623 0.559500587140901
P 0.10990356966702573 5.059761462044145 12.28173866987645 1.2470814495922071 -0.813774719372276 -0.7885534829116418
P 0.000856978480952383 4.910744988617829 4.625316728486116 0.14939086386272338 0.2256896357254629 -0.8135204372696248
P 2.9296671884683034 2.767034996657857 10.86791881834967 -1.3665403017821884 1.8188711385131064 1.5796137914055375
P 7.393925466035796 8.651128579653411 12.237157339384021 -1.365427528333984 -1.6748322829909157 0.0745769040756264
P 8.853353361778687 2.189234091028864 1.6665242638293185 -0.3340122687929667 1.374695326789155 0.7335853542058786
Ni 4.257827013339802 1.194687040792919 7.184010016961435 -1.0620011027476741 0.281147045362819 0.28211095193798513
Ni 1.636432234736587 6.969098447916312 9.040539047913686 -1.0093899043098615 -0.28208189847226256 -1.1021609627960114
Ni 8.97700179621018 7.970029019237499 10.242522859195661 -0.23992249149539321 0.964924474907635 -0.27867133012881684
Ni 1.8225506182855136 0.4317317370968025 11.783822180279227 -1.2212657740806838 1.5178065282907536 0.8632825962944164
Ni 3.9616759137435125 6.252483632907648 11.385775509070967 -2.2086763459059764 2.025825659722911 -2.273351160376543
Ni 4.407452319701994 4.453013317736696 7.544023079160364 1.183615824938394 -0.336802172833278 0.944442038683567
Ni 2.1454257938701677 4.547410097021796 5.1314413930279175 -0.030159554302515802 0.21509514803906826 0.15988507852582787
Ni 0.5927929554378609 2.7166402341019595 11.414952443811595 1.5887916012500638 1.766916599822686 0.8740254366332172
Ni 7.014207433619833 6.711119328451141 4.939479135768728 -0.8324607258175535 1.4751920360543367 -0.9471895195217171
Ni 2.919409275972942 2.0486398065488287 5.005703554657396 0.45442268626293997 1.7857108497110539 -0.7121091866099736
Ni 7.994843573745163 1.5327738150330141 4.811338252249788 -2.9813293555372784 0.7891278673578732 -0.9767924299898144
Ni 7.603945154688572 3.10556455848768 10.122496058258484 -0.3853901090443105 0.27174966330831907 0.4449887945435497
Ni 3.6069292564399085 8.228395577843681 7.388771602986193 0.3755975484339209 1.7316143249769664 -0.019610832252392033
Ni 0.8126213116772535 1.1563213410912938 5.424285422813427 0.6398231354510528 -2.2003678260402815 3.0197974297054895
Ni 6.974125932008013 1.529351435954076 2.647275713222806 -0.7835488306081989 -0.9012431346985897 -0.3171388900763958
Ni 1.4273534697119825 7.820643556153077 6.452412376885356 1.089014912332357 0.6253262273864586 0.31350694975076326
Ni 6.243710903786165 8.959788428659511 7.0880155124567334 -0.08661300930455405 -0.2686013474873245 -0.4251141671068098
Ni 0.7382800427843884 2.2706516590900665 3.596865063515053 -0.09913633858254539 1.1159456752849295 -1.494171405370317
Ni 8.578612887094028 5.687366746776066 0.6676849413954498 1.7428839843535144 -2.548653831143443 -1.121599016915965
Ni 4.653393151571439 3.6677110778715036 5.198056940954177 -0.7528244049411487 0.022071892198374892 0.5738776817981793
Ni 6.355634691831323 7.443333181256259 9.980893509537674 -0.13991480605148807 0.5749909694670161 -0.572429379387427
Ni 6.19443233494604 8.812681476713896 3.9215861098643847 2.3952319917444553 0.989330414555825 0.5172329367209415
Ni 0.9371691584003816 4.222496253576103 2.3480453949296174 -0.4698549616576102 0.8908756754213367 1.0166311592533073
Ni 2.083822970449285 6.26153310427271 0.3556903483542117 -0.3511239887725888 0.5776371488406117 1.0135710322707447
P 6.615532557518648 5.803081903558269 1.9400618322285503 -1.678366007175787 -1.514357907620521 -0.38352734480395884
P 0.749239035630152 7.919053097970084 2.133590450586401 -1.4743489713277511 -1.2001685870907524 -1.7904473359547746
P 5.254588001524386 5.760574294944398 5.914505710616694 -2.098004495880006 -1.7109603961720405 -3.5630481306464317
P 8.035229491824921 8.699909012455093 5.507669705752338 -0.46995677734279706 -0.9389851293340538 2.577137797515749
P 6.118983174604709 -0.061003215226459725 1.4053008027952465 -2.653178173510779 -0.38172654414979423 0.8537510026548973
P 2.8660718208936458 7.567387504311669 2.3116860764939466 1.2649927826549892 -0.5037490433018937 -0.15291301808336888
P 2.3941893966241277 5.066237230543916 8.487011204469086 0.2656584628089167 -1.1199787077037229 -0.9456342592194552
P 8.169689323238934 2.4771936202151887 6.687673725575054 0.8787472675889187 -0.3275176622075585 1.2346758768390027
Ni 2.444233619004824 2.017340258799943 1.781515278407488 0.6525266990606504 0.23729405273361068 -0.1928561341352098
Ni 0.3132851343704657 8.253274705541513 12.839654722830083 -1.457377119360103 0.09988761492627313 1.7113491469700268
Ni 5.048894716612908 8.900085901977878 11.463786380113703 0.23322708175308868 -0.5218339258280625 0.4599446445224336
Ni 1.27062511243124 6.87656506640465 4.4382823281109385 -0.9821531800810955 -0.5955543954406647 -1.2998543704188645
Ni 4.005391963487682 6.66535538610448 9.018639511705064 0.8011675721312267 -0.9419398410870037 0.14776207001004873
Ni 4.287669051939167 0.5935078729004423 3.1102230529212744 -1.5161828766444017 -1.2004490944456487 -0.35152585219669785
Ni 4.874777721693897 2.0277549918999997 10.440236742750585 3.7994258422133593 0.8830412669785824 0.21941331579844792
Ni 4.941629423001344 2.819985012596142 2.753733841957262 -0.22253720613941028 1.615272678259728 0.07417066977614323
Ni 6.342323389915131 6.565036322806772 7.284905626599936 0.24594864308481515 1.5468767061838327 2.648581298168716
Ni 3.8978776018568957 4.844880334645817 1.6102238217954266 -0.48982523413195 0.021878288130330062 0.14561571309100727
Ni 2.127520570710549 4.723325916524077 10.617670954695976 -0.5931229031810366 0.23564777537943932 -0.13257713473949426
Ni 8.394625418820667 1.0317781067388923 11.487319618033592 -0.02907686276129831 -0.1822675599860861 -0.7678756428473162
Ni 7.688858899760334 4.560629151523462 7.758991841602494 0.193766304654305 -0.837142704674255 1.1438583425347977
Ni 8.74964881836785 6.382497138941478 6.250513228133358 0.9712941258794047 -0.26380006944393924 1.146148167010239
Ni 3.8128900588535126 1.6028172768830833 12.525572570798108 -0.5924605870066894 -0.17674534461627625 -0.3189096088235734
Ni 5.869942829607169 5.999827189260664 12.218228169923156 0.6662489337427493 -2.7394101453268305 0.3964345397839302
Ni 0.7386859314083056 3.0772815011938155 9.144958508787104 0.1263229262996663 -0.3851404549273496 -1.245771215421216
Ni 3.7605673253340086 4.294855125530791 12.361328816655881 0.6077365393291533 -1.6729126973706994 1.2412746131024428
Ni 2.6025301823325195 2.895203554401155 7.474976811861328 0.8748160508553128 1.0218785236951757 0.2424025776047697
Ni 3.0707688337282355 1.3145994549360838 9.50973707242048 -1.8177966745020049 -0.6492462285371657 -3.126709555578712
Ni 4.43282958343827 7.8735935720913615 4.851801658157749 -0.9621672238774719 -0.30807523721223073 1.9344391402891137
Ni 7.929181864085107 3.1708572784896276 12.898938446249767 0.5777284230028372 0.12419302444085709 -0.2693233132550136
Ni 1.5834637693153966 3.8669378190246646 0.24617237287990731 0.02741104502310118 0.2969390180897531 -1.8339218621986417
Ni 1.8301794794668658 0.03223401405803995 3.500398252247976 0.9420421709928228 0.10471897487664546 -0.47443615327038946
P 2.917103090609777 3.725928421179259 3.3500202069832463 0.3021588717277957 -0.12680372259082676 -0.5759936996999176
P 4.298683393233646 2.869346604109341 0.5853670385684673 0.15533911102635828 0.11994453357714827 1.2230912573251966
P 3.21163986045185 8.028283261511065 12.541571962373608 -1.0532022735091215 0.6534224714020425 -0.29322274558043043
P 5.978001450983663 3.1961699690357346 8.651646087648906 -0.43912307979139215 -0.21027484383228948 0.3168172450709189
P 4.758296911371122 8.89389610046314 9.214341479149164 0.4054177171191469 0.14253630283473517 -0.8276591906638521
P 0.6124471895769045 0.7574601252127652 9.647978125355941 -0.30610294397720833 -0.04917620461433466 -0.5679402332678218
P 0.982361166776977 1.739896934869654 13.468992414006813 0.24825723661333376 -0.6809975528068336 -0.5174082859565412
P 5.894858856270813 3.747735709973355 11.529929621277587 0.9857478394108894 0.012200398720933826 1.5538464526334463
