# total energy = -340891.4246980025 ev
CRYSTAL
PRIMVEC
9.07373004722878 0.00000000000000 0.00000000000000

0.00000000000000 9.07373004722878 0.00000000000000

0.00000000000000 0.00000000000000 13.28032111081049

PRIMCOORD
 96 1
Ni 6.247952813635914 2.0764051869568525 11.805209658555096 1.208833204744286 -0.3785700007986835 -1.4304934075953815
Ni 4.691590322921618 0.3926375437952701 6.140953572929068 -0.19690870693802864 -0.6018847085340667 -0.9790763409279847
Ni 2.724124340178263 1.549167022703192 4.933427008443841 0.500062595589242 0.5227762351366738 -1.1986570355422324
Ni 3.336646494137292 4.585781555610809 4.888831439489277 0.7116810979336196 -1.095286090053049 -0.8453242120437828
Ni 5.14557626365241 4.4335334373784026 2.743688209760532 0.0719410091146761 0.49143217360775365 0.144163554025513
Ni 7.3538953395694335 6.182295302250867 2.4051328197944897 -1.8229283393016156 0.32824734128473143 0.6154441923860561
Ni 4.941235860613268 4.511340673437934 11.423732802847669 0.5778088985317855 -0.13892698821692204 0.003020531993878669
Ni 5.678131633775562 7.606217627656134 12.342279209429224 0.02689888127337303 0.6644054527761074 0.8189765752881895
Ni 1.8564488943248871 6.5735273252454824 0.4530740308504439 -0.22179107200200512 -0.4144636293714991 -0.7377477131136843
Ni 2.913175507910081 1.926316616500793 0.2483180509703068 -0.4556650433104733 -0.9542317710804792 0.5767115517025487
Ni 0.5808747979323895 0.22502578566828726 4.5870092313004704 -1.3370808588704908 -0.48793341642587573 0.16727802855578933
Ni 8.601878037313556 2.5255094608654836 1.4892422940286314 0.32662703207248905 0.16876952549965127 -0.6598129483094185
Ni 6.89910183685505 0.7356780785757998 4.898379725728979 -1.084638637641532 -0.06565954698133854 -0.35411263908726753
Ni 0.8171002887281729 7.405915034534949 2.6196094867872297 -0.8851922518833142 0.7054559429595141 -0.0753592907676057
Ni 7.491552899716274 3.90692136050528 3.9469646390422266 0.4889991386862288 0.3758011798042947 0.0140770469183564
Ni 7.802373526097528 3.8404199922160314 12.502718183870487 -0.31568441701805633 0.15531519976695832 0.03787723466174767
Ni 8.028064416186009 8.73794769468367 7.004612078443836 0.6790586839129079 0.8979220407451568 0.5429426827822198
Ni 6.723316462606502 0.8830127719305102 0.5777661379820693 1.5280498032853167 -0.2558332491883788 -1.6437034227965952
Ni 1.8147823254636195 6.475050131898066 9.203103397232455 1.476731612627315 0.35135590227773683 -0.42431661090617895
Ni 9.273080004170193 5.0734219614780205 1.6969463288353857 0.02649110431199309 -1.2499150623862603 -0.8910371406998654
Ni 6.437357856843688 1.9620852607627957 7.00851650452855 0.21579731631241544 -0.4742068108684026 0.9906632744346359
Ni 3.33961360389723 4.395695982641581 0.576939521165157 0.5590660707066437 0.2320266336870843 -0.7806653384128168
Ni 6.057994272888825 5.776772154265727 4.809720308406801 -0.07526107462684457 -0.16162314426285715 0.23861071466250522
Ni 5.366449003029801 2.662314090377968 9.249916585836342 -0.41412475797484155 -0.1538722966728447 -0.029371254073265546
P 0.28351867972474953 5.607447275885911 12.386037273090691 0.5705349905781917 -0.7615615277038303 -0.047550238975137465
P 3.9208949049404613 6.148776943066738 12.66415436125553 0.39812452589184333 0.47107392166637574 0.2239068327934273
P 2.232818147329354 8.540240188386163 1.5535187836844342 0.8258213661241649 0.35378045255882945 -2.15359817398491
P 6.391716994175532 7.820076373625475 6.021324607222657 -2.369018566573881 0.25635415468885525 -0.47199617637032903
P 4.684295043878836 0.7937091197674888 12.697753476638018 1.0169057530709324 1.0883022025360483 0.9233366241635195
P 3.8480872941950754 6.24282615609963 8.137928233502068 1.0654844333105844 0.11498256158618261 0.8177241909383272
P 4.6540160063592255 1.1556030510593298 3.8141615245270892 0.7956193886194879 -0.3833160001241011 0.571497611601777
P -0.09864959422031795 5.933094377336702 3.7863260425376053 0.8258655890985389 -2.8666370714980047 0.5182901743408622
Ni 1.3973090748673531 1.151737642014273 2.5577239250266675 0.06423464160935388 0.4601482758928075 -0.5915517020391747
Ni 1.8236564335529748 6.325270068267199 4.799760074818166 -0.05706306356157914 1.8858519754090295 -0.7422574280585797
Ni 5.792088610763511 5.30442098370584 9.066488408680161 1.0824154047379682 0.6607611711553008 0.20458473542604766
Ni 8.758545062130334 2.306868859105662 10.474401951976994 -0.4113754773644786 0.46712393587969225 -0.6295317808273738
Ni 2.4756583874064675 5.222203914792089 6.986431952709856 -1.4146240446632927 -0.5729834521186843 0.26098625414422794
Ni 0.8580836057089409 0.01071879742940228 9.42527005052962 -1.1595132754632353 -0.058203862034241695 -1.1277498670087094
Ni 1.3708772989324942 0.9298395711296268 11.571449500241807 0.6385288421196617 1.038166976442554 0.09305259428231072
Ni 4.012013303134026 7.166404853423883 1.4314190412574397 1.020223761700572 -0.7158138891550705 0.0622003847881445
Ni 5.3728278353271595 7.875054104620776 8.030729370731862 0.9280396860661437 -1.0036686855553683 0.8441034522628044
Ni 5.018271829609818 2.9082938410879207 5.2564309323011456 1.417149639298624 -0.45250952840062714 -2.696729061518536
Ni 0.9422615077086938 7.382495737010792 6.983257961902438 -0.6509706674274403 -0.3020830241845378 0.06789717806260565
Ni 4.989226819390977 4.586071914975695 6.8890871608854996 0.38336125153973977 1.1592659353391195 0.36398696077818604
Ni 8.48502654040689 7.126117491545828 9.159968698832479 -0.51149963378159 0.45423679550437895 -0.3281110728171833
Ni 4.586707076086385 0.22524174044592188 10.63651502963143 0.40071336966494214 -0.6323463674580335 -1.21915078462021
Ni 7.867940300181047 7.474448918378406 4.6010335886245075 0.9538023968525444 0.9376255299823658 -0.0013398018573460796
Ni 7.386007270579893 6.178910800903905 7.017189175808515 -0.34957207090443665 -0.8778270697674946 0.5082826695061892
Ni 2.3744681487433885 5.348927630104908 2.633819855579397 0.9902444417296624 -0.10345116390781539 0.41099264010376313
Ni 2.3659388423998364 5.453701992178308 11.353718086243287 -0.25978477763695906 -0.9807251893853173 0.5371214481147524
Ni 0.8806281956463767 3.2889549684546218 3.6891536515861496 0.3115346565157409 0.8006394675418986 0.9942916152158424
Ni 3.639028551476521 2.593798353994817 2.5072984844489845 0.8645311239895369 -0.003246017741123442 0.8591698596776235
Ni 0.9950706171974952 3.206955669064536 8.238832649665335 0.6396696405923241 0.05017456397186197 -0.7702251169160993
Ni 3.741398375059452 2.6534581297489184 7.039167564984421 -1.6069240491847163 -0.7171698889623326 1.413571177918746
Ni 4.006033714963387 6.947718883013298 5.707563184898909 0.3067734876816717 0.7306031316491031 0.49923495748162416
Ni 0.8583059120976825 7.459568000927954 11.299827388120281 -0.05811541608549346 -0.029670787591555354 0.479807959105264
P 0.21160483139940645 5.434483831714858 8.023106530030566 0.10729933400931196 0.09862571749471402 0.6189660894963857
P 8.690455791064359 1.4001763735956112 8.294543538056976 -0.06641596553138884 1.0037586741660132 -1.1807906967847728
P 2.0496195355460376 3.1611968479043937 10.647232012314802 -0.44707318787640415 -0.03139651203341044 -0.7240473328084562
P 4.26201271630163 6.249440905380959 3.553920592136115 -0.819413405715292 -0.10475805564469702 0.21745002142449002
P 6.8438791151456275 3.753112560686607 10.391638644508047 0.42751352057692177 0.9503236942753247 0.9399395228275231
P 6.565805580885521 7.583097763227016 10.162739283437567 -1.6653472263186158 1.2642762162039387 -1.0076785780457096
P 2.19961736870057 8.472931258113322 5.593578079347487 1.6753256776875665 -0.4096824059327719 0.73157295176154
P 7.027413454944594 4.152175212803015 1.5709294571014638 0.06415005231534758 -0.2670211474843982 -0.45041073689006944
Ni 5.347158252725127 3.01821300815791 0.5569382977895272 -0.5145291646365332 -0.07627306083112671 -0.5363208065903279
Ni 1.5884472005342956 1.0850729465822757 6.947255215402494 -1.5276787930991431 0.8063275190656112 0.42729060593283824
Ni 7.0393544838255675 0.6859195571643409 9.513132794344392 -1.0324845813457961 -0.552498701901771 -0.9025479695529424
Ni 2.7509462865096888 1.6081553424259927 9.119981677422478 0.4662189075669197 0.051039740185634674 1.0754883386008318
Ni 6.298312015983482 2.2183274002754683 2.5666080142191907 0.32014708077510023 -0.7468206219492299 1.3043507156273215
Ni 4.424060463098968 6.630637382826671 10.484481958803645 -0.6610851301536228 1.4998201190156621 -0.8800528737742198
Ni 8.078550650755716 7.005210037260901 0.1715415906561237 0.09809118514748268 -0.20032930258380338 0.1488848707605823
Ni 7.632431634067328 3.6998225434997116 8.351423122892285 0.4883987860980685 -0.041671154486541136 -0.31837687624855493
Ni 2.9649320647011677 8.56689880757484 12.627925678874787 0.579315307873983 -0.8313893471302456 0.03726171256493582
Ni 9.50119358020945 4.670539268967319 10.077253856922809 -0.6857569218686899 0.10940969548409545 1.0815782535486533
Ni 8.616468595399121 2.2005519629063 5.873952711574321 0.6635024813458638 1.0716833630324445 0.23730073760183
Ni 3.9432979446875147 2.4722738860595044 11.459111276713102 -1.1033025325996226 -0.10333315027271235 -0.7225303819432976
Ni 1.0919054653872702 3.487751322370456 12.735947528969843 0.5172409071407414 -0.1251340481978877 -0.1452228485279628
Ni 2.8715996763503404 8.530531297122758 7.891684437244671 1.4441505933674998 -1.2676567026403975 0.3962504487975821
Ni 5.622219308574532 8.004944551756891 3.468806281184602 -0.20495703116380187 0.08566941444436213 0.18824486061544354
Ni 3.1112822583343087 8.47048135097209 3.4428173032811955 0.5408750016199136 -0.26751171396757156 1.8130769004288323
Ni 3.548173291457385 4.261695135746285 9.251483619033715 -0.9156346275335715 -0.12091898167527562 0.05743253108585593
Ni 7.547855395313871 6.100931163971472 11.167329150938277 -0.08661326641487019 -2.0516230804019893 0.9477302225165355
Ni 0.5225778964472259 -0.29487808250293346 0.2753804511507794 -0.3289448815723883 1.212307022225499 0.2079158566818097
Ni 4.7438640823314095 0.42808588538288195 1.6210491129730007 -1.209401161432614 -0.02478646291606054 0.32915545492129766
Ni 5.957684186050559 5.391537866902057 0.11504945409833513 0.06947634962426745 0.6570184162834168 0.8748433045488223
Ni 7.826291878780085 8.780058876322421 11.555911644728297 0.5338877716688032 0.32508282751382084 0.6641874232280303
Ni 9.319083816044458 5.099472640746465 5.9094110342651 -1.2514263568244641 -1.7616782342418822 -0.8364351370842692
Ni 7.7879825900753215 8.9504272336698 2.567032664790338 1.0795488818234504 0.24820170078505 0.24715731868093566
P 8.329820386144702 1.764332385814524 3.587320085455244 0.07943808882266964 0.04464463529256827 0.13119465256967083
P 1.858200124244361 3.299271799638259 1.7181017306864408 -2.0509101134953647 0.3506197954426607 -0.7227949484585938
P 4.735234964956178 0.8219338647805242 8.273308287380576 -0.11988514109412257 1.683468618509675 0.21191726453171889
P 8.58768672335471 1.6320374001879385 12.548602222506736 -0.631221509824971 -0.30121939063266184 1.1788819097978342
P 6.468390013965974 7.875181136842913 1.2660067553194747 -1.521346423123212 -0.11532914629232396 0.07195463596143092
P 1.728917617028477 3.339051032627762 5.935533396001752 0.2911275536142986 -1.0137371255349636 0.10736335447802799
P 6.995573735838717 3.9643308511815083 6.1442863540141595 -0.5337286203831195 0.27524173562197757 -0.37506095920416055
P 2.669600295690598 8.355172388191386 10.249632045499013 -0.3084398196405011 -0.2517297685429664 0.5805442951850776
