# total energy = -340888.6791421609 ev
CRYSTAL
PRIMVEC
9.07058937276378 0.00000000000000 0.00000000000000
0.00000000000000 9.07058937276378 0.00000000000000
0.00000000000000 0.00000000000000 13.27572441626942
PRIMCOORD
 96 1
Ni 6.473480163177709 1.8354337824887546 11.214071372123604 -0.46063858526566476 0.8653831875771871 1.0450315647728712
Ni 4.95352148301146 0.4140016594371546 6.004703027952597 -0.7971029151435498 -0.7577375259720499 -0.652553695643844
Ni 2.857943194064699 1.6202521881127687 4.862804703444241 0.2257886231971724 -0.5851206017018504 -1.1094497831479408
Ni 3.579925834791039 4.552755627752251 4.711873722633271 -0.07936506949288913 1.0978602785381286 1.314817162376284
Ni 3.4083284228952033 3.078367589163583 2.9777448188187225 2.993175713352903 -1.3349298739657591 -1.9640790746427337
Ni 5.006756772704697 4.799185402907451 2.33648770334079 1.321729059004769 0.2918839721643489 1.6161057156839846
Ni 5.417010464566243 4.4547388377667145 11.317236628701385 1.0002889704498579 0.0991713055855389 0.5123154448146661
Ni 5.879991493109811 8.344271103482827 12.101447141537365 -1.0433546912910805 -0.5053806653680457 0.37984372530478455
Ni 1.4522195178849249 6.7134788903873455 0.44075808430290864 0.7303164536466197 -0.08577945765966517 -0.03275842537794359
Ni 2.768244134637808 1.7219153550716715 0.04405041077973011 1.2523321564681853 -0.41651536969420533 1.6521343271727678
Ni 8.33872897330689 8.832368594313083 7.011189243201551 -0.46129781611621845 -1.2157031923912418 -1.4337144856358406
Ni 8.623182659587332 2.470737870087037 1.1972806227329251 0.7135279213343712 -0.5462303523945561 1.4320252708588757
Ni 6.858680886878968 1.0485964269376327 4.733964236267435 0.7772568269519001 -0.8681031576115115 -1.315928650272908
Ni 0.9104604196555905 7.9389880946596 2.5695301954736256 -0.28659829828537736 -0.7579604406161333 0.5972436102176295
Ni 7.682090859237576 4.01503294184418 3.598531427944688 1.7291049282915514 -0.253184498711622 -0.20619450311532875
Ni 7.678979647043883 3.8718899691658746 12.697195295446223 -0.6060555520823047 0.6756100632426751 -1.1669046828312999
Ni 8.045159344593037 7.169384859131846 8.885256480429007 1.188552857228695 -0.3794529176242691 -0.16229214530542374
Ni 6.919326848182254 0.7871720603031546 0.42465415972949355 -0.6513738164031299 0.33402769541193444 -1.5508012380492193
Ni 2.2408982031017013 6.632641796888261 9.191607476787562 -0.39864363162010696 -0.14893217905874995 -0.928246145649995
Ni 0.05092047525641399 4.872675318922888 1.2030359117617817 -0.10752327709465997 0.02498006698410537 0.10681776638720314
Ni 6.628287913934988 2.299630270023444 6.621984761301179 -0.27958278619949267 0.2509823488539807 1.4635228272465246
Ni 3.514508743418126 4.939371363413326 0.7022822274217325 -1.7288323913564547 -1.0823999781190003 -1.4812420989031587
Ni 6.300857774669957 5.811771589585729 4.471887694248914 -1.023530971696934 -0.359652080848258 1.2135555499206196
Ni 5.478309508312518 3.190443792852395 8.841712208542594 -0.08756020370917178 0.013764143663627909 0.5904816089034476
P 0.008946322410025494 5.726099871890615 12.24142629260296 1.0238161070375205 -0.7317932953024623 1.0493111659848318
P 4.030307814538576 6.042989986172933 12.212790441595711 1.6459050584336044 -0.8192221156400924 0.535874977302161
P 2.3590244899776645 8.694559128252536 1.0219597338530937 1.1988213290342384 -0.8663370668500241 -0.14011252388459097
P 6.677586567791308 7.96122918007923 5.846071116668027 -0.7431799398728491 0.3093667023301446 -1.4630533438092737
P 4.69675123584224 1.1811721628647671 12.570372127371098 1.1384117175979296 0.706779289756628 -1.3903453746215861
P 4.2463692560947015 5.989428155258201 8.142439602712312 -0.794730044035999 1.4208581984984625 -1.177529766645314
P 4.762785127300199 1.3442795030017218 3.514854332877542 0.014988245878716123 -0.5780485253464174 0.8902899781211957
P 0.19923096276488386 5.8922095771474305 3.113090712774876 1.0057083416932162 0.07773961807432418 1.4920723567494432
Ni 0.8825075840366352 0.07254476059099857 4.83442192188365 -0.26434025821812546 0.36007348465639283 -0.24657727780774955
Ni 2.0866074759451227 6.756691178698571 4.838563553042951 0.01734749013951206 -0.3746606384419483 -1.2891164151760701
Ni 6.180028452127171 5.571074426985672 8.887088739505176 0.2669321873150177 0.729621227351808 0.9624801271322005
Ni 8.713661789710017 2.344420840905231 10.127744921160074 1.2781987398223018 0.2679326035550741 0.20723991366070763
Ni 2.5308758783791068 4.975345321314735 7.078696198392034 -0.15315341622894915 0.6694358161111632 -0.11176251198698818
Ni 0.47868312600275414 9.08492101737132 9.027718251836914 1.109545685295857 0.4390603448742567 0.8612108013670523
Ni 1.5867545011410318 0.9479763777696182 11.577493610469016 -1.2357058607654139 0.544928602863997 -1.266012482168755
Ni 4.145114265662668 7.150137068242589 1.1725650805015173 -0.4444838298826732 0.09016293143934151 0.35989942097237376
Ni 5.690688290537335 7.891821029332485 7.782190256569095 0.5583551606825481 -0.10761635102909854 1.6483049261243483
Ni 5.585669005468619 3.275634769304751 4.522495234168062 -0.22656098258682272 -0.6350462828876998 -0.18204773066579613
Ni 1.36381755275453 7.495164151110429 6.929914947289243 -0.32102074162930516 1.1515989057121652 0.3164884009765904
Ni 5.224623261568532 4.54941765082141 6.782355504590212 0.7773830681171192 1.9797916002819838 -0.4580947357978885
Ni 0.6994331552641851 7.400240432139611 10.920411944573837 -0.21813547752728882 -0.5242224806648971 0.08002198635059767
Ni 4.545390309089633 0.410464129537621 10.128674656582387 0.3059198814321248 -0.41310557268170794 0.14955978534041986
Ni 8.561466368724702 7.2969627002522035 4.645017128708932 -0.7240162224602047 -0.14045859437010005 -0.009952997447653827
Ni 7.5319272502971195 6.169588203628805 6.673879417868387 -0.06786812459688311 0.8549781901937792 0.5692882626552841
Ni 2.283874656086291 5.270810703231161 2.7734978200680898 -0.5599531012972873 1.2673206594572173 -0.4993357447255465
Ni 2.092503359111012 5.5204151847064535 11.516584602070637 -0.20561060558740074 -1.2944419411540415 -0.27045331309439874
Ni 1.315199193109659 3.1542702819822925 3.504193669054666 -3.931655878026081 0.3420410526347141 1.520682307176652
Ni 1.856078444158853 1.08629379684138 2.4704793582866857 -0.71850429150304 1.168824268451516 0.00580375116597065
Ni 1.0704384064198809 3.09226373225611 7.958106176119206 -0.2933638991439851 1.5043372901597252 0.6206874430628665
Ni 4.181160788279967 2.66311600249526 6.441992518836066 -1.7430855588413594 -0.4422852795694577 0.7301827562822327
Ni 4.417821538558762 6.968843196186238 5.86169702117553 -0.0687826659913525 -0.1756027463714008 -0.17160956605160765
Ni 0.3812323408011421 0.09700723337574738 0.4124950345235327 0.02804507906267428 1.2861784155936686 -0.20614488082431595
P 0.4204653615048664 5.863247184918685 7.751323947607242 0.39130673163906154 -2.0200483909195017 0.9629858631240253
P 8.486679358412767 1.7104773417298462 7.639860915767683 1.2916037003742982 1.0129341700176941 0.9981043040937132
P 1.8383726534822131 3.295354230847279 10.449933166761154 0.13921957975667637 0.07382022841525997 -0.6994480462025373
P 4.139989382603088 6.448663030344058 3.5543630995016398 0.17830883244865423 -0.35129599557407887 0.42072812222397216
P 7.1434157614334755 3.918394881460512 10.030487339514513 -0.0033941132832135093 0.10220083644048207 1.405344933354212
P 6.629639431768401 8.138196380950768 10.023411372656497 -1.926592133440869 -0.5123907781372917 0.8462796339785167
P 2.816445247166324 8.707502859449034 5.754123458107561 0.33742823645305114 -0.6497985014962099 0.5496910572496468
P 6.972816114381098 4.0740280558610165 1.5726025674250004 -0.881854702869649 0.25292893105739017 -1.3543365606271451
Ni 5.007573125758435 3.046557031836239 0.6112198583950986 0.46005700173058184 -0.3528011193646956 -0.9485246933933728
Ni 1.6281889539130041 1.0625651347460472 7.120288479421064 -0.40004976793901426 -0.6019798393510343 -1.5127280853265819
Ni 7.114988533984404 0.9346698229936803 9.106602447419666 -1.410349842767971 -0.36507890829078415 -1.1981597841908396
Ni 3.0370873364128723 1.994305157335755 8.801088666470669 -0.10060932358364609 -0.08622117318277409 -0.5074252066019002
Ni 6.406031259759936 2.054760636259835 2.329743720057961 0.3461669018776296 0.28679961566290607 0.9961803475981232
Ni 4.486268206819993 6.95239821744815 10.28417267919955 0.6624491003806849 0.807952456263544 -0.3354430877022223
Ni 8.16224251367811 7.308618407741693 0.2680486181360918 -1.0075199409806583 -0.3467096617549771 -0.34899640090662476
Ni 7.875584674152575 4.149041830910099 7.976347131575519 0.6916519471968863 -0.5409804168495264 -0.19976520255021724
Ni 2.9769311869418296 7.862713507671965 12.204360235727437 0.13959418948727573 1.4665937528623645 -0.03902009001693925
Ni 0.22732439252087183 4.790296225211187 9.972179776180715 -0.2856163939880823 0.8535340015480849 0.013194130092770824
Ni 8.79529709508387 2.441866183753151 5.537915073001762 0.8420396277552402 0.34683770269240916 0.19735942132220205
Ni 3.904181267735976 2.68718934699106 10.73461815307349 0.4785995406194596 -1.2014261136469373 2.9866826494293917
Ni 1.198651188804257 3.151685163978787 12.636989257733006 -1.5164369016367367 1.5152392817842097 -0.8961410375853339
Ni 3.3336684008360735 8.696092057875667 8.015763378186861 0.28272544559353247 -0.2947211845028279 0.26857949311045354
Ni 5.912981227070333 8.034056943062192 3.735390296227104 -1.1645595796378911 0.4831581065244195 -0.07916272367409592
Ni 3.3167971043921445 8.49565924200389 3.4051174342171655 0.5716948152142477 -0.0390483721517134 0.4040583748777751
Ni 3.686813661293868 4.709840096470513 9.743333338744094 -1.031296988795598 -0.28926118982952115 -0.4363989959920097
Ni 7.3577628615767505 6.399781623604093 11.308262187463951 -1.0785628637610973 -0.5117081502479703 -1.00058901818878
Ni 7.6582624206578975 8.954730846479 2.420257318420693 1.7499468047375668 0.0801176313881975 0.9581647875862983
Ni 4.473387969749896 0.44753290758998965 1.3781527123781785 0.5147212260426812 0.4431352862745787 0.4152254472381881
Ni 5.961771927915437 5.726970648481269 0.10021822205378553 0.29480140292146007 0.3074265478846383 0.48200419542563444
Ni 8.235868488535838 8.96566090680961 11.327246931258117 -0.7632384011856209 0.9190714211292622 0.25585073268987546
Ni 0.30640995519021313 4.8961318633336415 5.48376365377044 0.43383869146400117 0.608339720130791 -0.11415080971350663
Ni 7.289488534515754 6.319289212505476 2.421665073908917 -0.18399534131047024 -0.49853587453207043 -0.7429793938262689
P 8.759368490129889 1.4809007218396046 3.5895832914167656 0.12898376096128109 0.0613884304098104 -1.3164356718163135
P 1.8721787404964736 3.4669969956905446 1.4283883581284007 0.38185047132216815 -0.2911406662404212 -0.684555188251105
P 5.054205026305876 1.3269456064940073 7.986449954145008 -0.7126866563799984 -1.512852526719588 0.26248983527294795
P 8.462070849137294 1.797808977300895 12.382905719169534 0.2733789713816259 -0.7041397952512519 -0.18773166842445088
P 6.245427402321113 7.835229621529434 1.2053870085565486 -0.7416784156266581 0.02948875348773631 -0.47298425131521127
P 1.8671627045107246 3.3386753662323363 5.721173634740778 0.6611987729133516 -0.010601686775246259 0.8788359706479834
P 7.251646035180229 4.249489538877881 5.845846166048775 -0.7290458144643122 -0.5434656451652252 -1.6018723456934219
P 2.3781725043825754 8.63818541459715 10.20860741230972 1.1100804747534043 -0.351530223072072 -1.6618903781182666
