# total energy = -340870.856558262 ev
CRYSTAL
PRIMVEC
9.23612446108353 0.00000000000000 0.00000000000000

0.00000000000000 9.23612446108353 0.00000000000000

0.00000000000000 0.00000000000000 13.51800175056642

PRIMCOORD
 96 1
Ni 6.350482179940206 1.662687147538194 11.194054613181537 -1.7382194889983096 0.04389181628694376 -0.3575499469035907
Ni 3.068757809645873 8.037035473402401 0.1833527743960891 0.3863645571424378 0.5314884181986911 -0.021910941140478393
Ni 7.004880078936852 8.551783168695138 11.561406690694565 0.8442484624811007 -0.29680249251188884 0.9555674591727674
Ni 5.713771459521139 1.3344352798373416 3.843844148576313 1.2929332178189992 -0.11127245972444706 0.41793513285986733
Ni 0.22479341817774873 2.6608258951623744 8.871174822082951 -0.981564140346845 -0.7486101097494849 0.34339011046344087
Ni 4.953204308436106 6.220973241029082 6.789051243279937 0.9744079889180379 -2.0922601371970613 -0.2822865582839009
Ni 3.864219039407716 4.5397768998253705 8.077803727314375 -0.9065336936735677 -0.4510134034710748 -0.6658211021767114
Ni 1.9778052460811784 4.893317276636097 3.2180957844255103 -1.5338957205431323 1.1707669940001837 0.10948708568925015
Ni 2.364881991254927 2.803791867591792 2.5386809183817483 0.7672809466861108 -1.4411758270098924 -2.5103099412579217
Ni 5.017460027164154 4.76742889856174 12.476953241454893 -0.5825361288041259 -1.420177370381354 0.2643623697053125
Ni -0.2620898128587507 5.932898515266854 1.606925892589675 0.7999894926627255 -0.4983962636304126 1.8996464580899608
Ni 1.9360117823404255 8.61903139178827 10.581999727338365 1.711851283417426 0.31380082684209826 -1.679755688434462
Ni 3.0282296949730725 6.8848566399730755 2.3604458806174273 0.4503279473682761 1.3307577448659405 0.15770786836885098
Ni 4.404753994537842 8.432720286688056 4.153067752410049 0.4592147083349446 -0.30305387273823936 -0.46497475074717337
Ni 2.831056907362555 0.5423166035623007 5.299691980514802 -0.8804953606282773 -0.07521659454215433 0.06704048648926518
Ni 6.280463119471996 3.729620995851033 3.324820127601372 0.15890368844916505 -0.6314724494935126 -0.39416914078852117
Ni 3.882885247191155 2.5493366353138383 4.455777117574978 -1.0855351813138725 1.3433713198648929 -0.7158272588915091
Ni 3.3156486558898655 6.902368332183566 9.133167655633574 1.5841906121429425 0.6839466081328285 0.16458196978086495
Ni 6.708732980288564 1.0101364734582667 6.717405701272557 0.6042213270870432 -0.6014743604695254 0.7169667718125909
Ni 6.388747444090027 6.907272714337454 8.674569132521865 0.557141342880105 0.3469924831027185 0.6057889286844793
Ni 0.7462631649424244 2.1324087354859214 12.805332567674999 0.39347237183181266 0.9959538334096136 -0.17165070370218824
Ni 7.272173524385998 4.962680572258871 5.270818007841577 0.6698824167302785 -1.3481970233883103 -0.39041481595241145
Ni 4.5012437880626255 0.0927796422795546 9.671508107562637 0.33766734904705076 0.7500296158048309 -1.508473423815286
Ni 7.6575415865117815 0.39894516526366375 9.05464120081142 -0.35262397035688303 0.7383994877650703 0.19497189492663197
P 7.0121489089841385 3.9472610355387894 12.859742577596938 -0.44416192776688024 -0.8647046734529237 0.1527147860296338
P 2.379253401106996 8.97350461718194 3.289443923221299 0.016943569832874046 -0.6184228153984058 -0.9293427211482833
P 6.9291438573513995 8.893565958910953 3.489064283846468 0.9725483100014799 -1.477069712693024 0.4337319906828079
P 4.807541387628279 1.1880242329382444 5.819459509518722 -0.39912879878664165 -0.49064798714356145 -0.7118677600231289
P 0.8188563333320807 0.5124488238838816 8.929829754863508 -1.0550670946320024 -0.47566154103705816 -0.1736304531363784
P 5.73776691118931 -0.1207475511311289 0.01848056167930881 1.0911576697069725 0.7904262744543226 1.29763782238352
P 8.473811804960457 6.862736121595374 12.221814535957755 0.7083862292324316 0.7191774063106647 -0.7565810437701035
P 2.9686105107859877 4.537107659820712 11.622696689818822 0.32439171498406716 -0.18300058149736873 0.7990960343141786
Ni 4.180417764526981 8.300745302513114 6.670823306935212 0.08341584252349506 1.4036408061789116 0.21591558705783462
Ni 2.0534675786699625 0.8094521112810676 1.0196441401046161 -0.27071659405811443 -0.424214795220992 0.7850601250464028
Ni 2.7086228398824623 0.26172406232524054 8.103163354583543 0.5843973503825806 -0.4932895385314666 0.562440129385199
Ni 2.623558132467582 2.5767771614516892 9.33704586969178 0.6880452036822343 0.10954416417943069 -0.02119000381405383
Ni 8.473553193472116 3.9347460867280226 6.988509971724894 -1.2369086228242632 -0.29748049241551994 1.0638831502617356
Ni 1.3208304683257108 4.659671033044975 6.607707325980779 1.4813326017344357 0.10989511976094622 -0.28322269694492513
Ni -0.022826158295888747 8.344469116291837 2.709075409987058 0.3257317739517293 -0.285268009509728 -0.8885218304771794
Ni 8.464908180861874 5.178048525299064 9.137236168512647 -0.1279542912555022 -0.40018835039940753 -0.20084943675333153
Ni 0.6392155574061372 7.496343504154354 0.3197749525580316 2.148260049601449 -0.8360062770769666 0.16886079966187692
Ni 8.677422171405738 7.623090841814984 9.84360666415362 0.10792925428382702 -0.27175480551464165 0.7494423758427932
Ni 3.057406612532639 3.075287749726473 0.01386619383734635 -0.5766233628641166 -0.02081616541440286 0.2632441969404692
Ni 3.7087196459183644 2.1239207369936004 11.49408642582968 1.1027111788725266 1.418515666408215 -0.6917409073662667
Ni 0.983610323654191 4.165769270937404 11.013319356492437 0.30156186157374515 -1.3624095674432666 -1.2209153327198006
Ni 4.449549198768262 9.139708679063673 11.902722133006451 -0.5108586577634815 -0.3259732005385741 1.1175713838138108
Ni 4.436831055216657 0.3793368727726984 1.8148726195269524 -0.0955139113386097 -0.17120590285528578 -0.27458687564679807
Ni 6.388664318968774 5.790560599309122 0.587019446546885 3.2095134755498207 -3.1561792829030546 0.11717648391370787
Ni 6.807587221706747 2.933476292870004 8.777360733850035 1.7837791799059795 -1.9999490490664653 0.1243190084957601
Ni 7.890264217644544 3.475960070287268 10.927966481990547 0.8716312253694278 -0.988034064341905 0.355249323794872
Ni 5.663720900402655 3.353064196577996 5.905501398914546 0.06692041597163313 -0.0037651234693870635 1.0942710185249735
Ni 4.21584753842964 4.699451021626506 1.9967309889654163 0.8090009521327165 -1.1307372317718076 1.1343282915571753
Ni 9.044789026718101 4.86889696323708 13.013158301380232 -0.34618618515133925 0.3489393224164442 -1.9323634887070074
Ni 2.4899206458675924 5.383025838182717 0.558599891203173 -0.7229060201151615 1.2779819958258056 -1.6527097400602635
Ni 7.183164991773924 1.092919858101 1.730831274715934 -1.9551581180040196 -0.5645628321551567 1.6533579151672237
Ni 0.38196177937935516 8.940069846189337 12.12055151324817 -1.502722894484754 1.236296186051245 -0.06557701456986124
P 5.374353117198724 5.5227037502603755 4.044329010462506 -2.4347228507502265 -0.6496285515772489 0.8893582103355459
P 4.53715384044363 6.374477631608378 0.6284942639895038 -3.28798791490764 1.1353459341884122 -0.43162085787707605
P 8.256338015515205 2.1679955235065003 5.865474805806634 0.9430055633473565 -0.104390130782317 -1.1936444128189894
P 2.7800088467890434 6.4306332690766155 6.871849405722004 0.936082353864962 -1.1682889647733363 0.21798095422729558
P 5.388798416047462 7.633250578856935 10.649401270099586 -1.2533798810064092 -2.6479194962150006 -1.3889235545733951
P 8.400532392514238 1.074207469694643 10.951771669492297 0.2614135714896337 1.2495311966842804 0.11751612664131374
P 5.027832195071528 2.674153622936498 9.775461613363422 -2.1614732058576127 0.17676077123524397 0.31488686081742545
P 0.9539623637408615 4.072669135134799 1.0588016138892118 0.7387152192332761 -2.1244097253464123 1.3860927699928194
Ni 1.1447806976378678 6.637993502102835 8.522059472560223 -0.3923395437789501 -0.5648114578308531 -0.605518448631912
Ni 7.525991464067683 7.678830853676961 0.5703971931337948 0.17766297133453918 1.4985152841613096 -0.7393214853587073
Ni 0.6202159255252306 1.033550049277672 4.2150753984144504 0.6381066669805784 0.3584868568955632 -0.22908606300152157
Ni 8.669128131529671 8.30099467787687 7.330704693097136 -1.3180140720470268 0.7325738822222287 1.1924995005812689
Ni 7.179913875920499 6.032491646651724 3.077386197231865 1.9313237345885834 -1.0447410301156457 -1.0682203441845086
Ni 1.9272744084843476 7.010523351057426 4.51028133596767 -0.17903979707740778 -0.5710039597948101 -1.4302668934068723
Ni 5.065654125241336 5.213589132696726 9.960942390863572 -0.28003735723840806 -0.5349190411467949 0.3356235791441446
Ni 5.41612810869031 2.372113876803879 0.10498702814168787 0.21158122134853885 -0.19811069766592979 -0.021640718198227247
Ni 8.052718412945339 3.770610916753013 1.3851896316490953 -2.334665285904992 0.20417387314087415 0.12986642067655052
Ni 8.633347384892838 3.0594755044393636 3.783526713370708 -0.5364082240978116 0.793958198866981 1.1252371278891846
Ni 7.753624990554887 1.5677582590680375 13.110447943293954 -0.25545349725145683 0.3835980501408942 -1.0228141481355675
Ni 1.0377063053402882 0.9300869816922767 6.6837594230269906 -2.869420033559781 1.6615520209422416 0.03802892974826354
Ni 1.4895098115958476 7.966388356462507 6.389986932009145 0.28219759811452044 1.1353603323661157 1.2179606209668508
Ni 0.07690366773281866 2.004128201144415 1.7907700288136112 1.7154716537788328 -0.9705942715989028 0.07660370469766808
Ni 8.735369617043192 8.30178898459106 4.926176637067141 -0.9666537988939158 -0.45839478353681057 0.5794515763415311
Ni 4.566423119249032 1.748139772185585 7.8131619732331785 0.8187847709923576 0.17922543072565264 1.4481733413736477
Ni 2.7063507532348985 2.688968366768579 6.946833806766352 -0.8781700549292101 -0.04362673555101519 -1.8850955568589791
Ni 8.891210747142136 6.258324128845127 6.311825304108041 -0.0358180381398738 0.05677432867656674 -0.5103891743262307
Ni 3.406190385182816 4.774162033383179 5.2058095449599655 0.43957996482315265 0.9524353413016888 0.22569837747621127
Ni 1.2450480661173404 6.41148678281483 11.253858519860293 -0.2855960822731081 0.7083301791835156 0.3869582248623787
Ni 7.05113459085148 5.642579411230813 11.158569422531375 0.0466413540076229 1.3084773362011852 0.39946869862456363
Ni 5.847769154979888 7.476190280312957 2.09311364344503 -2.0619344896303264 2.2783720106299024 0.893367588605255
Ni 3.6721445925673413 6.637854960234081 11.964147903162086 0.21391938256341222 -0.01750664142519566 -1.5078108505306225
Ni 6.504448376748681 7.073153511858762 5.030399837705766 -0.21683218533483303 1.061474797930559 -2.4086204972362193
P 8.9226412791001 0.08614533399116062 0.7736704410317746 1.0954562970823265 1.6799747464238035 0.27811622895629523
P 9.196667859370685 5.941358805385424 4.039016391602024 0.17091768219090564 0.37804600997441346 0.2504046219736397
P 2.3917314054194283 0.7908117646464627 12.363253776993503 -0.04230827384990778 -1.4592378267179256 0.35371668920042953
P 6.253632177556662 4.634872038538032 7.915249781868076 -0.4865571049036395 2.9990529980692866 -1.3019279651184417
P 4.835720803732818 2.493328775838938 2.257708772424303 -1.1373573081914863 0.6381753154349848 -0.6334501420451736
P 1.602366017882756 3.034833524050341 4.4524244043511345 0.403020420531564 0.6197361348931908 2.313357011345519
P 6.404421147508382 7.996729025719606 6.742766252154183 0.8825519860469897 1.4354180985905085 3.250620015782144
P 1.4706496451961533 4.44414606588686 8.821671965152273 0.14329040739194032 0.12888271660704254 -0.06214022097417041
