# total energy = -340891.18312935036 ev
CRYSTAL
PRIMVEC
9.08561491942509 0.00000000000000 0.00000000000000
0.00000000000000 9.08561491942509 0.00000000000000
0.00000000000000 0.00000000000000 13.29771582261092
PRIMCOORD
 96 1
Ni 6.550528490833847 1.852793112996212 11.447405102690611 0.30620681654492427 0.3125263310050489 -0.7672076702460142
Ni 4.51843076692495 0.008472335934941929 6.026352107890571 0.04258441032942989 1.7595956406812407 -0.456438174031072
Ni 2.56603205730164 1.862496549756017 4.855714233354615 0.8464835224592068 -0.7772820237628808 -1.6757496525988622
Ni 3.2587829399091652 4.804827521178289 4.997507974410998 0.3602704311585473 -1.199664136650508 -0.5577380959238394
Ni 5.043424855213153 4.561996290579691 2.9299790779063972 0.1354122901954442 0.7592344222325506 -0.07177543007108929
Ni 6.985093453588027 6.176709949592828 2.7754990927042127 1.6474132675480142 -0.9978268820626107 -0.14096613013413786
Ni 5.30166528875616 4.395093544065071 11.496712734989732 -0.7559585796947561 0.22782570823185927 0.44799364280814463
Ni 5.757254364489917 7.700812770773067 12.680130435505408 -0.4083868270497999 0.8203318037645034 -0.0960877815642087
Ni 1.8034763950821482 6.44315469342994 0.3507219994927988 -0.43649798346371926 -0.9732466216200851 -0.012428455571339885
Ni 2.8357476225184612 1.6662381813585043 0.4473375202419452 0.16536769890695388 -0.6610766455131906 -0.9913764984515765
Ni 0.6296976234601757 0.12364885945244525 4.625610132169063 -0.4039388185807753 -0.28267119531682927 -0.2803338054329043
Ni 8.785253599215748 2.338519173498014 1.2613586483096713 0.2799486541793437 1.319245887571599 0.10734689941779577
Ni 6.7189757918888855 0.7913570615908225 4.885062586745551 1.0504622488701394 0.17803218174849986 -0.20772225261376484
Ni 0.6398844149349819 7.299083220425194 2.258736571554945 -0.656638664346495 0.49723155389835005 0.663125300512103
Ni 7.432669016941494 3.8977651532802438 3.942533612353523 0.3840220250521902 0.10944286271487604 -0.568354437987105
Ni 7.627083005505449 3.9692689428866705 12.561980190216852 0.9347772619002934 -1.1633686446535836 -0.3637437344191284
Ni 8.208516933823528 8.982375101032906 6.597808213877547 0.790725036641664 1.019284023495122 1.7403473339745898
Ni 6.973509294534889 0.7848317729383021 0.16226544864738754 -0.6722360045641197 -0.9850819236921164 1.0134833576529447
Ni 2.2912558045612124 6.546757960632237 9.325901293490343 -2.2666480373247544 -0.686540851222566 0.18839809836385618
Ni -0.16867716711311248 4.788827753262544 1.4225102005649688 -0.2983713796609055 0.5022927704713414 0.12666668279233023
Ni 6.2596343571834066 2.105845660406403 6.922525366278667 0.30999199461896937 -0.5604323549265509 1.0027070929730473
Ni 3.6298667110521494 4.417189759607997 0.8965839281835485 -0.3422935349651524 -0.04195654693744388 -0.6748184205793152
Ni 5.8522808111854205 5.848673822052797 4.936444464936304 0.5272990627076918 -0.34651785745914515 1.1082771029960783
Ni 5.346829880640982 2.655716162410285 9.438306704450037 1.4430684160469147 0.3392976855616221 0.23719789347537856
P 0.18097000413185396 5.5426521395212 12.41180860362094 0.3747848227246384 -0.6045632838074944 1.0316718556365134
P 4.447017833467958 5.944199977570201 12.855221138207234 -0.8340103296928605 0.4630520798031638 -0.964754524988674
P 2.3683563329729194 8.484746884954937 1.4347439810865767 0.016712170548358316 0.2309082038119249 -0.4472912174244813
P 6.44188270733783 7.991016397687791 6.106191040646291 -1.1944350270410846 -1.1293503787266097 -0.37860265380883185
P 4.767740040978362 1.0837048936322449 12.592351583850443 0.14169220966688498 -2.5692496530169238 -0.20378049435719744
P 3.9414487899292525 5.831002300987422 8.290753560362875 1.2746511316803597 0.2573365732067826 0.06794988567741202
P 4.9200512898935 1.1191842199871493 3.80297402401178 -1.3378614457902573 -1.7377636324078136 -1.1762796962882969
P 0.09630751840255705 5.716250984249281 3.7264059126357694 -0.7185338591893947 -0.5818894963590624 -0.9105685258645737
Ni 1.6437421987580578 1.1812298844372493 2.488468162527807 -1.3481967662779943 1.101968130058915 -0.0875802583138298
Ni 1.7021445316157595 6.8387060256161405 4.751087925909662 0.37668281107829965 -0.7887707411287707 -0.2186286151136235
Ni 6.063012564188148 5.610612539299609 9.381338990191935 -0.3133771090411184 0.1643405431940202 0.16581429952606927
Ni 8.911761701690954 2.307355514241338 10.323721686183372 -0.4405235596833445 0.9141948097632514 0.2266813102147709
Ni 2.07609027146599 5.162364640440311 7.087203954255084 0.9469146685937756 -0.20526556354315617 -0.3945962010236107
Ni 0.5581929252922545 -0.0909279257944293 9.134759943429087 0.7045758543474059 1.1746904974243058 0.06563666416320309
Ni 1.316723660091715 0.7933150116111765 11.410676504280957 0.9348173711096094 0.9649671552201124 0.31746182063345324
Ni 3.8923592123887794 6.8708418456717855 1.5938776182628924 0.7651798411827081 0.06701888922271039 0.4603886740383877
Ni 5.621996814823986 8.21044308419158 8.16655320408335 -0.48566030412098293 -0.5654799446527874 -0.9212599441401489
Ni 5.184206458764815 2.8872630592488857 4.754903884185991 -0.2657438234338713 1.8120602862388597 0.9087885511460156
Ni 0.9699529945379041 7.543013810431972 7.219675854379297 -0.4022274923166234 -0.5749061230626937 -0.4993979654220496
Ni 5.350818465601239 4.393085623162527 7.430191369746365 -0.8597128766652871 -0.07609874003679153 -0.5324749504816765
Ni 8.443661734179809 7.119378842454988 9.38124631691951 -0.4051341244404571 -0.3030533585176071 -0.7645941438825671
Ni 4.681508469548298 0.3927902138048289 10.02770144858173 -0.13756995996839533 -0.5552477254018179 1.5992904438988584
Ni 8.076085010405068 7.292269009217465 4.878878917214911 0.2756626252094801 0.2197755842338731 -0.7922674414281193
Ni 7.112419261408162 6.175183566282296 7.297893004867577 0.36260730682184006 0.7801704010542693 -0.6242291376675377
Ni 1.9845527009088426 5.252166858543223 2.6347029521686407 1.4923706047161525 0.386414950764399 0.06440819107274069
Ni 2.720242199739998 5.070690785659008 11.673173548425057 -0.0004944231379152775 0.776588854350598 0.053744540711307444
Ni 0.8037343948285398 3.443638861552413 3.6131355511334413 0.10520105671938658 0.13811014874258148 0.34885164779864436
Ni 3.8576067352293664 2.60040293863342 2.520462246990332 -0.41845989501508574 -0.561949820012342 0.41178016900206504
Ni 0.9963012778744528 3.1556248678391055 8.352056021510585 0.6074033243594507 0.9821326112558052 -0.8220449298008682
Ni 3.419071358744817 2.8337669584607483 6.79671503903113 0.6001733822699147 0.2665706902105409 0.6860618547036184
Ni 3.8810476217839507 6.814465604946515 6.331906789814065 -0.055734317447826594 0.008502381044056326 0.12129461984713949
Ni 0.8966656987180412 7.306460739759427 11.432604635947424 0.7242645910255849 -0.5563383873628354 -0.7317938095230946
P 0.30070568922807456 5.582828728801966 8.049613162705286 -1.3122108351016886 0.6922402156001884 0.5174396534151089
P 8.482366453839704 1.6459500031893617 8.088801237080185 0.5691455664298327 0.17754161526532647 -0.9618337517974532
P 1.9235609677922043 3.5407549996849537 10.424053223444465 -0.8062097625408244 -1.6783276977386836 -0.1108597976670607
P 4.039237263567623 6.4915991923094145 3.8446888079025023 -1.0141754986239628 -0.8674115308611255 -0.35398922613552586
P 7.023425663035233 3.8031293880273163 10.419079757824319 0.9425697613615186 0.32528465911198173 -0.967173675953128
P 6.430680144112325 7.753027799854152 10.146210575660561 -0.35569849551714866 -0.033352350208200626 0.8853712006633397
P 2.381085279508956 8.570033552430862 5.759652966835037 0.2895095583949014 0.9890355090232257 1.153164707537388
P 6.847346445427538 3.741474405019792 1.7526650935098556 0.037865921807838016 1.4645528111729358 -0.9184751823061601
Ni 5.412328078769664 2.8030394087213666 0.20246020915803967 0.05742558910732045 1.656621930630476 1.3452734219836122
Ni 1.3727273906042963 1.2294926710178518 6.844959654381846 -0.27600509615056334 -0.5257314611102558 0.9211640419922328
Ni 7.197533302200157 0.6414989287104663 9.378666002275517 -0.7245044749505328 -0.6809533298324595 0.07660164781513905
Ni 2.5286356661936282 1.550187621683423 9.237869861739945 0.04097515686078104 0.27943854731214457 0.9494970846089712
Ni 6.663944222175274 1.817986122147137 2.492736584428328 -0.8684299448233109 -0.5429912766319681 0.6458292324358168
Ni 4.2439270826328315 6.876765666615038 10.56207007436878 1.0878190922520428 0.5897002506527329 0.6620729479881887
Ni 8.065227700547423 7.04602158740006 0.3338163957671726 0.5890019390341276 0.6282840244632019 0.1504560719024441
Ni 7.827675212231077 3.930609651301493 8.197030899411782 -0.8782507875684745 -0.2512086059321738 0.07123909795164506
Ni 3.0153248018794554 8.153539877799577 12.573987738926364 1.449643241050955 0.7372538041964013 0.14296979082772798
Ni 0.15991954286894033 4.924167073462967 10.105346205328564 -0.027427757193649538 -0.6148253278551347 1.2219049503265793
Ni 8.520825861896123 2.459902989145011 5.851327730177833 0.27038440752967624 0.21252918708410495 -0.3267702425185727
Ni 3.6324379400811995 2.5208129517271565 11.491965501181681 -0.2754283977114869 0.463226400597499 -0.5536788382528013
Ni 1.122600411205957 3.427239326579147 12.722390356292749 -0.2790618806990162 -0.08130239572491803 -0.6760232395206939
Ni 2.902999344331266 8.63399628163407 8.169625050495794 1.1236972942058905 -0.34463015351812903 -1.039944894278583
Ni 5.720066942525609 7.908146503786875 3.677922345612037 -1.1597202492677188 1.5481378322844435 0.43658977184657716
Ni 3.046915485038483 8.874592450956534 3.5534957575204165 1.8453131347547187 -1.5069071077694307 0.8063115782260113
Ni 3.474402753751569 3.7863755140712487 8.984349405160158 -0.4038969095992463 1.5345953177133183 0.11134265084075017
Ni 7.435212989125714 6.175256251201845 11.358802185760258 -0.751453492735551 -0.47617704722089604 0.5222782124543328
Ni 0.5471793428575772 -0.2743210634317514 0.13708739251557941 1.2777274566128383 0.3080682952336952 0.3920199556560023
Ni 4.7138896012074225 0.25378757365913074 1.5187323141870557 -0.034820964333927125 -0.0770806443340866 -0.03854649281463039
Ni 6.363773675667379 5.458982711505243 0.5044115361948869 -1.3019043109693575 -0.06160311752377777 0.23308078598321147
Ni 8.146907378890722 8.665087255971198 11.547949243341385 -1.412806788948896 0.5453114401247126 -0.5684428839358533
Ni -0.25052674645585926 5.189694170190772 5.866553403700381 0.703754129777059 -1.0813016028484992 -0.0675775899396578
Ni 8.36980477030298 9.303760558434194 2.0037133542634797 -0.6913642407531383 -2.122759334227183 1.443137064501321
P 8.67845219555329 1.68293754162491 3.5620725780272102 -1.085440307607221 -0.35295152889963083 0.5716835023603379
P 1.7831337032233436 3.285894414900979 1.5307934680247346 0.4043887616340004 0.31201673835848204 0.6297788638411734
P 4.491646374071106 1.2968625058249235 8.039706208170744 -0.5937602796547193 -0.73162874470014 -0.7632777390639887
P 8.71577590174175 1.6569981109608252 12.509374479693191 -0.6989495092995639 -0.34796410298736846 -0.7310011384184701
P 6.480505656463233 7.907047144378694 1.615792121506946 0.38199676709204533 0.7508459410585392 -1.004497866324883
P 1.4761943735824397 3.4133837637901 5.849904922877659 0.3914669113660097 0.17591899206023898 0.2515577617414765
P 6.902932237652713 4.075061843290385 6.017561775432602 -0.6895842660345801 0.061496159632268274 0.3434096508474666
P 2.540110797867442 8.458507628997713 10.435050451772243 0.7093380516227397 -0.14054215522284183 -1.232565001143587
