# total energy = -381163.25074531033 ev
CRYSTAL
PRIMVEC
9.33076747219221 0.00000000000000 0.00000000000000
0.00000000000000 9.33076747219221 0.00000000000000
0.00000000000000 0.00000000000000 13.65652136399476
PRIMCOORD
 96 1
Ni 2.9409832377509533 5.480883438893348 0.6309017037779456 1.2492213787533455 -0.3922495551683051 -0.06658128746465952
Ni 8.236725589930634 3.4118510837301153 4.1212105451752254 0.3978581596043342 0.08962737065084564 -0.34994590930408764
Ni 5.747985986432178 7.633668762222183 6.853866672304901 0.8453938889394538 -0.21174782883339016 0.30736792673256097
Ni 5.2219173205256855 -0.06287257688207021 12.352064283182216 2.3875137971645914 -0.41182464908675526 -1.090659132803999
Ni 3.7687062828715443 8.08945808808597 13.487153070241302 0.21471462477119796 -2.7896584999594216 0.22839109381702602
Ni 3.8163305196715926 4.089143496858076 4.519543804631556 3.636441813047234 -2.4884612208139467 3.164044030363112
Ni 6.657213284775422 7.071601995693712 2.8630078807582717 0.060701945865747065 0.6326363878946266 -0.9567370540008361
Ni 5.8488329204711516 9.429766840222756 9.978710815482499 0.47468992115240827 0.7406700289668018 -0.4175355834286034
Ni 1.0202074457765862 4.235086029732207 4.866010127351908 0.8286925170243727 -1.066921165757111 1.5201752856332464
Ni 0.5886445243853008 4.564340818909971 10.773998246973715 -1.0437969210348217 -1.2963075336078707 -0.5270283255448086
Ni 0.6000635175271306 2.0685938090955207 10.656538814659111 0.5396100188645611 0.39591029184934395 -0.11941000122991692
Ni 7.9577636370287825 9.14943326451338 7.227440740470296 0.9132861819060529 -0.5068639347817916 -0.18143837921657138
Ni 3.289804646162593 0.4682533649542066 4.403422404361844 1.0959782310240673 2.712358283415361 -0.5366753617162693
Ni 0.476702374833212 6.311601660348738 4.462104533605415 0.7702266595779961 0.26897390033539487 -1.5358674995575228
Ni 1.9269061061549375 0.16238614425985165 7.3297964595975476 -0.7420797648301349 1.4815269771334292 0.7020690287651522
Ni 4.127073066331469 8.364230526426061 9.084891413343785 -1.9032251765801544 -0.8957057498201284 -0.03993257452887962
Ni 7.310311018040036 1.0215510762819164 12.783460183837073 -0.5620290099897094 -0.05928526802387855 0.018753626458419312
Ni 4.621911653756424 0.3500568020151522 7.292664670736695 0.9352385178074281 2.940796942640871 0.41818221587366694
Ni 1.7125783790199234 4.74085094578037 7.3911005344799925 0.36544709026348027 0.3860398268131674 0.41219334528008367
Ni 0.9913193899119799 1.8157113510714389 5.406739294994338 -0.25209615074344965 -0.36369282657653496 0.2841171837347365
Ni 0.1672791986834303 1.60235402374583 12.750111088079425 -1.4547324826484043 0.23019035180929387 1.3383242443592887
Ni 6.585077122020489 0.3825092110258435 5.499181073761078 -0.8279448402250708 -1.9327692087858586 -0.04037120472819499
Ni 4.662444507333895 2.4357595062118813 2.4703691886450203 -0.8857486386074164 0.06830804034777913 -0.6172629907623499
Ni 2.3738778568274923 2.7396439388341336 3.4813345093137595 -0.9392808061976018 -0.9350418284155897 -0.6913781247102093
P 8.085343219663395 5.44706873784253 3.2106890693938603 0.21466628803176577 1.7411310062181495 0.01605473947001751
Ni 0.5111497019136232 4.650893017295012 2.5059856608804165 1.0227668398373997 -0.32067235715095094 -1.2377272620708166
P 0.5292177999033595 5.58856982543515 13.599477781256715 2.3959961236039895 -0.5315912623251425 2.4061126432127016
Ni 3.67160098655922 6.894298753594472 11.298913630029798 1.510461143669276 1.6886743310803305 -0.7673881616879364
P 4.12403123615968 2.280224944452476 5.682874958451296 0.14872623369553095 -0.6282107480231052 0.5514653755412503
P 2.5491096685643475 7.871015492528381 4.057626030740678 -1.1029811447044617 -2.0327349852482346 0.33735521712327066
P 5.794135961983322 5.577055658465859 6.053403464137943 -0.9805380130751759 1.2798797270691507 -0.03821019252113419
Ni 3.7308047057003457 7.3816260732639325 2.1637667034796926 2.607679160637715 0.40080515804780004 0.38487434575015655
Ni 4.1564649836355745 0.7252413606334648 0.5823266617800279 0.07824483984551686 1.3561386468328902 2.117821273495617
Ni 9.147464472592373 1.5269894154711452 8.562201418312155 -0.4103547494094481 -0.3425555303772875 -0.7836717293393084
Ni 7.507759386951835 1.7471768645321841 10.544937238117056 0.01742230924150548 0.8103430679829077 -0.5625162340387732
Ni 3.7491489944050667 3.537032659143409 7.7425513531444246 0.8069839217026876 0.023373641728933938 -1.266472195413993
Ni 8.044847689155516 7.555654216006429 4.98012354647754 -2.1309385276038655 0.4547379035105136 0.6008974049201329
Ni 6.1562537139372955 2.145619293967072 4.162931205442478 -0.29834232619518297 0.6274730985261323 -0.11463931931415094
Ni 2.365928043004287 5.354395556044317 12.016918980546013 -0.5962182542769087 -0.37681110912604776 1.142745054865961
Ni 7.918798352374197 4.969268131686558 6.206492431762299 -0.0403218395474983 -0.11812856341433205 -1.2594145172362634
Ni 0.8446555887179749 8.12240502776876 5.823263818570059 0.7522073401824401 0.20471663301822166 0.543460760069219
Ni 5.668469186665326 6.558232504216073 9.822930854540521 -1.2728570158944144 0.853112340629634 0.12397782310625746
Ni 4.368926557290963 2.418973455662648 9.773603752690315 -0.9433392925376914 -1.910013660256898 -0.20652617542313462
Ni 4.034987722879339 6.1676185886282155 7.947084573741623 0.6416290783115401 0.05616549144797423 -1.6471929240070922
Ni 5.340604681829882 2.4461353195586004 12.030165871021136 1.1141417893069714 -1.3133295220871641 -0.020917723989273652
Ni 6.519901711744561 8.503828137469464 0.7203464400564065 -0.4528743679392136 0.10262712534462325 0.28879684859859295
Ni 2.729548048509359 3.1508228657674673 11.3899483290729 -0.3985731833934878 -1.3017281904028097 -0.8024803774053793
Ni 7.555234331473514 5.908139278053657 0.8363708003451765 0.582676511036732 0.7301225924682587 0.834649505938756
Ni 9.268923071813814 2.440788789839473 1.5548361576941203 1.2426483535215178 -0.5614697950521298 0.2793159056913513
Ni 3.6235661959936536 0.7936760079615595 11.174366546799575 -1.4995218710489528 -0.6520669858154126 -1.487249224329187
Ni 4.949804150894062 5.033202549898535 2.3603659725582626 -1.6793821071451274 -0.5036030046423328 -2.0422586084679533
Ni 2.0972019419381827 2.1326681888184695 8.690286728539746 0.8377340584013507 3.099265600435146 -0.3781647949404649
Ni 8.245188595960736 3.8604277263951485 13.668266064669197 1.9837505849297317 -0.3441565563158202 -1.6861453940108897
Ni 1.8477345447818163 7.357254108820021 8.43219210384707 0.9194074643124424 -0.34161039285519873 -0.902217325686401
Ni 2.2755968838230034 1.0226334453000996 12.965091968932306 0.4269964717311872 0.3484320437627225 1.0555471195922144
Ni 2.8360214352894046 5.4165011438462605 3.4357761044156567 -2.6485093072801997 2.871111562329591 -3.5300804174711593
P 1.7545948246136964 0.34509563298956725 9.470360343788313 -0.2386554518575116 -2.514138828085709 1.5361955723209029
Ni 6.104542601016866 4.525366203487987 13.437060845464448 -1.7768050625809915 -0.2489966858825196 -0.6552381844545425
P 7.57260822036883 7.697313926644818 8.614205517328886 -2.927488398457423 0.06593079836485419 -1.2531042587475192
Ni 7.412986782489043 4.2938418720382225 11.257330132043297 -0.9772971375403748 -0.8647226711750527 -0.06384229126694166
P 5.407310337959103 6.447140387573954 0.8847321677696771 -0.1984763085354646 1.1656759526305216 -1.4001358783494466
P 0.20703853164359615 0.282786634458344 0.9891975734056454 0.25934434766543074 -0.1369608656294867 0.8207094988188962
P 0.07346206480220636 3.509124333855606 6.9334842443596525 1.3232928039474627 0.07628643056756539 0.5420703074795955
Ni 0.23464360699095962 8.908923404059216 3.620712847323306 0.551278970562057 0.0683923725314693 1.2497471693498283
Ni 9.222427857868938 8.192236490976356 9.654327619963297 1.3710284194605291 1.3210405175781763 -1.0440591735572728
Ni 8.761375979192609 8.467279521570992 13.023050030625782 -0.6329788588357099 -0.3997988282704727 1.0487288111188002
Ni 1.617367228489419 7.643522052594606 13.263295830362578 -0.6964236575539168 -1.1978880185866918 0.050478982586158225
Ni 5.628608148340519 4.0617110407075785 9.36013878774444 1.0439964386401377 2.6772925500604794 -0.22801545564516215
Ni 8.719695441225168 7.627995655644121 1.8055967992118673 0.7228355718885422 0.9342018490127976 0.0038268299452579257
Ni 2.9787355226437815 5.1226286246422 9.545375981362309 -0.5100017090798249 -0.9289133469203485 1.3211449043665247
Ni 8.544920837090821 6.156832221515979 12.257492290218485 -1.0711580866565937 0.7358682367027842 -2.2636532163624885
Ni 1.0810627107471809 8.971411553324483 11.462000514921248 0.7078655808422712 1.0186816140244328 -0.7750809023465038
Ni 1.326433901015769 6.712535404678926 10.53879199470865 -0.12965173356258317 0.05636475194297389 0.7020379184169007
Ni 7.853305696006732 0.6849492408548659 2.5449201540025883 -2.0900417893895034 -0.006022552044996079 -1.1206024573306508
Ni 2.787753375538885 5.980564694597931 5.588603416197784 -0.1310326730705098 1.1342722415082596 1.3163258857113267
Ni 3.3333793299118537 8.390123405955867 6.1225733759370105 0.4859806635748792 -3.355246173834667 -0.1130362364930892
Ni 7.793271538567173 6.0160962568500045 9.661551500082929 2.2199190086993315 -1.9665229081975362 0.9623384593480137
Ni 5.0175921760414655 7.136637444458668 4.403776973522974 -1.2121090472820801 -0.13406554635956267 1.3051876097063198
Ni 6.15658029079623 6.9912920806980186 12.320872460847012 -1.5084034898092988 -1.6979783820900756 1.1631225900810485
Ni 6.267065907557471 4.761807849356566 3.967424569226229 0.2857598615444821 -0.5655401084667615 2.9692338578253255
Ni 4.06504212466871 3.265059451022756 0.1556941178819138 -0.8943885736706016 0.092831222300124 0.3522262206978321
Ni 7.872088530779165 3.677330077741671 8.668886613512138 0.5486839561413712 -0.3379612261383857 -0.2848895431243868
Ni 4.537038993503046 4.469941445143103 11.560382260213636 0.8932320914686552 2.009265955592017 -0.4653269918802696
Ni 1.6541211212706475 6.8215467601912625 1.8787136256203432 -2.7905642996031426 0.36800070992326944 0.5377007176569901
Ni 9.204279515279579 6.37352063280272 7.323719330791147 0.08727378281700454 1.4791484495989236 0.5774684844732313
Ni 1.466973919566382 3.5766324359810664 13.286812163436082 -0.4414167609215753 -0.45577277253293125 1.4874361435290124
Ni 6.035214999248771 3.4963038594505775 6.40038857752563 -1.5915871617173298 -0.8063025793649469 0.3596927042782063
Ni 7.965088289436313 2.1154529229689225 6.405564354201372 -0.7399442065443708 0.18547064030441607 1.1310635047629747
P 5.6553034738665655 9.187334841684578 3.4775508831338184 0.13385060213527913 -0.12920924670852585 0.12587349746707355
Ni 7.531151620818944 8.23583916702781 11.164000997296995 -0.4508889620780686 1.059747273716491 -1.1730017968679733
P 2.47674956739186 2.215226818757112 1.3946315468519512 0.3237574238341779 -0.12343763433207128 -0.5437170990543991
Ni 6.943107997854082 3.269668850117432 1.815252277315451 -0.453361077767645 -0.07940517870220519 0.9618118974205823
P 6.006905450962848 1.7614995924883117 0.6189172661317892 -0.11956375319896181 0.5536857802313367 -0.04329840567731898
P 8.344691899494379 1.3561710567136047 4.509793152700511 1.009156962363449 -2.0019447393402556 -0.5028689546897855
P 6.1024525091196855 2.1082122474679745 8.364319168716342 0.6405235039521873 -0.16875127066720613 0.11393046617258443
Ni 2.1266218515444826 9.236825231964252 2.336398963419429 0.020989714877789657 1.1514852629524361 -1.881075894176625
