# total energy = -340887.9050933941 ev
CRYSTAL
PRIMVEC
9.10938862236686 0.00000000000000 0.00000000000000

0.00000000000000 9.10938862236686 0.00000000000000

0.00000000000000 0.00000000000000 13.33251103995214

PRIMCOORD
 96 1
Ni 6.985398128931042 2.0188318461361656 11.131567394466135 -1.570321053249702 0.5619755310439547 1.2557406679291019
Ni 4.952738230658866 0.5731636516488607 5.908782244988554 -0.3702787073241688 -0.4266709700709684 0.12755988403056095
Ni 2.7425181266982133 1.5988981337396369 4.439459700711014 0.8678396195374796 0.689337954351729 0.7644666171657672
Ni 4.128775798638848 4.681105367257229 5.051301817030164 0.635616553568873 0.3711999335868575 -0.5447290852586812
Ni 4.183259052805829 2.7070461668710566 2.0779116978708867 1.0640849818598963 0.24573549863274452 0.10863656476349676
Ni 5.5285062565538965 4.675002076788766 2.3524012655873157 0.35536888009187184 0.12914008403348728 -0.052527123364438565
Ni 5.690389204188308 3.6768863504760985 12.905524295741055 1.7130093082812692 -0.9659637148054268 0.5885753930196702
Ni 5.827485505009752 8.310613786798289 12.488510142441752 1.4552469603909777 -0.3337695566545413 -0.715103236241291
Ni 2.209791962688985 6.548502734665441 0.219269363998853 0.32152827739334305 0.45909000983162224 0.6632775098192513
Ni 0.5235739611231611 0.4982507713122951 0.3232156881877844 -0.7410027297158722 0.21609350739659555 0.29618979862855443
Ni 8.349428892299962 9.023232160018273 7.064551429734875 -0.5434484187740447 -0.03804178526406997 -0.9456304025647134
Ni 8.759059886010174 2.538358505833747 1.2406686879792685 0.3969829560882324 0.47160356891760075 1.1136203695858629
Ni 7.290070745361209 0.7603369952946055 4.7399073826348035 -0.8349595809800071 -0.29285353516646984 0.7404756535678086
Ni 1.168862109209488 7.401351038439931 2.4637945150866476 1.5958287106025033 0.5022932846919737 0.16464599024958096
Ni 7.794229866222527 4.026732425761651 3.5425948304535195 0.7002080642970134 1.2120432270411512 0.1662570434904427
Ni 8.234541281272715 3.956426163320461 12.61491566461575 -1.6617759640275898 0.7072251190447949 -1.7802727094146178
Ni 8.844842999952736 7.484656398640071 9.326371666320318 -1.857502734842375 1.73054217495871 -0.06214536318049296
Ni 7.064604264189677 1.025453001978126 0.40057352846723865 -0.5496108388310147 0.17099635794764098 -0.4440459710143062
Ni 2.0365587166609846 6.822649789364536 9.127890838408149 0.36302768218871023 0.11458198371365429 -0.7605066040767547
Ni 0.440997352023733 4.933681389375248 1.3476639245858038 0.5718501098451892 0.4347347209157094 0.6644982696002297
Ni 6.6559753032429425 2.1539514095969285 6.9472917338748115 -0.8041919607798473 -1.0417914605690188 0.28551637807510827
Ni 3.74502457839267 4.53203932960659 0.24261581644903765 -1.0342403876946382 0.1683262673146456 -0.199128854517799
Ni 6.385863707764042 6.004344287763794 4.41287486055704 -0.9197404221718289 -0.7082152508722062 0.8076616644960027
Ni 5.0298036595591595 2.898534627971892 9.479255448799812 0.49898067537897284 0.2842917616393878 -0.775689225354464
P 0.28339946086150863 5.942427772369551 12.264790842034177 0.2386127715450342 -0.12113161190671397 -0.048529572169271264
P 4.292753905687806 6.4028800459656665 12.393515614586192 -0.1700314229312104 0.7123809522141215 0.4037593555801176
P 2.3204892548871374 8.794194798453251 0.939191645125723 1.7273812607322252 -1.1569689117748267 0.25952509621766917
P 6.578335982850839 7.979651474409936 5.657744798631914 -0.5172573622009737 0.3403346114665687 0.8456566556825371
P 5.144536410977505 1.6389794442787964 12.501202253799528 -0.21116470263641052 -1.5334234088924041 0.35262242769498625
P 4.344331264840698 6.586151838405974 7.8560625752401885 -0.48088756532268795 -0.6667361577918131 0.7095231710503522
P 4.869487526791279 1.1478467493427058 3.3994435189240346 0.02077657042571906 -0.424114779308018 1.1868646708929946
P 0.3337898666591155 5.89134232020964 3.579272873352354 -0.4144759706666733 -1.7685556780880056 -0.22846179915396136
Ni 0.5902528649605568 0.10480898330439924 4.64227386485579 0.5619832443534386 0.5038426314569645 0.8664777061929464
Ni 2.3230581025171473 6.383340407077826 4.608249386902423 -0.011901893643908534 0.8304606646683891 -1.050213880304759
Ni 6.335725632035056 6.057943931221161 8.994552160449752 0.4569338827205679 -0.7644234226326577 1.3041655961997087
Ni -0.1426329873091036 2.7257477419930782 10.091790789603513 0.3574332188200683 0.12932031836509342 -0.4272127015070514
Ni 2.599682910958662 5.481346950949071 6.793128082274692 0.9554579301780962 0.20376043975253938 1.5447383196845912
Ni 0.8775994239712969 0.3859821095532327 8.862640012770997 -0.8609614043604076 -0.3314511929340098 -0.13898895180310902
Ni 1.914256063183994 1.3625550423899775 11.535115138363153 -0.8413960806339703 -0.1509947180147335 -1.2342925253576549
Ni 4.539263074892398 6.911010860325865 1.3504104052966122 -0.08232080968710338 0.8380199650728858 -0.009778419543002514
Ni 5.911246334647837 8.214354875782993 8.012292236210826 -0.5401437798808439 0.957694018597467 -1.0329219259935307
Ni 5.3918198782266025 2.6887454048544264 4.869139548140689 -0.3965512678674526 0.0760192929491078 -0.4258901260408859
Ni 1.270823497587855 7.598933680620471 6.707466123202625 -1.7766405119786695 -1.1187510059442087 0.6157954050778879
Ni 5.1546842700549185 4.58818049252769 7.390850646017547 0.15322952088252323 -0.3169704828193315 -0.23806024147567387
Ni 1.3580003480105274 8.174592393850395 11.972221870447958 -0.14817318940553836 -1.2206026865753883 -1.0454622245523866
Ni 4.724456948360833 0.6414585610520853 10.39711928202432 0.14429673716926764 -0.16772411495427245 0.15388746618149626
Ni 8.423041862860632 7.317198505085213 4.845061611773166 0.2555062048662632 -0.011947659280179424 0.12134295658657165
Ni 7.100905178393893 6.072600937734231 6.8334990713763855 0.8108634592627519 0.5063047198442119 -1.0890143981117244
Ni 2.9241593385506777 5.31259552419045 2.272419921345298 -0.776886845206991 0.20291326126089568 0.9297026755908634
Ni 2.32245688285906 5.769713761500808 11.31015605014549 0.015677301525940743 -0.4591686855883576 -0.11573152393706519
Ni 1.1006874437378809 3.4744848416421004 3.951996267567008 0.3633089608745549 0.2076716018814875 -1.1907128409944914
Ni 1.4070817346434805 0.8267344190193514 2.5955062562127065 0.7703310463663442 1.6584196459608471 -0.995250379584686
Ni 1.1302018633167166 3.954467644737298 8.123086087929822 0.10772793690629832 -0.600467773581882 -0.5163783020301301
Ni 3.5973613866109018 2.731869251239059 7.130173644476239 1.81711893170869 0.4084109954195159 0.5056586016197808
Ni 4.389559380028636 7.306321894907088 5.649505356499489 -0.06688339208611062 -0.23950443012136818 0.33710170635156783
Ni 8.983205505811666 7.357589534842176 0.5869716631296013 -1.0154721059481995 -0.4857901448306279 -1.575571245905048
P 0.06003087192115066 6.0034424582766635 7.816091488305011 0.09786878472403146 -0.5658856647316383 -0.7032170263266664
P 8.806128097727411 1.9958761864637375 7.918098423627173 -0.17189598694377495 0.147118779999095 -1.0239639454692946
P 1.714705793031532 3.8134451973607675 10.36730698543307 0.8295564076865649 -0.649056738234179 0.4076769454669688
P 4.356647158442731 6.360193450241462 3.483092303080385 0.3813943576213561 0.33472652125117197 0.821381070964624
P 6.81755764104831 4.0176868027240635 10.077405242875459 1.1878103226357155 0.5373903855054228 0.07026567829478221
P 6.608014371427335 8.077295012516585 10.168092851725811 0.4750120803785174 0.3471359506591183 0.12822065754301143
P 2.495571706833194 8.774955769394454 5.555163971817942 1.6749610952592962 0.7205200363814882 -0.8300019798644158
P 7.439774440224971 4.395289185557984 1.1890831303764942 -1.5111034052389654 -0.26230368740407084 1.3350846543760684
Ni 2.755845162452484 1.9346793127814477 0.3154362701876839 0.5904157886625188 -0.7936576369074266 1.337869159099741
Ni 1.6045368453813957 1.5439229725796755 6.840404898994508 -0.5783711987931588 -0.3988200092969712 -0.6790638261192306
Ni 7.4214918969858585 0.8235871252031515 9.134770248798871 -0.8226969615625703 -0.3161032497230298 0.15096077945300454
Ni 2.7036665836415046 1.8166034156885864 9.150049426564173 0.5330639902159271 0.6148487248939024 0.8819524047897778
Ni 6.714384703965009 2.1647642540537424 2.771042355718956 -1.0647686381904822 -0.7052037177393919 -1.3748413654487162
Ni 4.538889589953283 7.313527421415377 10.103150197385862 -1.3612656836468104 -0.11184478728814932 0.27265597717267237
Ni 7.321060885918987 6.347977759915777 11.296183158728216 0.8025215150559598 -0.11455061625508657 0.12311084712027183
Ni 7.730345722856361 3.9307194682428452 8.001159652208575 0.04141892926641899 1.2747591180131335 0.5125686984760527
Ni 3.658540041515674 8.790596589893486 12.461631979969743 -1.4492740306369944 -0.022136683998039294 -0.08026264160649403
Ni -0.023200702230042277 5.3490148604485315 9.918188613330777 0.1926807848996101 -2.3777289498636853 1.1835507760284134
Ni 8.747235899401122 2.8923311342270814 5.761738491642392 -0.481717517423151 -0.5520356462224235 0.3232719995573271
Ni 3.6825159527290983 2.971500831930681 11.574393000813778 -0.45508191711349366 0.599478155975103 -0.6830040417139012
Ni 1.3053116434290504 3.4767530794430663 12.773572066751761 1.3981419878478696 0.8222678444449517 -0.9609217815061452
Ni 3.119227789433761 8.691040080147468 7.736336056904214 1.251044290894697 0.15792821190977316 0.1903048284682658
Ni 5.952657615945796 8.176906178595155 3.293263572611421 -0.7806493975732168 0.6235087145617455 -0.10973005493799168
Ni 3.3561447722752313 8.574057309705674 3.4238557698590104 0.0507458630942997 -1.0536974679779854 0.4377120583764785
Ni 3.2502845655080552 4.749699064611745 9.248469995531957 1.4177669611676487 -0.2510900780764385 -0.5922559271950509
Ni 5.099909515447654 4.954942702738521 10.99684226753863 -0.32372065705897146 0.38094518589907944 -0.30794899604701154
Ni 8.376665964689073 8.862569870477554 2.4912593221947312 -1.0853377205910857 0.8025991623714306 0.09508633688288785
Ni 4.48881527994561 0.3137437457562803 1.4452837782816794 0.6249431330154269 0.0432032748603514 -1.2946630560259123
Ni 6.362142859435867 6.045436740455192 0.0926852978051793 0.24883702037620367 -0.3773880646754404 0.25345883541893127
Ni 8.29096483524534 -0.09570050548437518 11.401484049025594 -0.5710181008621973 -1.1101925748512365 -0.21672394189174288
Ni 0.5079504484627718 5.195940691743977 5.620293368627448 -0.673722359301659 0.06984684558980875 1.1368173765276164
Ni 7.515081757094797 6.500286739964584 2.3887723220849755 0.9492638855522426 -1.8139040243158178 -0.002123731211222149
P 8.69632352562763 1.8062642594472351 3.5213699546452824 0.7071145616088597 0.4449900800951304 -0.023624067176843188
P 2.2076603657194025 3.3270129470242695 2.0195687956867605 -1.4968872616395832 -0.564455617153331 -1.1806382303673084
P 4.795109367574861 1.137270748993623 8.174762739420187 0.7078267571845358 0.2252489486436185 -0.5141023615117598
P 8.899189613288332 1.7598974706644344 12.200941314345297 -0.39758999354461205 1.896857582490914 0.04176242864876679
P 6.871585425777346 8.042196537628543 1.097464541994982 -1.0395880251597966 0.7139860919177123 -0.24609005375868587
P 2.3717933323772615 3.573330819064924 5.729673443211063 -1.779652816442432 -0.02492633092803449 -1.0084241979624826
P 6.7726392450781745 4.113371822247548 5.734819336920966 0.4457801800965936 0.5127525323520846 0.17779204071323576
P 2.457066320549324 8.753339189869585 10.031034810337154 1.3381815481338373 0.0961381751861699 1.7084047196297225
