# total energy = -340864.7026076085 ev
CRYSTAL
PRIMVEC
9.27725663461932 0.00000000000000 0.00000000000000
0.00000000000000 9.27725663461932 0.00000000000000
0.00000000000000 0.00000000000000 13.57820284423857
PRIMCOORD
 96 1
Ni 7.8272027289246 2.4103703896602164 12.221101576705008 -1.5479318869212242 -1.093100138145324 1.2175394742690322
Ni 7.070327037105271 3.1877580955339258 1.4144958721212455 1.3530841762772827 2.307412106615994 0.7606711546790771
Ni 2.125076198705764 3.297777080007418 3.4865840927749985 0.40116305560785104 -0.24224034099529246 -0.0440288560854403
Ni 5.9127480838491335 1.633622814482912 0.6595684041605411 -1.5891754669520437 -2.0577682740677785 -0.973916136883284
Ni 6.066648491424037 5.270632054559284 8.995355899104835 -1.4945318740335294 0.8888565881087789 -0.8738076641954564
Ni 1.485446474149779 2.039447121490962 13.02003014437558 0.12765989994353497 1.583169627077596 -0.8090557166300517
Ni 2.752719707902971 4.449752570355891 6.1003741018681295 -1.137522630124757 -0.4555629705149703 -0.8719143038274856
Ni 0.7350991877081371 5.321786846732895 7.22205563894063 0.732396733214416 -0.016169153560694732 0.6664427949211102
Ni 9.427733569580296 6.368428367125044 2.9088448015792934 -2.010745111240705 0.23601852845529672 -0.5417347785170477
Ni 1.3674861581382722 7.45019358051126 4.933748895828444 -1.1107044814906484 1.9605592344149332 -0.07396215330976295
Ni 2.6499833697581474 0.8178337609044106 3.7463751056944026 -0.09603970193509268 -0.3393226252622866 0.003749953960735477
Ni 7.9134719368358075 5.546806702404078 10.475447540820337 0.5660882676607477 0.49025949345589126 1.1476471201532688
Ni 3.703156078704925 8.729388088827942 6.431574013285667 -1.3936273878069676 -1.2113091770886042 -0.75558242730226
Ni 5.1999115284911985 1.3301730326173693 9.58854646095073 -2.5569114431665447 0.7845111945214682 2.756857137158684
Ni 7.10150789609974 4.642107205997462 3.6545729420247004 1.2058316989138007 0.2982068290585832 -0.40198529439883035
Ni 8.42155016465226 8.415714770332855 8.210725439105277 -1.9077050667283788 -0.6233004552056813 0.3104676487038073
Ni 7.712071976136334 1.3500078069494654 9.713166919381793 -0.2528777661044806 -2.3737519674938086 0.288656980586619
Ni 3.24813448063836 1.6467501323874565 7.549983462001325 0.1949911782003416 -0.04269445354473292 -0.602785108861149
Ni 0.5991957299586943 6.705174222460134 9.33536734871724 -0.3621789610351698 1.1059836789762114 -0.4330925573265961
Ni 3.502507575779493 7.747409046029203 3.1994455832343816 0.19608595392641714 -0.44941649129760014 1.6383884383415845
Ni 3.2391726508886856 8.800776577361844 11.29741803038456 -0.9573574611936545 -1.885759158584907 -1.8018653479837288
Ni 4.927457060490732 7.24014721678208 10.560677696006945 -0.11984400344354199 -0.6658437278845307 -0.5131235425382582
Ni 6.140374848588287 2.4775841127827776 7.925284667498604 0.1947880610506 1.6516386184832714 -0.8087628679799812
Ni 1.3604447204778132 0.45215399809179857 6.065328337828406 3.152324170823023 0.3190990991265601 0.3330180232004974
P 4.226142857668092 2.343917401568165 2.0252835340387585 0.23743700606937818 1.2326264505091418 1.1388812010351805
P 2.7656150943957742 6.945371669715653 10.058949750243961 -0.05173856602487218 -0.08081414323458985 -0.5934928849259457
P 7.687747009672932 9.45853406105951 11.823871720090434 0.9766571899635309 0.6872509899157132 -2.7887655558315068
P 1.859254969081092 4.447192047570269 12.562444312620805 2.7198453358210255 -0.2211328695927159 -1.196418376019701
P 2.4556712330014814 2.1740601128654773 5.364408418405727 -1.217119098902162 1.1764591592889546 1.537174134184088
P 3.4095309114407337 5.5719573446932795 2.4069674919871513 0.4146616043149181 -0.3632945626968518 -0.06301388182837535
P 8.011829409926959 2.8441377931548297 5.0730608176048335 0.18918228482804836 0.7665862346119313 -0.13238995842935264
P 8.296010330105055 9.038766037577588 2.0945874230439303 1.0664123444414926 -0.18044439073441826 2.469115469297483
Ni 9.103048147655743 4.359280765263935 12.233077587081668 -1.1043044915015756 1.586050805280133 1.595852107641271
Ni 0.33174541409795305 2.6924824816455804 10.829499190373898 1.102953891010952 -1.1800803009813094 -1.1385636697947616
Ni 3.66563885354169 2.772285441797447 10.896303786486147 -0.5160908526966982 -1.6025048370710981 0.2295126090159789
Ni 4.098636244749324 3.65759547218251 0.1433772155613869 -1.021265315591209 -0.7189089831406265 -0.209402211419349
Ni 1.90422183118945 5.604260751720576 3.8878606886616294 2.490382863316692 -0.2432304728227037 -0.15675553175791068
Ni 2.263149606743456 6.786943960983565 12.453628588311425 -1.7407006035489505 -0.2472236531424968 -1.5254817854478244
Ni 5.357745492809229 0.8770300789859067 6.462980309612349 0.7639670518215295 1.072935747382307 -1.096717423182937
Ni 4.415575157521727 6.586824261676902 5.301052178523244 -1.2143942437718311 0.8515383112742948 0.9907409217501066
Ni 0.44165028831686914 8.928255358511205 10.070056481689418 -0.22654067087184854 -1.4432915878013144 3.18901792669963
Ni 2.86179241221656 7.1700668214103995 1.0270609428873214 -0.025191411663963065 1.1420683405139105 0.6788781924709856
Ni 3.623371673065998 5.013095414962003 11.154317277065969 -0.009675832526867207 1.0942550776853734 -0.2161032775886085
Ni 6.7275138560390335 3.375900856738279 10.01256625107269 0.13524054050427028 0.05976914963883255 2.1201787179842
Ni 1.0194591589360962 8.638944115505396 2.939463458831703 -0.480344034114392 0.18916325866465486 -1.2527954692578487
Ni 6.311187694707348 4.386518790258806 13.142016789694912 0.9602720637372882 1.0478736622073566 0.9507906066094141
Ni 1.9512853532599475 8.488559788132488 8.293307865295448 1.7046668498538449 -1.5899725089320422 -0.5720318868386923
Ni 1.3382813547718369 5.1682204203909 0.9075003001348012 0.3283293594755765 0.7230304615081677 1.0452601358439093
Ni 4.884855898782133 4.582213238229449 6.8429257096983305 -0.9441111377067095 1.7510392664707972 2.7611565358649868
Ni 7.620421959472734 8.886888071913068 0.18260331136633015 -1.209883243275355 -0.006546799979582274 0.5884514658472962
Ni 4.30383988060135 2.44480756567553 4.534332389863976 -0.30464281449191405 -0.9665910639767805 -0.8805840636873414
Ni 8.526809916556825 6.45784256497946 5.773153205750421 -1.3029180969458527 0.8077246565234539 -0.2688479162804918
Ni 0.437500571497998 7.682932113565187 0.5858420469962907 1.318821912660303 0.39174150518363504 0.5395796798472579
Ni 6.173772971879001 9.096628286178749 2.75181239222024 0.4191846889962523 1.6950385827354613 -1.820786610368264
Ni 1.3603797796825257 4.889299704631092 10.240422164046644 -0.20746000009131368 -1.2131596000337816 1.8949649934538915
Ni 1.1091980607669498 1.7528077283484116 1.8319436537601108 0.3155815728916048 -1.2600981735668493 1.3084937912614174
P 5.847501139098137 5.278072414247939 11.314607858897162 -0.48039905572204367 0.6452594759752758 -1.5932583787721657
P 2.402327008301036 6.799245603062312 6.548075016854499 1.317706568108937 -0.9213172797406454 1.9969922804309863
P 8.944638993436593 8.788372885461932 6.256116044852256 -1.447327705543901 -2.8257627018811466 -1.3137982341934664
P 7.954616569278673 6.240949585975684 8.452824723937072 0.21741762552465782 -0.2140926749164829 -2.0494307007363606
P 4.5017237610988285 8.338639323583063 13.215596566206942 -0.7611743195677407 -0.1632794489193575 -0.7198474357944957
P 2.0239912122125374 1.141705567436578 10.663356515161656 -0.7441433322273829 1.242718544637821 0.11556620200379451
P 8.951754649148809 6.996285253221053 11.846493382266011 0.43529599273581804 -0.01627893966568164 0.5367429817294112
P 4.340141785167062 3.5273427913487265 8.915190198225005 0.544564791766675 -0.7850619248186157 -0.4007059134657744
Ni 6.412003640762956 2.063744256184956 3.6996669025466926 1.000081482424742 -0.17445629147178343 -1.3764678453085455
Ni 2.9543237682447763 5.111833255568411 8.58609529630043 0.43270174964608066 0.9457939247257711 -0.881912809801094
Ni 5.953660784880259 6.960465765991763 3.439005682970436 0.2524918435199716 -1.3098955567049506 1.0233875041405345
Ni 6.650549736366878 7.059546865087546 12.30391500658127 1.1389891873679545 0.6075647896379794 -0.0654173490635454
Ni 5.7161908510268145 7.50396455900931 1.0428684601859457 0.07306278142394514 0.5545697254981868 1.00803056206849
Ni 6.024000943433089 3.2856331512886556 5.664296661512574 2.0795542595946186 -1.57380052715787 -0.40801710241520694
Ni 3.6247910933058534 0.98820408188987 12.863948653804664 0.4321337929577525 2.220893199687143 1.4264580611837434
Ni 0.5753791571498277 0.9654098627439579 8.481312395378405 0.008070692823276424 2.3644458596015343 -1.9349304781032353
Ni 8.128333196672733 6.168958075771256 0.604421608528044 -0.8105212454319848 -1.377172070464422 -0.37486632669485115
Ni 5.548996134930914 0.10460848850039707 11.611956916908268 1.13727271889748 0.4611348081757929 0.4720504266470321
Ni 7.775751064543962 4.338267779360194 6.958434974550557 0.1587972447782878 -0.032600816754156756 0.756116188318543
Ni 4.53050181066766 7.031427500728059 8.039979389232796 -1.070136330260299 0.09315826662223956 0.3535925049177394
Ni 4.884289986137484 4.59075759143799 4.068559379274742 -2.1642515399336983 0.9504512209921243 -1.4787918375904532
Ni 7.555416223389948 8.63387873347297 4.63584320242916 0.6441909255014454 0.16562943720877282 -0.5365529772057921
Ni 8.966626091269646 3.514206196187713 2.6740643443763994 0.5414452723010869 0.3545157880629572 2.150398178990374
Ni 0.7875351690002046 2.647664055640737 6.909851837870332 -1.2861002540575657 1.2455997228403581 -3.498453020373865
Ni 4.417755312792093 6.129872994264653 13.0959051141382 0.9214687177168452 -0.6055742415705119 -0.13207936916746932
Ni 6.352313772637275 7.820096350468854 6.780899828393593 0.5609581455230338 -0.12248221239733746 -0.31801820735755554
Ni 0.28416793201903745 4.392474788912317 4.8192981659394025 -0.6948023199004099 -0.628072422673028 1.0433325798038935
Ni 1.787096468260211 2.9923234107444325 8.743724233250482 1.82458104441369 1.0398893584502993 3.0291076513628217
Ni 3.98370959160339 0.3255352186171742 1.8052631918790654 -0.2864370901171647 -1.3106748580731362 -1.5752503722305193
Ni 0.6083700088815239 9.227762306377148 12.35889388387167 0.010181825629008271 -0.7571505431203284 -0.21041831138868924
Ni 0.046596876070074345 1.4404332257590724 4.265850443083811 0.304120880550173 -0.5636791439986228 -0.6183659940185415
Ni 7.807915312724213 1.248959929482117 6.635599437566049 0.125664466780061 0.5166629231500844 0.04074144358342016
P 6.3600881135588345 5.662893012608717 1.7618938733347798 0.9777316539746322 -2.477548687666501 -0.30815108475548864
P 8.844936318157343 2.9585449199384635 8.814968924309103 -0.7850521546266027 0.8258859008135131 -0.7578231437073207
P 9.511136105242384 3.3101529401379213 0.7659785358673429 -1.6512647800836207 0.3368548804480844 -2.1676070866694928
P 6.308590062895848 5.587886394051656 5.50858162257221 1.3928036063540916 0.60145944807119 0.4326752672835193
P 5.553653317678675 2.581925416296849 12.196375832762115 -0.561152263811711 -0.7997480660758808 -0.14866658410218914
P 1.8830882409516039 0.18769652516816399 0.6084804082335128 0.4036786229408531 -0.8841797514583999 0.6537937386985321
P 5.321267320370595 8.959677426173883 4.6462977427448 -1.2054236648421046 -0.8087713526204134 0.822366574806345
P 6.109787734007875 9.367802492786405 8.38445876556098 1.8587443205589602 -1.9482205103439223 -1.7362394824538032
