# total energy = -340858.34471008205 ev
CRYSTAL
PRIMVEC
9.42751631119666 0.00000000000000 0.00000000000000
0.00000000000000 9.42751631119666 0.00000000000000
0.00000000000000 0.00000000000000 13.79812306938299
PRIMCOORD
 96 1
Ni 3.5187167704618667 0.5617790993172828 2.3830734386336774 2.2291340995396967 -1.4811999328113137 0.1880607696290955
Ni 0.9123177255532827 4.985025524085648 5.77302447719359 -0.3710155854901933 -0.3538619565290422 0.02815975026366763
Ni 0.3703241547744654 0.4047930400092953 8.09828367188476 3.289483782726877 3.945639593899682 0.5593198385886624
Ni 7.962847972173703 8.601845029560272 0.7414279651500796 -2.330014160286226 -4.322795487959659 -1.7783045299446534
Ni 8.580576552701846 6.906117665852363 11.354475223138504 -0.5498548365210207 -0.12645688077436928 0.584550073910361
Ni 1.725141214682327 0.18737942922991963 4.335618603158711 -0.057934924643571195 -0.06654554913071765 -0.19689790830475123
Ni 6.6675355098877445 5.327602612774244 1.6671167371254834 0.07734392529780228 1.4652485516883798 0.26901169555186577
Ni 3.5554369465982005 1.3687151044932744 6.15990994991894 0.2211912336344771 -0.4544296282414754 0.08209352416764572
Ni 6.453464896401807 7.03537834236206 12.876698576162694 0.17037466520324207 -0.4854751846933703 0.6884121001033499
Ni 4.46033710229678 4.683835232120671 11.931319493563839 0.7749749728962588 0.36140583031457113 0.9743951334022314
Ni 8.165652703635784 3.0962603358417797 11.477678720401066 -1.6529133714306372 -0.7956605262700684 1.7724922941382504
Ni 7.1196037733253466 3.6529834581470175 9.357597163034239 0.5636986843826485 -0.5289682228799987 0.9139927210547744
Ni 9.603433792820914 4.492918598760752 12.691996561572754 0.2029788243915085 1.9013474999414677 -0.27872558040552
Ni 9.431098794163104 2.3042075507085173 9.920270933651993 0.3919939875140733 -0.8058194690809412 -2.2131922314984593
Ni 1.4591155586579216 2.8925788453602688 0.24247572021219438 0.1907663414857166 1.8074089035097776 2.50456738234719
Ni 5.550827344624336 6.679150210016105 5.955683548993095 -0.23002168744191354 0.023181837433102013 -0.8012444481157491
Ni 3.264758335350044 2.557355219415276 11.785156223011823 -1.4387386783233094 1.079955887453882 -1.9027862892705232
Ni 8.245899722704454 2.704688444744832 7.499638269927906 -0.28911617961122466 -0.7996354517574165 0.015234814671883439
Ni 1.9335836009145049 7.137167236262956 4.689927293178258 -1.0718445712006575 -1.2078142765614681 -0.9138330555484585
Ni 0.8348791636016892 2.1479653224395943 12.119167470355755 -0.7180108968063892 -1.3599562208067675 -1.2442383237164572
Ni 4.428990610473081 6.292942575715452 7.851325167653868 -0.0833111986248307 0.4199727321151864 1.5465128950865108
Ni 0.8309695725763393 7.5682404208159335 9.09769562162297 0.061410284786681334 -0.4521781132031374 0.5735282688785606
Ni 2.455047812115792 5.629113440294712 8.947296567980311 -1.004576027860986 1.0691420846678297 0.06621413393322789
Ni 3.1348754427620418 7.364370380007664 2.839184221076995 1.1310647903145554 -0.6568790624920752 -1.9987524576552032
P 5.3508414405473035 2.518108468900371 9.717493541987293 -1.0695652882481772 -0.41189663997527126 -3.737342956839686
P 7.180514956384871 4.8884877567849925 11.280296696336574 -0.18468388273706257 1.8272832738362015 0.09169376626157112
P 5.413402438965971 7.553118684609854 1.7912450737407974 -0.3529145050141083 -1.1048102274934004 0.1676356690055242
P 6.16090078188606 7.617555758779774 8.520464823027778 0.4215758149362481 1.151605076359752 -0.3329923121688846
P 2.4100219940857204 3.0728046751929483 6.920820820333037 -2.4341021864470918 -1.3013579515475846 -1.1481965648988355
P 5.204601807112951 0.8632446747593272 3.8925470185624174 -0.7006153270377612 -0.48570401287472476 0.5943210372541958
P 6.459225108884297 4.105221416878703 6.538971526835422 -0.2609949958949763 -0.63006399918176 0.7283927542613455
P 1.9296806091505918 7.720023433857004 0.9308597646867719 2.1746951038645257 -1.2425817619496407 0.33583569515495065
Ni 7.780048430380762 5.697019840476999 5.920071106026471 0.314508137321768 0.6342500122386495 0.51035600709545
Ni 1.571368995693948 6.907324387943621 11.66515431029763 0.2997284079094322 -1.436456567157352 -0.9164165000049186
Ni 2.472516999890022 2.6921875580807044 4.33189284870195 -0.3828328898400955 0.35104685567775024 -0.01958409277951466
Ni 8.35096939229096 8.42392894123039 7.965035155964109 -3.995349816640616 -3.059279804070828 0.03803895705059255
Ni 7.493970447105528 2.5498320613775887 3.147268855739917 -0.30719206327632903 0.8749227516365062 -0.4200596354020379
Ni 5.5744904106326025 9.067328648746784 0.17526789899054926 -1.9054790056113375 -1.4042961803747236 -3.943392963957351
Ni 8.299815688641218 5.204300126590136 3.725355672818594 0.20661102182745708 -0.8224915304199835 -0.45747330016380566
Ni 2.492795587532963 6.541725304357739 6.760142002875472 -0.5146255810050814 0.01678416143687432 0.35048224142353185
Ni 1.535987526877604 4.226336719272407 10.486697798523888 0.7513683892209124 -1.4289821131571776 1.7083741235021033
Ni 6.185591447175162 0.12002076774686724 2.103565491494363 -1.0659099508837773 0.13985644200972688 3.7813425023490876
Ni 9.427412635274962 7.862199807749699 5.660003640327654 -2.373104820828113 -0.524522014183187 0.03935844719296447
Ni 5.533650409856583 8.914348341130793 11.353358062452456 -2.0713295576919815 -0.905606296763292 -0.037260427013355184
Ni 9.063915887832444 5.126551399351023 9.687220844274487 -0.9024847204151747 1.273130324160459 -0.2380227033695191
Ni 5.918330786510485 6.63944151120064 10.530548005266617 -0.2695521414363681 -0.708294955070206 -0.30502565175262947
Ni 6.5317227095231685 5.489906734048472 8.314763015795045 0.7553538562312216 0.7312081122229537 -0.9189179262705336
Ni 3.395687682251558 7.793501496195023 12.951732178696476 0.8463426260059682 0.6095838769505373 1.112646949929
Ni 5.553344491486571 2.1689698288405572 11.631252018794711 0.8367621814063847 -0.0916739687672292 2.1451924664197186
Ni 3.4008068236230677 3.4006182732963084 8.734239412500704 0.6909312669807779 -1.2508116060586008 1.2446849243355727
Ni 0.8867418164800455 1.8968634247781713 5.818171910184421 -0.8999123317023082 -0.23002245877286193 1.238101357580784
Ni 7.2696426958438956 1.325508797116428 9.274242834580578 0.33385825971360567 -1.8165761718313425 0.6418409372120301
Ni 4.978907065982315 0.12842728406542142 8.841906362838316 2.3619192365249386 0.22272206845670675 0.3100868683256208
Ni 6.37518822824777 4.070377316493623 13.448906394053022 0.2280375671323492 0.7931107632650212 -0.8539888296973164
Ni 6.5333913799149865 9.111449425208411 6.56414016720286 -1.1424537488777875 -0.10498919781889661 -0.26280505252052155
Ni 0.7173896839915628 8.861196004017405 2.2436715827992426 -1.2690777513576401 -1.6046722770360622 0.10749448073925358
P 0.3150345997072626 3.4032391228382597 3.391509407010577 -0.7309926537780378 -0.04230056054042392 0.24178011352942236
P 8.645880958374857 7.45192372423825 3.60975452473096 2.8122132453314856 0.31133385335884445 -0.11212915129778754
P 9.320796853009034 0.7208637237620991 13.862974224635598 0.06113080587304956 2.413766560213533 -1.4458668047276584
P 1.632365026400515 1.2570933110518907 2.4706503516551073 -0.5765470011002264 3.4472430731589534 -0.06021137938257372
P 9.177357191927053 6.39768228223013 7.504744212776542 0.8427261122993035 -1.0415472057686967 0.19386400657443387
P 4.063542367148606 8.62623401432656 7.095022467225763 -0.5005215375035315 -0.6382015406872299 -0.3456773638357208
P 4.319895391410269 5.059936568907036 9.836350954218057 0.25276720866854535 0.813817142574437 -0.76340449444984
P 2.071894693108638 1.803323607672985 10.079431920979147 0.10513060849276733 -0.37524273619766346 -0.4085693753742512
Ni 8.042661325490828 3.2055346777150127 5.255221913337964 1.4687208265076963 0.39994718092287895 -0.21470408324823667
Ni 0.7342847360208113 3.8149858988984304 8.045740352326803 0.7526364573000587 0.28315919069684137 -0.2539267761942853
Ni 1.7913789444727963 8.832951165068893 6.512838451546611 1.863932806738435 0.7813086284237706 1.278828660096817
Ni 7.300989187667594 0.5626011787419525 11.818409901390691 3.2002019683409078 0.4199922724992122 0.5268488625441508
Ni 0.4047675857151828 8.171412916118275 13.392237593345577 0.8442949994483202 -1.2119882054334998 -1.8951580833013038
Ni 8.153057541808277 0.8698429934442616 1.803221790496535 2.6004224790753017 4.441942722446491 1.5042673561537383
Ni 2.136746577997428 0.7376447028436585 0.10909333355954397 0.4978635310553941 -1.388395707094383 0.93149139206017
Ni 2.007825292075898 9.308588219351382 11.6662441311863 -0.23883594329943386 0.8628161981809592 -1.5385183069168082
Ni 4.470895920595289 6.039596929165596 0.4946740380237214 0.00978793262469927 -0.21353885929554192 0.0390573710127779
Ni 0.2511028404130567 6.206002020046835 2.115528066975594 -1.6486839067303218 1.470223893415784 -0.17453753833168006
Ni 3.7317880672159807 8.494550466118008 4.9172096280602045 2.0536347115153792 1.005355329229172 0.13680325700569987
Ni 8.103657356197393 0.09680739426792143 4.117857117026464 -0.19511279137987045 0.28670936994194496 0.7274324472306053
Ni 5.782555696211261 2.568507971243077 5.051685606608058 -1.0195570746508507 -1.034678246563005 0.29863568906588567
Ni 5.743601198702833 4.517939227121683 3.818395831557869 0.599322090013213 0.5910228261188983 -0.2702630514604636
Ni 6.726250081640526 7.131633284172577 3.8530843779233734 -3.0929190893918284 -0.29607769853072236 -0.4403240420780288
Ni 3.6621187214784956 2.9334282736526265 2.3285164015859334 0.8501982523066325 1.016202813466637 1.1743351709674164
Ni 3.866281015293242 2.611695423587247 0.17620876512107714 1.4139383314501777 -0.1156333077963041 -0.4778207534719061
Ni 6.303887922183818 1.7782181316650119 -0.00022531764047711687 0.8331240704331652 0.2843727513889683 1.5317524489478846
Ni 1.9233547456878242 5.5350456822746 0.8972836652491464 1.8456422359593634 -0.6943145816307139 -2.857149957943176
Ni 8.640083035827015 4.0325918310111 1.0136145031013382 0.17355023471774628 0.35835290242086026 0.9830486953121715
Ni 1.955153758295745 4.8000765085676536 3.0234997074970793 0.7232081247366124 0.1535460236816775 1.4130834396490504
Ni 5.741131189422289 1.9788451068530253 7.43026211994853 -0.267294712860759 1.0022090702907063 0.317365404264905
Ni 3.889123887380106 4.242306931948902 6.304969258307781 2.0869163563866446 1.8245789875311609 -1.6474549194192272
Ni 2.783823016885624 -0.12221926455687826 8.953216105488913 -1.8271680884145758 -0.4338032102403755 0.584365982924013
P 9.027921630454133 9.32763180235405 10.098887486445786 -0.6705277636237612 0.07041145984402712 0.8114977504126412
P 8.388462624767005 6.400161719027011 13.824615546159729 0.004439523828592354 -0.8055168502388579 -0.18492119555884926
P 8.441530114233352 0.7295540083224257 6.392491491734451 -0.06873021548686227 0.29020247069686794 -0.7926317667460736
P 2.4206562325149337 4.538444075156735 12.628125138383112 -0.7211448144496807 0.2174590202855545 0.5707172817923267
P 5.9020588933111755 3.2729131369823743 1.8291898842494312 -0.7322141848899647 0.1338796556010017 -0.9593292402080447
P 3.9229686710333636 5.507253364110309 4.20490891738787 -1.5002350950658938 0.6935494213299152 0.21420040413894076
P 4.004686382650755 0.7879584147876887 12.604668534982645 1.192895707578423 -1.6383997511954944 1.2438094637091546
P 3.641623300959782 7.912297629569591 10.748751641915113 -0.9247890403393298 0.12019444480442525 -0.873558524299128
