# total energy = -340889.3250477591 ev
CRYSTAL
PRIMVEC
9.10184430793203 0.00000000000000 0.00000000000000
0.00000000000000 9.10184430793203 0.00000000000000
0.00000000000000 0.00000000000000 13.32146917318183
PRIMCOORD
 96 1
Ni 6.358948894765395 2.217791784505578 11.376082061429406 0.4447879913866533 -0.5813361949587537 0.6701325850678717
Ni 4.699828312131872 0.2693144703843635 6.0656510647047055 -0.9855454935920961 -0.7307807948775479 0.12060839241339229
Ni 2.593015314925511 1.7641922729953838 4.562203875704592 0.5984929092436984 -1.771823293095684 2.671433263066225
Ni 3.30354168675575 4.2226277184050875 4.96531090607459 1.0013222968103785 0.611363080338147 -1.1876460291437094
Ni 5.01250396866349 4.305873186184851 2.6441522066406913 -0.1587144552564944 0.7906293916040642 0.7481251996932664
Ni 7.0931491635664585 6.170586227402374 2.633388365595825 -0.13469469530312933 -0.4522416194512212 -0.5621822477381221
Ni 5.234425135884806 4.794960788540583 11.337808806234358 0.8763054909166457 -0.08641246325797375 -0.5965398992823855
Ni 5.409517314288402 8.064752836708168 12.439973884642502 1.597755238201255 0.19087561337007125 1.282817726651552
Ni 2.009077393333729 6.498826037651835 0.4504520937583638 -0.4387176168228573 -0.2922801791615031 -0.38709500755055914
Ni 2.799090171256322 1.5875163736871651 0.5331705647543465 0.0588954887846276 0.16197847071974686 -0.47267391916364404
Ni 0.7682202321643286 8.867662927974727 4.846110422837754 -0.13704159826875106 0.4973716790206402 0.05502109343088589
Ni 8.680865777827771 2.3074449506580668 1.1001098819698452 0.15278986224194332 0.5003371894068674 1.5893994100373916
Ni 6.649780125026355 0.76168965889383 4.637722787875537 1.7965398220057576 -1.579390619651138 1.3832617283019273
Ni 0.6973004819077844 7.281639256749391 2.5564295416598717 0.23863462592190515 1.946062840570971 -0.8216654349742623
Ni 7.292288414556336 3.67506986839823 3.904123240796916 1.2960967031486452 0.815142289143764 -0.15383064480163183
Ni 7.786509457085673 3.8275166582345777 12.723961438189752 0.20491203685847936 0.171802141678388 -0.6121817195847006
Ni 8.034507408167586 9.04541284490792 6.565952139212708 0.5390184080271491 -0.7851015198072996 0.07504458774066429
Ni 7.075418770910108 0.7344077908506352 0.4085854304417936 -1.0566007576677094 -0.2931515260228629 -1.2713315803888232
Ni 1.846673185855673 6.396302863688218 9.384682270055208 2.5168855375929104 1.8886174539693088 0.20526479221220778
Ni 8.989108836195301 5.005249798772775 1.455876399873618 -0.431914734968411 -1.1726369573293869 -1.110617835314113
Ni 6.306358438518787 1.7905967232500404 6.931879956070048 1.147015914327173 0.9065141532895419 1.2767699777955752
Ni 3.3201616544100085 4.4335720614254 0.7454364955640332 -0.3912234278966359 0.33596964962965364 -0.306564199884343
Ni 6.041558482897026 5.753621639116927 4.855209536563911 -0.14914275240765926 -0.3998955017493371 -0.10994422783132679
Ni 5.562155242854619 3.136095057546884 9.285357484171385 0.038469102609475676 -0.3520256746512518 -0.5400373362099667
P 0.21311695324981433 5.605844095395932 12.70949405670758 0.6325335437681752 0.8362345910376888 -1.5683567304344794
P 4.277921422402688 6.114000061517093 12.735084802083655 -0.888334911277354 0.1424447715621934 1.0322089590869061
P 2.42028051419029 8.336552110580818 1.4519999243950044 0.741074206383756 1.029323410008995 0.3693451397663058
P 6.434685341014618 7.786045263027422 5.769487974064849 -1.5725147184669113 0.2396191013223615 0.09327396626449744
P 4.871489095242119 1.3321641324274631 12.85285993650633 -0.1514361764275263 -1.2574982740501568 0.08717710933814019
P 4.258397966423289 6.101048137107449 8.359927467059277 -0.7758342355727607 1.4641288362616398 -0.8404185472120494
P 4.659407021686876 0.8728741478737627 3.9037100170666297 -1.1222027119382352 1.1357197725880634 -1.1035179910445383
P 9.170381166864638 5.558978699201094 3.4628093986951107 -0.5823736350843326 -1.0837261531295916 3.5895618606662443
Ni 1.3370427209612434 0.9065072828551513 2.7611545944840423 -0.10621689957841061 0.8526983930206669 -1.5111316873737395
Ni 1.8181207003510682 6.455728804988685 4.780928475214969 0.5690064697488072 -0.4229662675258715 0.09778882341571546
Ni 6.342064973627032 5.6762195553645665 9.073718670432552 -1.0538869582809722 0.005377719372145577 0.6595887481137545
Ni 8.819878245507665 2.032014040917919 10.170009418542744 -0.6842474272026989 1.1979589810339433 0.14961095029332944
Ni 2.43720084270577 4.961133159550328 7.078269468538429 0.005549726173635603 1.2253237462001414 1.3891055886772141
Ni 0.5084144584986965 9.087854744782952 8.973421807579687 0.47217795336383195 -0.31913123791607617 -0.09333901517447796
Ni 1.6698789625718218 1.1892105661745715 11.325113553833397 0.06581355606069955 0.7480426672817891 1.6177352808676078
Ni 4.359610474810666 6.901600850705635 1.63704861025588 -0.5562589402751517 -1.0160171798183921 -1.0619016010553326
Ni 5.591863662582712 7.931347105104408 8.103742407048006 0.4192785342616392 0.09298728826201405 0.13523976917332192
Ni 5.421113063900409 2.755546948223479 4.960635288668241 -1.7873244740550764 0.680198453944306 -0.44232770277161887
Ni 0.9040170182602963 7.42690469144926 6.855894119287568 -0.44066856990164105 0.1562492815454535 0.7422666840299603
Ni 4.884923417398572 4.359838020917652 7.195511234886329 0.7060097585804551 1.289239828127812 -0.022026640782736258
Ni 8.07643050291869 7.316745070135193 9.102426797474337 0.6985967539458354 0.6238056769768741 1.4701650151533907
Ni 4.241068054915234 0.5849181902206774 10.883213552959994 0.5773124185113412 0.36998920110820793 -1.4611563838968773
Ni 8.148671840964608 7.231333363416923 4.6056051099666755 0.5231315615935636 -0.029333973077426898 -0.08266276640755442
Ni 7.650719042280701 6.52362856331331 7.056049136099031 -0.43466787223351594 -1.414012636331539 -1.3759698226262045
Ni 2.103490824044365 5.1663706462074295 2.64010188593634 0.6193401850063527 -0.2019688950697554 0.592359799762767
Ni 2.585770246879076 5.2093677585835065 11.675321575435715 -0.40154794975109553 0.5126532877700591 -0.49771620684425244
Ni 0.8607595931378276 3.3599458157554425 4.079779733545838 -0.12461802779341763 -0.09019815555265111 -1.857070532400963
Ni 3.429538517116044 2.4999398553239525 2.7379212267763426 0.7621425970182809 0.9089842120965894 -1.9005502008511523
Ni 1.0515815788251526 3.036266029489981 8.37692607143556 -0.6013285789202805 1.5515054632050957 -0.8465794246071228
Ni 3.771021510792091 2.4618759425473327 6.993811635100646 -0.3194264005589918 -0.6364184806448782 -0.46309167479184765
Ni 4.239702778273318 6.852478197129494 6.071512652420665 0.0951801821482748 -0.5187308614227065 0.26698026694413374
Ni 0.9030212764961254 7.619436003492264 11.499278254304917 -0.7129080283621851 -0.5145643887498428 0.17702688041243705
P 0.36545361077038124 5.77489264919798 8.152406327672463 -0.7265194484980325 -1.2699277580627613 -0.9966665432059223
P 8.466417224759875 1.5315582350571653 7.871229423638705 0.5044031319461247 1.44465864335217 0.6885915631040076
P 2.011098002763765 3.2232543183668056 10.451492144544293 -1.0682774226746892 0.5466640974978649 -0.15702549758984571
P 3.937630770327248 6.117431456810442 3.7458376178553072 -0.25369254869629215 -0.6002533435782308 0.3689023958019324
P 7.234437092316212 4.0759605996861845 10.392744290642645 0.3183385668114518 0.2738965344479928 0.23515540912405308
P 6.188535064321431 7.716334237691187 10.327309311748891 0.20521619836245947 -0.07573544316010182 -0.23955739484649063
P 2.659804648248045 8.294173923615745 5.980513323499247 -1.1086640540218518 1.0037836138666778 -0.6801897121935576
P 6.897869094551064 3.9747207857659688 1.675507543074228 0.24553598102742877 -0.42308042450623273 -0.5362436734954893
Ni 5.132903164791927 3.246054438286804 0.34603573618462297 1.9027448945096264 -0.27615062058949214 0.4110075525020986
Ni 1.6311779206956412 1.1428275677265431 6.895498974300697 -0.8850984066179273 -1.618342061213671 -0.4174072853808553
Ni 7.0795328045244155 0.5724040645208746 9.260712420415944 -1.8926895671561532 0.7974764964328847 -1.9125281991486354
Ni 2.580518482729839 1.5598467670776661 9.017875215040473 2.2563548829288624 -0.9621083456150785 1.309664928751383
Ni 6.407634659816122 1.804804702170247 2.6347199654139066 -0.4084225653837418 1.4563882730842725 -1.6911749860149972
Ni 4.014240993627299 7.129747679414089 10.76202886767024 -0.20451454430974458 -0.6173668633300657 -2.066198664223319
Ni 8.21080103001607 7.408682799201821 0.302132080118314 -0.014262680566601243 -0.32963573699182586 0.011034403437290674
Ni 8.030602716971707 4.129643277246324 8.103862551392496 -0.8430457004222514 -0.5229351293120413 -0.3068228528623683
Ni 3.0226769759807763 8.45072564522212 12.559055133719278 -0.4257001215172669 0.20061238104186094 1.0078035336593483
Ni 0.3760554389870735 4.97865420978825 10.420172698378737 -1.2179436516859863 -1.5549476561174251 0.3718871894618692
Ni 8.373469190978229 2.4351165203657774 5.828994921779402 0.4757101348868065 0.1644511006299555 0.2393889875894264
Ni 3.7810699468765936 2.980153159507231 11.638181499853458 -0.04745819348196342 -0.6264328301870761 0.07736757944688612
Ni 1.3548004191504317 3.5141583633820024 12.777353766917377 -1.0696228809589903 -0.5271833630654339 -0.4832545228929677
Ni 3.1805666686962297 8.373396376223994 8.097161773633971 0.1219836754943641 -0.402312595831262 0.6418522500659398
Ni 5.353877740208183 7.869163304987272 3.582316614084164 0.8713152367909057 0.08388763995359101 0.9652756875994667
Ni 2.8422511168294284 8.331509688850009 3.676446067253281 1.3520685905285745 0.19509427943710916 -0.2513068220729349
Ni 3.5325076814493537 4.4681408659987145 9.417532646428564 -0.1869233135905426 -0.8040225250815185 0.256253624555249
Ni 7.526952163768869 6.255542841906672 11.449523022551356 -0.09198378669816416 -0.3710893761509222 -0.34548195999546305
Ni 0.6969354979521788 0.07367942944207045 0.5210350757765686 -0.6787987453833019 0.31680181845195116 -1.1825832699088215
Ni 4.59689555517568 0.2712568039535961 1.6918799405640852 -0.3008170129879207 0.18629185065413076 -0.5904116748974606
Ni 6.30177110900195 5.609412018353473 0.17015260751314362 -0.39578867866981515 0.691485596822351 1.1357092310651022
Ni 7.723087806146532 8.980917176343805 11.217423262872341 1.2687908162448407 -0.35998863825207034 2.340334311265311
Ni 0.4036376678914898 4.7750914624785645 5.843395859798333 -1.2984680315942991 0.6933740720943156 0.8174177154415019
Ni 7.884117635138392 8.963723792499941 2.5968207960187444 1.1201424869750964 -0.6023212818508531 -0.006757887549123846
P 8.67143626715427 1.4923747954341742 3.7957257365353483 -1.0161732457802821 0.6399727736550398 0.7628743329779829
P 1.487123031284937 3.2511878784604087 1.6311742799579292 1.5408315284310172 -0.6400753606711751 0.7475798687127577
P 4.883303289116832 1.2253175824311118 8.399706167298143 -0.7942158234037419 -1.408021965965743 1.0126726888261912
P 8.833021308647178 1.7018173341483784 12.35394416269766 -0.7943893728671286 -0.9047676029120806 0.23966846650305818
P 6.400571628655276 7.9533007535064195 1.4319649447671 -0.6553685393848196 -0.6444418651699869 -0.5924019658546119
P 1.8818518139957103 3.0825033984295387 6.12791587123593 -1.2348193443954023 0.7190079706123359 -0.055383876086943326
P 6.704154542751732 4.145089106988535 6.188928263994303 1.6085428157350619 -0.45784585301187597 -0.3697130646286858
P 2.3107489201315037 8.655635465485163 10.170222401698883 0.6260003706353476 -1.292366803792568 -0.04651819816619731
