# total energy = -381172.78437201714 ev
CRYSTAL
PRIMVEC
9.16468028680039 0.00000000000000 0.00000000000000
0.00000000000000 9.16468028680039 0.00000000000000
0.00000000000000 0.00000000000000 13.41343597980879
PRIMCOORD
 96 1
Ni 8.888099479845222 2.416772036625918 8.454810804906167 0.4764357001989214 0.26122048164222106 -0.8806359999711993
Ni 0.11471888651510183 4.6556301332544185 8.884147669670241 2.080256684978282 0.9665157306541546 -1.777037233196456
Ni 1.8460140726245189 7.510501385544919 1.323641955097666 0.08755454728221695 0.06867185144510109 0.4722753981736447
Ni 5.4021116786451175 7.726467078433145 12.122138303625507 -1.4421960407442904 1.2855438673334636 -1.48852346305592
Ni 6.617183331287037 4.550181320932248 4.594906794067539 0.649598726780578 -0.6214384622962782 0.2711130581655847
Ni 8.17463827782292 1.9144284115768044 13.430068330699086 0.42690108380390346 -0.9660899559706457 -0.5752655632846415
Ni 0.6582458357370063 1.1312239919487568 5.319594729541488 -0.38980623583413515 -1.7410361325114982 -0.2995525444532002
Ni 8.154622615897697 4.423342144629552 6.6392757097838055 1.5809039709718709 -0.9428698091004406 -0.2609014077399055
Ni 0.41908158743150986 6.963855695593549 12.88282693652375 0.57415458960865 -1.4010547906192903 1.2319271104492717
Ni 7.558982544695299 6.527323640272012 5.789600779909672 -2.117586274666676 1.4121074488890262 0.19996909103090724
Ni 4.253337323790315 1.5356338425780276 2.4739477280420767 0.8118091110054728 0.12005586234403193 -0.3261236100735093
Ni 1.345595030452831 2.776100824521593 1.0084530172617223 -1.192337778192424 0.4378393279829621 0.20307112699499866
Ni 8.595993622453902 6.589185232760682 9.974700643078817 0.2967562126549857 0.47118859286736914 -1.3618583229254868
Ni 3.916810260651946 3.1734905299884457 11.42006513342934 1.0183075185144657 0.5963000153574375 1.0006751501446831
Ni 7.551504165514447 6.830143009014333 11.893720559520338 -1.5133484925194 -0.7703421021099378 1.569641253573858
Ni 1.5027967928170045 1.5551087883614982 12.1265776747961 -0.028824637541176167 -0.3958956365613246 0.12634323801464048
Ni 3.4195163744859816 8.55473423143405 7.444578006716844 0.10369593292876982 1.4587421180284297 1.175136840933105
Ni 1.6354280471127145 7.99786075819122 5.985517818023348 -0.02297100697387657 0.3405837513628973 0.1912545939760448
Ni 4.376299840297055 8.24274101764267 1.4980797318312387 0.0023672146805959232 1.144564881683519 -0.4395234005536044
Ni 8.766374195188256 4.2268880562462705 12.673068481649238 -0.576752175132497 0.05986788000022592 0.3452744719703473
Ni 2.309178689097474 0.5885722697020623 1.2290835324576128 1.1997888351538304 0.5500273575431431 -0.35365703960708766
Ni 2.5014170245111567 6.31665513263689 8.53204523224528 -1.0268556651947929 -0.038198365446592275 -1.6081247543610369
Ni 7.662845867313686 4.341849806791142 10.398820055308997 -1.4620539560104822 1.0130023042514682 0.9025549115314778
Ni 1.3769107432726515 0.5803817948565624 7.535682261325936 -1.2914617754797952 -0.6001402150391342 0.1171155487687854
P 6.783742232307645 9.220218331726251 10.987938539961034 0.7286763469400354 -0.15017787854039297 -0.4383954575967482
Ni 6.0438317627412985 6.427740223385805 10.115515040475733 -0.5650490277629558 -0.876781916332432 0.24573626996369288
P 1.3594336978095556 6.594289959726044 3.303166174865253 -0.8548228955628374 -1.0893800089812593 -0.023330447195824337
Ni 1.4242921407787887 3.102427598409608 5.040903214805824 0.5218238985257335 2.7806935774566495 0.966051903643859
P 2.7744695114159654 6.349895428334135 13.166414223512371 -0.3742688023201683 -0.8701039900916241 -0.3787965149871928
P 5.471360003510954 4.130603924292792 9.893589555943745 -0.6853995385292712 0.3695207461122217 0.9619831328911239
P 8.079664695162165 2.8136943433939674 5.204051021793204 0.08252161284399982 -0.23191119115514255 -0.5634495444863199
Ni 9.049223725407195 8.046341917341602 4.442932565385668 -0.8144087534118492 -0.9180141835093416 -0.9410877774993535
Ni 2.7586787671407094 8.411426124508814 12.439405790969069 -0.42176710501144776 -0.5946041157122534 0.43302288043092524
Ni 2.46713195525188 2.4657480885162077 7.269680163028762 0.5047016370231501 1.8326702491797273 -0.394890592335578
Ni 4.8355694676133165 1.1986393807408549 10.77102980146287 1.9812162485436524 -1.584162844228801 0.5736447398517669
Ni 5.914151535524307 3.434720579217642 6.73579812342687 -0.6990958050694412 -0.9366112297852386 -0.6774149776618978
Ni 7.84876973795334 3.688683036914465 1.4213814382936922 -1.2358858379867037 0.6617309912677378 -0.46945644066761083
Ni 8.526699474186222 7.406702215689113 1.8770759237981267 1.132134112119334 -0.25110704735730305 -0.1488920698494339
Ni 7.56815638974436 0.7101564182813513 4.727149465915616 -0.49368574552862077 0.07085291825681991 -0.8332716517546229
Ni 3.5450908248977995 6.426118074960547 2.5715570727768675 -1.8161480831549885 0.2930931619811017 -1.3459668485062108
Ni 3.7498206196540096 5.82661967332293 11.286413850208593 1.7517879717113638 -0.6842731382343119 0.6296449093664704
Ni 6.318304775103254 6.955552495179513 2.3170639800866963 -0.4976598996850204 -0.33190653530387354 1.9604818442097784
Ni 0.4590011021814584 0.4327488752653402 2.757721974510218 -1.424830295772333 0.5758247782222211 -0.17301158860545687
Ni 1.7974595960311888 1.8866960887811426 9.527201214760069 -0.39527960024388054 -0.0144763392393041 1.2614287194528147
Ni 3.184909721727836 4.889485282222332 5.606708585535981 -0.9887586012127552 1.2819931738677275 0.5888731267657471
Ni 5.9952589567872305 4.55717397205356 12.513783587437262 0.30546556750352555 1.162431991771927 -0.0480757724613043
Ni 8.402994618569618 8.757777725002422 6.704464997714349 0.26729008487506867 -0.07647643509118442 -1.220269985826318
Ni 5.236047670364418 6.207595436249456 0.5052717404269105 -0.0038437992261224126 0.9877612702964925 -1.0201461143851012
Ni 1.5513787634514407 6.1974043116794695 10.953734119889003 -0.5469348346607483 0.050103601524610485 -0.5999111297474635
Ni 0.2822538259949755 6.917189143156169 7.461599567565615 0.08261751499191577 -1.2172049737477488 2.1519827498686745
Ni 0.8356740476748831 5.240070965046275 1.1833270327808443 0.29017264590019703 -0.2785224632557784 0.6726458384080286
Ni 0.269911750942458 -0.13622380900023756 0.5011210566879298 -0.8229720696008277 1.2624700162331355 -1.6442343555994003
Ni 6.365988607061558 2.447437057139561 3.4061276929353594 1.3920394744945574 1.3592404256866657 -1.825596887272714
Ni 8.328018368473348 5.467822436888639 3.2038796936229916 -0.6843497571085182 2.378133641501272 0.28223539333099135
Ni 3.938163965910998 7.556407269511697 9.67931016424336 -0.37759349581802715 2.1962790006828885 2.3051197110373915
Ni 6.545368895917967 2.6413891877821896 11.623507290593748 -1.511559261829461 -1.4226818819707627 1.1844563185618182
P 7.0878996443837945 1.2454892267856084 1.8475399919059061 1.0034370291605363 -1.2088609726584276 -0.8750461645882478
Ni 4.772149879461969 5.950590304670226 4.10897802802679 2.602068242208841 -0.7750935007519941 1.6335012854526125
P 1.58998956184474 4.605426014194724 7.11664649729627 -0.6993207765960537 0.12643271240465323 0.3226245957813153
Ni 2.122952384005653 1.9422248871350474 3.1657720361819335 -0.08285945579939279 -0.47500976638567216 0.8950210650482779
P 3.424776901017611 2.48829320222319 0.553199352883022 -0.22188414593644368 1.1321868197341405 0.01165506774042509
P 4.580965482290685 1.4485968731165602 7.163016114089705 0.01844843651317468 -0.46089878090558684 0.7178121505320219
P 7.694491508626779 5.664853900135147 0.5243370249979004 -0.6034253135483091 1.2952040161310467 0.18726269920783234
Ni 2.3712968926364684 4.2438793736498255 2.9626387287459495 -0.5259903711985974 1.0343224058854832 0.17696183150245653
Ni 5.7213908133296085 0.09160464615722379 8.776625806648674 -0.47200414679012903 0.010644367087723603 0.46722138068950503
Ni 4.106775755334193 4.519534629779343 7.758130132638939 -0.21269116658326595 0.4783789399682213 0.29327982407061104
Ni 2.0481685921971264 4.0137175908704945 12.439258239615132 -0.5230726833311701 1.0820559645160204 0.029729151633316537
Ni 4.437538234520655 0.907049494854293 13.156917781714332 0.11179285100429134 -1.3764048532810942 -0.8204089368593419
Ni 7.145921235797983 7.382388318670973 8.249263520661069 1.0108814012537237 -0.25536196597891503 -0.34134505500895407
Ni 8.221763064278734 0.23963989521663157 8.84243187756803 0.43403280975267833 -0.38025638736217093 1.9085280768503068
Ni 5.840220058990068 2.4915558284344446 0.639638785184451 -0.6446035875588318 1.0826205787702385 0.0718034550955473
Ni 3.605678526815222 4.735747769037523 0.9438539347469231 -0.7852812399182734 -1.9083241883696165 -0.7518545848287116
Ni 6.732529998407394 2.3478719696140917 9.295028701107846 -1.344448869199788 0.09379667153718685 -1.0803029863806555
Ni 2.710041808424061 4.330421450371383 9.594926369748627 -1.8308205975654985 -0.5561368128749906 1.4261271602068857
Ni -0.06641918803602137 3.5273938271058554 3.1543702573352435 1.92361016799441 -3.0869039935459996 1.856578166145577
Ni 3.7726131797309463 7.331084437967036 5.601062225960829 0.5147528506115651 -0.09221132932793798 0.035296875529081145
Ni 3.14816851812975 0.8514996177355403 5.363778570066989 -0.786841899537174 1.076348629718598 1.200309740654307
Ni 7.0281184343388166 1.505042139507334 7.028895599234082 1.0887624300019183 -0.1251304486534619 0.21278706873118192
Ni 4.1060242515439604 2.575082725314703 9.13060608708118 0.753032921407529 -1.039750775989906 -1.4771285909554173
Ni 6.702176577026286 8.254673431482708 0.489096996044206 0.8727085175940067 1.8572065437581948 0.25178530437125024
Ni 0.5185431140688133 5.889791815104323 5.401832155893872 2.2833753773817644 -1.337813109050825 -1.1784026561685705
Ni 5.406987288601261 1.7112657771636408 5.155897041731985 -1.8626218012364955 0.4575887426957474 1.1681087304417301
Ni 5.672167315069364 4.657783833141061 2.217160715855622 0.2339269360335907 -0.8156148579048081 0.4058900287698752
Ni 4.9707210090104175 6.888732810611381 7.858851802826937 -0.17020368684301654 -1.1924601627029012 -0.8753721804690987
Ni 2.320478739992071 8.497473308490463 3.77136220086062 0.5381455185038925 0.0029423704577755776 -1.1075157993500215
Ni 9.151162465148156 8.47248122512504 11.320456971906138 -0.2820160782313337 2.0645606143992636 -0.8786333677188739
Ni 8.423899254490605 1.803728237403374 10.86511166072375 2.18817591195978 -0.934796545174003 -0.02914371144349174
Ni 4.746470445068892 8.96917024238667 4.1001249467906336 0.6144543176689612 -1.5459701352091633 -1.280818693943652
P 3.7814387669259966 3.418022531585885 4.365375541297575 0.8681494374684146 -2.661658443067648 -1.438230114118007
Ni 6.602849771190402 4.9692363307906895 8.190659972043468 0.39346594407390945 1.1046058247920783 1.6291244965411553
P 5.416261945134377 5.4983041637949075 6.247710158691257 -0.0009165982769984214 0.6056421186939699 -0.5488644475832934
Ni 1.573144879327084 8.426630329240474 9.414340925423737 -0.31921582721008246 -0.34947873985968203 0.37425080459803933
P 2.9645908056644807 0.39191655835066996 10.686122703719086 -1.2696508502522907 0.05698541624610831 -0.6723033674669453
P 6.608146956443507 7.885630082396219 4.21570897913254 1.0094420977040357 -0.31980640960622986 0.6905612852358688
P 0.4870963463197205 3.796074761474798 10.829767154413853 2.523682505910086 -1.1472090041745855 -0.8285135682443472
Ni 5.961606250473394 8.572348747102676 6.5016267929862375 -0.4189468619538333 0.04005958702504714 -1.6885933413307501
