# total energy = -340857.42502775753 ev
CRYSTAL
PRIMVEC
9.40070343725399 0.00000000000000 0.00000000000000

0.00000000000000 9.40070343725399 0.00000000000000

0.00000000000000 0.00000000000000 13.75887971808696

PRIMCOORD
 96 1
Ni 4.995552618979941 0.9167359196750522 11.33805965103787 -0.14806700284497726 0.20494083321388573 -0.27171161098153207
Ni 0.6541629912493923 7.881737793243462 5.914571029454591 1.1361697156412884 -0.22569812036589515 2.108995190563555
Ni 5.1839897197952425 7.429422946362532 6.6310371828717765 0.05307785366158601 0.3860033171482771 1.4256669327410156
Ni 4.4357783308707885 2.5757081411566625 7.758411844718853 -2.255181174335735 -2.0515518608444214 -1.0559397270449427
Ni 6.528177505845547 5.448281096813021 6.1726184592355775 2.9106106488654775 -0.4444907718612087 1.2864522380803458
Ni 3.0978702147304182 4.42444108250046 10.920863012064935 -1.171373517235931 1.488710896476378 1.681563173956846
Ni 1.0750080432343727 0.43357360446709164 10.938322938597448 -0.5964062019179986 -0.6805992889271505 2.097795979413626
Ni 9.2961958376422 7.502297199568829 3.9206338824284193 -0.37355737807544054 -0.9764784982938214 -2.5963637356248963
Ni 7.9448259141499955 2.1899032712409743 1.208270535314071 1.6279330473362157 -2.1251921120383916 3.5944446426798415
Ni 2.1824391126953344 8.91832516144505 3.65358809929745 0.8802084255154776 -2.9298957223473345 -1.8833199530157951
Ni 9.246729336046286 0.5578227020712743 6.911594597082908 0.5446560659289007 0.16716824245080245 -0.2895373263090433
Ni 6.550993013138075 2.4882909997008635 7.7254322968475515 1.6735616438086078 -2.092274021154132 -1.580922482914632
Ni 7.188943551203827 7.764323007053234 5.498915165778419 0.8849343702362372 -1.2606543031806352 -0.06099967961182398
Ni 6.450245674178854 6.648384300962796 9.178218889385185 -0.18709197795792296 -0.25146365936577336 -1.727747128712076
Ni 6.902128088700717 3.515524667961759 0.12317835748031822 -1.1644757616748334 2.9840549819985576 -2.1025340083192434
Ni 6.395101147694316 8.701093705937943 0.0989264226994095 1.496146783929133 -2.0209261655387647 2.0151031310990843
Ni 1.6157929103583957 2.2056306481261823 7.777867540595498 2.069750129020003 0.1225601168231244 0.5172365362653674
Ni 3.40599707197278 4.106669103510205 8.89828004146159 -0.018369246535807075 1.5101392415534831 -2.452355990450957
Ni 0.9216402666690827 2.655689326177196 5.455464174325268 -1.069764548743177 0.27651648856934313 0.3262979308678445
Ni 3.703745552597527 7.487989328905775 8.73515527477726 -0.3785337482441094 -3.7744956546305835 1.0212789424379636
Ni 8.046438117827352 4.086814817806942 3.6866644744143686 -0.5620418655055159 -0.6813487654986653 0.75407884617354
Ni 5.82037034038351 5.978885002092047 4.054411533057615 0.3264604245876378 -0.39372202594877354 -1.2158278908945641
Ni 8.158701318522604 7.246137431042206 13.673299677879978 0.5314182270823881 -0.17855360146960864 -0.5318360313460969
Ni 3.197621079123093 8.481230053462598 11.07454947247745 0.7690457518960174 0.41708718303727527 0.2182270087998306
P 2.884643458896411 1.254523876468047 12.171710273410563 0.8864564633077185 -1.3161289392091722 0.022597425684541726
P 5.644511380794993 2.8582556842898486 9.577528809888616 -1.378378174957381 -0.6972554094265927 2.5924759705347156
P 1.0986602131346621 0.4467891133883264 5.076943909519171 -2.4514445343802813 1.802569058918973 -0.5724288651667948
P 7.721643813353983 2.984413124696002 6.048334579028601 0.859788724208545 0.040070899878956796 -0.8402326564534885
P 8.889878632781189 1.053367623874092 13.504134019153545 -0.1421238978876649 -0.9863985856210108 -0.7428012163771917
P 9.114029006033375 4.068163822146301 1.796125664722569 0.20562551798573622 0.685548919622942 0.07387396447133085
P 5.3072047400190465 8.122574415133569 10.116477719627293 0.20513829393667252 1.4039724784867176 1.318693871722871
P 8.498931578073984 5.786095375575699 5.018854142641247 0.06891379225257808 0.5310698426040338 -0.5752128556698353
Ni 7.262598062797137 6.467279748844723 11.301076343563814 2.10353905254499 0.49464013902209003 -1.167144309645932
Ni 3.451928909068493 6.1036887412002505 1.4003372477345006 -1.8338380442355835 0.19324231383003493 -0.18425296584723105
Ni 8.343791768906863 0.17989938193476 4.505138601124491 -0.08874651070778909 1.8127393145837556 3.8654026633248013
Ni 3.9853906281987457 4.1744857782561064 3.13841450867436 1.4095242615428822 -2.124705659320276 1.7275396406869603
Ni 2.3584484835391804 0.8592487378887846 0.7126786099939633 -0.36430294935670804 -1.4895269646197702 -0.15753251913325128
Ni 3.632676234455163 2.7054284481733926 1.5331795283696268 0.05702064035941793 -0.8537831414444135 -1.3803777218859128
Ni 0.9320891485626327 4.258283648880582 9.225040033028023 1.3215899623237435 0.715534924462071 -1.0664424263484795
Ni 1.398580256258203 6.688619311762969 8.259496601069461 0.8659822546137667 -0.06285395921174336 -2.8640505417177513
Ni 9.293187612535645 2.9407844599474955 12.502708102095855 -0.23769720170930034 -0.20287160938968288 1.9949834775310742
Ni 4.730161359657577 2.9269560251608 12.963162078030708 -0.533747646546513 -0.16744566448190518 0.13721334795992499
Ni 2.7104108210061244 1.6586977209406375 3.7311194609968323 0.49712176779336326 1.9550053944762396 -0.23724443044259788
Ni 7.832139681799134 -0.0023210336837764015 11.588099561613346 0.03754170569919986 -0.8482544983167005 0.8155246121838472
Ni 4.22838941188419 9.231246377450985 13.662746448178044 0.04622740639865587 1.3000335763092064 0.31448062651794223
Ni 2.6729584184295136 0.594622695827901 6.399750735624635 1.6364783658030657 -0.3083878833566431 0.7059904753067454
Ni 1.6257952588376912 6.8162620633154845 10.470631361070295 1.4568176473122072 -0.9534586403598806 0.17438404347295128
Ni 6.490320873020242 1.22946160104906 13.209309157304231 0.5027995349044309 2.536858638280728 -0.6353527583845252
Ni 6.710005912129885 3.280422475181022 11.593699560663266 1.802412992957083 -2.0201473783912114 -0.8018617699847739
Ni 5.337888636105909 4.843693655319657 11.188418313323325 -0.06835200621183712 1.320971097792822 -1.45812711015225
Ni 5.533949707425636 2.632516592153264 4.706348437728156 0.6097939360788144 0.3529610419813276 0.36486627805934585
Ni 0.13324463074312815 1.9861242223822415 3.2947425667585697 0.012396059671507684 -0.5175481539685151 -0.5749272061086164
Ni 5.36017770400479 0.026879431397415412 4.914644524598451 -0.3873456901087845 -0.6904036766120819 -0.4348396219246898
Ni 8.228651952953467 9.391659981258034 2.46898947536093 1.298489371750538 -0.5992765814872583 -4.771778748374582
Ni 6.562273857287656 0.48580673309069156 9.48398240977821 0.10128012439842556 0.9636633488070241 0.9164172713358669
Ni 2.2563474432820096 2.2220254749569075 10.189097213769879 0.682999670838527 0.4323837041850295 -0.37867104515292205
P 9.315589488876023 7.8095873942034295 11.1487652060672 -2.038124274584606 -0.1673021969255054 -0.07160830836560571
P 8.996407404367071 3.9079100302980367 10.702881380421879 -1.9258208024924837 1.3920351036191831 0.1574265896830063
P 3.4804694447669338 7.377963495633523 13.139399885968583 -1.577173300284845 -0.4090787109105019 0.032988282000562544
P 6.642997697881371 5.787778101494678 13.082011411568624 -1.164101666164866 -1.3734182598489444 2.463765260729163
P 5.196229435697539 0.4300332995448147 6.915240189883913 0.07863333353318715 0.9759449943878548 0.8100875003286759
P 6.868417166100384 8.050677835086903 3.420429971991824 -1.0109613625620395 -0.19998914563556525 -0.7743774485215761
P 1.9410478493012053 4.858847589293928 0.24935083901200453 -0.543813001202315 -0.3672923710023352 -0.6761646501945645
P 2.7561170412188454 5.626969668142394 3.3496680568525363 -1.6497563138588944 4.754549786090805 1.285710731928631
Ni 7.199951774953127 9.032440300721525 7.517384388548548 -0.33445192743354657 -0.520261182024304 -0.6470661901667115
Ni 2.251628290146101 3.189000634052121 12.575203506952795 -0.27172780893144816 0.6303046544376564 1.0567827917715285
Ni 7.604182023646466 6.205065927291157 2.328415116131611 0.3667025599371362 -0.1400994112584684 -0.6206218799322537
Ni 0.7915082088408932 6.61622449443303 1.1101835954334596 -0.13238378778176554 -0.791494824928153 0.47047279774726714
Ni 5.986913202845167 0.8366776488861636 2.900922657074603 1.4859559594390601 0.3459606994040945 -0.9893568969183865
Ni 3.268869010631158 3.008366117106947 5.653345221834461 -0.30185728132697687 0.3396830939254989 0.11009566580752651
Ni 8.892933861405034 6.379326767291818 9.46086702004537 -1.1432199376198506 -1.218152682372999 0.8645493788219821
Ni 8.985474386245436 8.97584806590446 9.18914344687371 -0.3433345746351571 -0.09969478218917668 -0.0467025462628615
Ni 3.9062837085998052 7.123834279053826 4.724207894157635 -1.8228787170106022 0.24711078171371637 -0.7110560627551109
Ni 5.275524369365638 7.404398273757376 1.8681256525072731 0.6551032015385749 1.237469637534056 0.49536416167230807
Ni 8.86263539415995 2.45985387174046 8.169541269680005 -1.1142631453761842 0.537648524262816 -0.02125351006213759
Ni 8.578884560984143 1.9170290519660547 10.500887525149817 -0.5453222387579899 -1.2918574682563169 -1.4473343904121203
Ni 1.724972680319429 5.766165884244772 5.263184065936342 -0.41575535159972915 -0.11832422436490589 0.6241558612274413
Ni 4.507731315138203 4.947891052447959 5.871464103748003 -2.4169310739844443 -0.35139498304578837 -0.0845746387182866
Ni 5.36531048809285 4.888666620662656 1.052748117516211 0.836654966404559 0.26155163972939466 0.8173097291087278
Ni 7.213563993560289 4.194922907573765 9.132634878317418 1.4014273434673608 1.8486272867296165 0.7555276628049247
Ni 1.4253534597065434 4.039021641426548 3.3826071816989685 -0.5598363732137649 -1.0407709897243045 -0.2371395294336174
Ni 8.734851632055566 4.801033263027323 6.982713738953598 0.36540003907562874 0.29316926663467574 0.6735549804858594
Ni 0.5637733473601786 5.304309323353988 12.0146113576428 0.38343478509015255 0.5231678141481376 0.4620521777837397
Ni 5.407914476164436 7.540539261235909 12.203975367819059 -0.5200986883045108 -0.23743057831147493 -0.525917608979133
Ni 4.233042760095893 0.14742935219088113 8.846712482642817 -0.8079488567191182 3.2702817558771295 -0.17988157625241277
Ni 1.288112589923426 7.8032795221831215 12.6861684705005 0.9668152641724447 0.18437175081328247 1.9638510177923276
Ni 1.0882724358135891 2.5837457426132393 0.9618574161326866 -0.8030133670907138 2.1466523387946967 0.5405505284009593
Ni 4.0492684081957515 5.3524221236519525 12.973509432326912 -0.7417658331341419 -0.4191373806980846 -0.17944423160467807
P 2.992460126856037 7.821216064380956 6.823578630816834 -1.3432787601510865 -0.7317382736948108 -1.981132944801227
P 4.066772518034519 0.5832647659099639 2.26439538551239 -1.611612198689005 -0.259094950658786 -0.5733071540066901
P 1.0487612791796797 8.683138362333192 1.6477769237334967 -0.8476420615436822 0.04163927280734119 0.3460928541065846
P 5.990654682821445 3.735895958423834 2.823597170780951 1.501477195003111 -0.22867751470919329 -0.3015364076524484
P 8.629385139960435 7.275918859597101 7.550583912880766 -0.25889517594315414 0.8423849269098007 -0.08447513702594484
P 5.008440983420838 5.534325735563955 7.983245649112433 -0.5438639090449084 -0.31040388534540736 -0.3821597750324709
P 1.6906037084770373 0.09930621111911209 8.97648543359891 1.1177927557959977 0.9481665387230057 -0.9141696129522706
P 1.4595532188866915 4.348332987304616 7.030154388954317 1.4693623167464371 -0.7177617569100605 0.05973212575331003
