# total energy = -340870.4777292671 ev
CRYSTAL
PRIMVEC
9.16478879811115 0.00000000000000 0.00000000000000
0.00000000000000 9.16478879811115 0.00000000000000
0.00000000000000 0.00000000000000 13.41359479708424
PRIMCOORD
 96 1
Ni 7.441185340574186 6.421107682411594 6.862730446248607 -0.4121246968256774 -2.308632866396972 0.6414017927920824
Ni 4.433512430141274 0.7949272069630426 2.508422870785859 0.6689737888730801 -0.611225012098386 -0.7499342278775472
Ni 8.352119528321893 0.3085436143825328 12.048332027310163 0.23180500459458142 2.5796160838529123 2.001991790528107
Ni 4.904894179853187 7.112114432125378 12.231373939659411 -0.5941158632219253 -1.138200372918072 0.047795265106408004
Ni 3.0177083542236827 5.914432330838256 4.92003990990673 1.011991860709083 -1.3585171743673958 1.0633213642209944
Ni 4.09141835673659 5.203464671009129 1.3242615824891697 0.5038531729799257 -0.6444266956613354 -1.1581878717835923
Ni 1.223746760776579 8.015368526816768 13.013775629701133 -0.7041865893287872 0.48450922123567525 -0.6193658960379655
Ni 8.803833641161663 4.774845826071408 12.68262064826783 1.1058584662522568 0.28353405753775685 -0.7348781048753731
Ni 6.988114838984612 6.016812187081826 11.522774461269128 0.09181306544825478 -0.1930548804095772 0.176826848586489
Ni 1.6229832926611365 4.807417485644378 9.24041118873674 -0.13649292485413267 0.9995145541776788 -0.6871782276962488
Ni 2.3711050064882433 6.615804456741412 10.939055312228101 0.7089469868319082 -1.4279079062563924 1.9184201391530378
Ni 8.590559839832855 0.7592926749563962 4.208099865980615 -0.011626271385018688 0.08910877914321427 1.048076265136466
Ni 6.678198339232346 8.382235024483057 10.972789983506138 0.7665420116375572 -0.3725921859486938 0.8156467395840081
Ni 0.15186146772371123 3.1228101527557084 3.610805831694937 2.1770407212785665 -0.060276685402870386 -1.4419183616028715
Ni 5.857436508979983 2.827007427832473 12.10511247663046 0.2848484054738062 0.026378747103844892 -0.25503132211237367
Ni 2.5972003474182292 2.5068813533012855 9.709752856450638 -0.30471146294632034 1.2251028884385868 0.4106172590422154
Ni 1.1545526049589303 4.221219261219418 5.86793844052322 0.7766793571818753 -0.5621943319229802 0.3421518671809656
Ni 6.44298403339659 8.612307883773951 7.099735551825656 0.6918188117920536 0.35300886450012753 0.5804653623180261
Ni 7.966584355768115 2.687849273933774 5.235554262688587 -0.5444406074839849 0.3634094910081613 2.6709858911161612
Ni 0.11162254579881478 7.974530227701081 3.3009250746191863 1.1614968815521673 -1.3514726088157887 0.704070118355581
Ni 2.540616941058208 0.6859789465506636 8.315838878701319 0.8540554212691936 -0.8833395149452916 0.3055169895667512
Ni 8.249217279113871 5.344419123522431 3.268785993079937 0.4194253442521486 1.105960796158076 -0.40505956244877983
Ni 1.9685691506176788 0.08077844892407354 1.554260206990379 -0.15945801829073827 0.22829159212468425 0.7447061467093885
Ni 5.320022455603679 8.326183175876336 1.1412517469008967 -1.316602793521797 -1.6207409004631506 0.34758717926392396
P 1.2857740517135121 8.946877665532769 5.098427025999053 -1.7360721036380038 -0.6615404725234865 0.1452156494391112
P 3.1785962224857784 7.428684568582758 1.5382713163626345 0.410314383089816 -0.8552245018766303 -0.8275478618969683
P 4.62275615510533 1.933724623409904 4.190259688005167 -0.20210979152299383 1.0003398782924515 1.4936587273999566
P 6.2382701448537015 8.57444814103452 3.879520190214169 -0.1716509608125044 -0.5760605483821111 0.5509326429662319
P 1.5683886454815694 6.050538610049897 7.302763119220144 0.18148671595600357 -0.6422944798096809 0.22104750896776124
P 2.2131773650247046 4.116997282416994 3.546729293971139 -0.679268743041185 -0.2820281624161917 0.4784126214196341
P 4.967187249666771 5.501586087511419 6.460483281226819 0.01392432339057602 -0.6921857082131692 -0.2753540928301258
P 2.084906980279829 4.214602283669704 11.356901864351508 0.963528623001373 -0.13161451371590882 0.9562158913900437
Ni 0.6271538328379272 6.405674177988161 5.175676114736984 -0.3984351151537267 1.3948316925277138 0.6369417001381998
Ni 0.6843622777975202 8.885253625305237 7.450192495055985 -3.415963803429698 0.06468124222846926 -0.1822778443987312
Ni 4.82241108020301 1.82008124166966 8.375998385670618 -0.6367444965257292 0.1700774456777974 -1.3468335673818805
Ni 7.265056428454507 7.04280113405268 9.127643044331673 1.638104845662895 0.03416430458653471 0.10007581967767926
Ni 7.214430134846998 3.9415923886164674 10.123884003174247 0.9380716163808489 1.185023761029514 0.027922180331564815
Ni 3.8111407841252873 6.757583740251217 8.150435518972818 -0.10061986510660736 0.14028401646544872 0.16453800391680695
Ni 7.978938491137941 3.6409323256027215 1.1883193529979428 0.0013444298430363942 -1.9160328698677842 -0.26229494565332245
Ni 3.901560590919581 3.3734213038594967 5.814525134626421 -0.5196222628887244 0.1436670740050687 0.5829210229473702
Ni 3.958574742355554 4.095359215942097 8.23530329668177 -0.7863965844696392 -0.5672298374643586 -1.1882780063007534
Ni 5.498305093103111 2.987492045385168 1.086953122401185 -0.9474389165283619 0.6370432587130707 -0.1471393488243853
Ni 0.7744658993764887 1.8159295923206011 6.097833502910424 0.9126989419440154 -0.6914840541604543 -0.37947400067019166
Ni 6.905576750601335 2.3276272481837506 3.1446700071207756 -1.157399314444026 -0.14966391501845192 0.9710107903110309
Ni 1.9899414382159248 1.7743764396746118 12.033966220787757 1.0341218598389028 -1.0904061362529285 -0.6507035298089825
Ni 6.431115631835816 3.8700703764309137 7.288464215656343 0.05534865197363371 -1.243496817564742 -0.5140825640174178
Ni 2.387629120784829 6.054323667844956 13.296266498819714 -0.3456894480205788 -0.41840178808364076 0.5759415063057436
Ni 7.85275767825087 7.971304222025874 5.383251250358849 0.4575805151656313 1.1754548863941563 -1.6210682018955824
Ni 4.742494121430838 7.492975562365646 5.431446125484448 -1.017374465177235 2.1354189319727226 1.093034060794079
Ni 2.517347542168008 3.5118646042278945 0.052298867572637346 0.871301609944151 1.0668874843056981 -1.7508181515989265
Ni 8.67668136065649 4.131248529078775 8.088612602827242 -0.10152360786779933 1.464041418754156 -0.2367618343792245
Ni 7.160687813030482 1.5553288213702912 9.79394977161577 0.5184392983242168 0.9089800983315314 0.36837891919829463
Ni 5.729083641135457 1.5205942716287166 6.059698816505493 -0.5152866116278481 -0.11016945646825543 -0.6897076789863219
Ni 4.342469417705178 1.1095351621276337 10.772645658683867 -0.964308695700507 0.2458285725671831 0.48582973981931166
Ni 3.4118675930853293 8.7750562041726 13.074781046681286 -1.1908956464292588 0.04668223454788734 0.06290075328927879
Ni 0.5144626726592002 1.5533675565563871 0.4065307873302883 -0.19400670279988524 0.9915965848821826 0.13010270505707272
P 2.367439090948236 8.775752728125203 11.12486040841563 -0.6853607148715357 0.6659499144450918 -0.48989902479267894
P 7.509756290750032 1.859178230903844 7.143718289995786 1.3563793020887864 -0.05361727110482378 1.2474848556782128
P 6.512893042744541 4.350589420626296 2.5098040044655567 -2.2553734928521996 1.422862373412685 1.026468457058703
P 5.3955861396720906 3.0216675430068913 9.966783942143866 -2.0753548768012906 0.36325625325974853 0.08876759375371165
P 8.1931196065629 8.970431172877321 9.248753896026914 0.32223610209364506 -1.2592785058790312 -0.7146787471093627
P 0.061828415018887826 6.137622433702784 1.2930637247648178 -0.1561304965794021 1.3659641175637445 -0.7283161353871392
P 8.69126253971687 1.4377445804245386 2.256447999101187 0.7522690466583108 -0.4053634668424438 -0.5937343115127903
P 4.309338706012357 8.914516796103351 7.402560337965777 0.4391426201754179 -0.33431591607631456 -0.385227101103885
Ni 2.8834533623597443 8.198994236215764 3.601147977204786 0.47594359105385137 -1.108934019853787 0.9077948197741785
Ni 1.7353436039623777 7.579170401500082 9.150459702652682 -0.7197044824587283 0.7584944587427325 -1.8110683546392357
Ni 4.756543742737918 6.707159071998409 2.960071913624794 -0.4207808298387786 0.4200683771527863 0.22252177952044258
Ni 2.459627701990584 7.8524644050076695 6.542896728481736 0.46362157915338864 -1.3862789178616963 -0.315697786754495
Ni 0.953312171390198 4.262607447666107 1.5331876079875286 1.3851013526138274 -0.045466102752599116 0.8927178708363981
Ni 4.376507443494152 4.048160553364497 3.4614720127360608 -0.7132772387761458 -0.033832889389044954 -1.2241400103046853
Ni 6.11670838554704 3.8487805719323185 4.850275704222609 -0.11662781049908948 0.9728475864094536 0.2657641351488455
Ni 4.096028245528149 4.990016738692169 10.35949331140944 -0.1851687927932811 -0.3282882218249959 1.8560215223111582
Ni 6.294092873739171 6.235438225099045 4.608548899430031 2.2458416421023646 -1.3095399731377446 -0.24781526397990866
Ni 5.586277901274451 9.042163975206424 9.304031319975806 -1.7908432858416126 -0.9729000369139438 -2.6500481125222297
Ni 6.792941495634593 1.0744248560432081 1.2927603702538821 0.4490526802002783 -1.4204378231315926 -1.818240961128275
Ni 3.246452319131324 0.6518144466755602 5.6703025184092 2.120582638290838 1.2734694526674326 1.7097807740416426
Ni 5.475237319567612 0.3101071273603462 12.67614205902975 1.7729298958963016 2.3170393452931126 -0.8222223359189967
Ni 1.8415451771564062 6.171935403157259 2.999441097087823 -0.884683944788328 -0.15486422827246876 -1.9295964674848316
Ni 9.182568540388727 7.669040320963375 10.972615852517988 -0.09647730369314353 -1.9405128572870194 -1.1782509610820546
Ni 0.2961097453497111 2.035050528935722 8.400022046683175 -0.33035204633256005 0.36737850295823826 -1.2559520126089596
Ni 6.916162081723107 5.766366002177338 0.6425983350079805 -0.4987991554957861 -0.15056688644869554 -0.5877341280652975
Ni 6.99641813768273 7.425861813616953 2.205034450131462 0.7049381227828312 -0.2579343546917816 2.2646811434063707
Ni 2.302433243635046 1.183275053214892 3.8005673672290197 -1.6973176085776251 2.1393277801088253 -1.338617093009359
Ni 0.6015721577208674 0.8550308087203567 10.213419407844516 1.5667670173498565 -1.5064867324025604 1.0198031292233858
Ni 8.716685663986826 8.453949497234461 1.2185402442308826 0.04021462454567268 0.8090657439323808 -1.9315808449047123
Ni 0.2748492681754354 3.1771848450028752 10.68136619469544 -0.22656046836619045 0.07099304337911 0.7491299868086969
Ni 2.8107124332571383 2.4561450822275765 2.005292459539708 -0.1404393110963904 0.8037821269359383 0.09140554559719097
Ni 5.720322102994839 5.498121797326111 8.679923862951627 0.8816467006239008 -0.40252651161428094 -0.2278748163022398
P 3.933774823727401 1.670612700314689 0.18845463664406983 -0.49370939967770455 0.6456469412216815 -0.4493802387430261
P 2.4696081570482553 2.618554305438775 7.407201387039428 -0.3810518866802728 0.6803496348101896 -0.4135884258553974
P 5.108572447256025 7.012429023803714 10.055997662725497 -0.04878822514729662 -0.07937998189122458 0.1207505744182114
P 5.155578649267775 4.919502853280118 12.624929218935842 -0.050922754991796174 -0.21494808093824272 0.8018206323341933
P 7.083813564156518 7.9650813303967105 13.013963507872557 0.1325856193799265 -0.8381696032768726 1.4257546073588154
P 8.94621780073557 5.4339316162205735 10.43188689501463 -0.6452360789365081 0.5646746751426727 -0.2630343949225083
P 8.233600478913438 4.848090818560765 5.438997911496864 -0.5614955060837427 0.4971508212590858 0.7485568879140463
P 8.083563720649765 2.588777906465061 12.612789539625105 -0.12164686098023565 0.08229741264833568 -0.8032938744456101
