# total energy = -340888.12514641316 ev
CRYSTAL
PRIMVEC
9.10829334194010 0.00000000000000 0.00000000000000
0.00000000000000 9.10829334194010 0.00000000000000
0.00000000000000 0.00000000000000 13.33090798633459
PRIMCOORD
 96 1
Ni 6.604760523697631 2.328043350173856 11.3029439343062 0.6464496396286351 -0.5922428145689284 0.569809939486709
Ni 4.556605920247089 0.47273499876126157 5.829966281340419 0.75096344047301 0.17559529017223308 -0.40424015187127804
Ni 2.7364865494095496 1.613880284239993 4.81047136200561 0.3013194065456359 1.5086271757843308 -1.1101864042036493
Ni 3.3055818269655863 4.416693425912199 4.449550683386562 1.4897534788082796 0.062410443916421546 -0.4172751306783653
Ni 3.729272309289399 2.761197349300869 2.340547215301318 -0.7444991729049049 -1.2284903168535808 -0.04229413278252071
Ni 4.916665865143421 4.554684070347691 2.642972612290424 1.8726097656871428 1.1774829725677785 -0.9541397255873052
Ni 5.291444812112871 4.567991286949687 11.172580574732113 0.24934969834656412 -0.011274544472554774 0.9936431829985661
Ni 5.761532940823113 7.899449775356939 12.387372787848602 0.4760842303967736 0.9409502234802246 -0.002392411491576525
Ni 1.804471322841489 6.483693088328881 0.051490093205166856 1.9772282104301817 -0.036866019788413924 0.773759612431919
Ni 2.8349016591868095 1.610646840096455 13.463417457351214 0.02029885945835214 -0.5157419539977118 1.104089547277292
Ni 7.699914392673882 8.877179526309273 7.164310309810209 0.8637464233047125 0.5377408268663062 -0.268614203003131
Ni 8.732057088171274 2.684888067513374 1.2656602098850276 0.18829062625171444 -0.5472852760216317 0.4521295193533891
Ni 6.990059549500282 0.8513767729455697 4.680908621418049 -1.20886945729886 -0.6926641905114844 -0.9211195619075426
Ni 0.710844914662058 7.395715610967179 2.0654640041558356 0.6293335487736388 -0.10482387588562592 1.0173940055612607
Ni 7.701499235718884 4.003040282873397 3.5518072322519947 0.112985842871128 -1.5961590973587283 0.8024071009652827
Ni 7.858845003548793 4.089140980025126 12.532413251346343 -0.01705952658544804 -0.8113331998103188 0.06939201744057727
Ni 8.814122811363601 7.383801963249581 9.294908630627605 -1.673053593823938 -0.7652603167116562 -0.7277782606057982
Ni 7.342978592400743 0.460393261255645 0.13699875128836128 -1.5447668589296817 0.8453216409406217 -0.15164752110738397
Ni 2.0014017336229917 6.744937158540022 8.838925605017879 0.40119262329420585 -1.0796172731675409 0.4513144796512615
Ni 0.07253025087156856 5.103094413678447 1.3303564176358722 0.09807498719756658 -0.21295521887793004 0.1170510140794371
Ni 6.494021893001479 1.8873567924364048 6.874882447448789 -2.074788462774859 -0.09160506320250676 1.3091730767166292
Ni 3.501009369342346 4.32599304061262 0.23933953550467707 0.748240385114892 0.48621411974192386 -0.1263092994529115
Ni 5.645857615124714 5.5465954340647805 4.722140954638843 1.0945669524988375 -0.31770067611713676 0.7419578945402899
Ni 5.481707952153332 2.801610846948412 9.161306361933962 -0.4561787497220982 1.0442368367857178 -0.43785552593287813
P 0.12132702172956875 5.753390126557415 12.446375401418813 0.2344342146873124 -0.9048074550110804 -0.8995189529186314
P 4.358026908367051 6.115973068715042 12.53411923469306 -0.5607766256398471 0.34483635599166423 -0.2845447581904584
P 2.429200056253102 8.566987487570323 1.2414658502273381 0.7694033923457523 0.0646817564491015 0.6566877724168755
P 6.318395780393878 8.144991147811856 5.62654985485578 -0.03837088646871456 -0.8138400253925726 2.103661437055467
P 5.021493213447584 0.903504446686082 12.464559198286866 -0.09474180905927554 0.012293472655372376 0.3179127921279428
P 4.061652150658373 6.230509857743181 8.087181720672078 0.8993759995828641 1.6693620039049637 -1.1877681565438707
P 4.650239176009258 1.4049906842740811 3.76262232543465 0.8471435246407087 -1.4150472482436405 -1.792431970484971
P -0.023644218738619983 5.854692565330454 3.529144887537807 0.17803346730008046 -0.31580757285948197 -0.21876539780180387
Ni 0.7233059708107179 0.4861187250275 4.665777924484964 -1.8640875871487443 -1.015746956876141 0.4156967304476518
Ni 1.7452127662278052 6.7700669399259965 4.6023222662900345 -0.08629496384350299 -0.31850774539946436 -1.1008378731092137
Ni 6.166378364180785 5.858955246623906 9.275792144519274 0.6697286647612337 -0.005231680712584538 -1.0018838257408036
Ni 9.260584027092612 2.316630658591172 10.158978721202567 -1.8190133205179253 0.4161847258276639 -0.7352270035743595
Ni 2.4033325031047985 5.61263056093985 6.542502606079815 0.12961213857389936 -0.8696926135858183 1.4257885459205444
Ni 1.0148005049359936 9.31022422591594 8.898274333735847 -0.33165533852501594 -0.18782397102794104 0.4656298678326691
Ni 1.6324065529384608 1.1088163090193695 11.452676079714745 0.4688362905851087 -1.1818656750165066 -0.031232475651720402
Ni 4.220373270785956 6.983282979238896 1.5159779713790182 0.2363016069133543 0.5146489780438491 -0.3744526361962003
Ni 5.606892336121742 8.156786387715748 8.119616353334441 0.11263925816498664 -0.19639114387166176 -0.27562431577237695
Ni 5.325318555126442 2.9819004057573966 4.95841828191519 -0.04068230821071058 0.7133551432019327 0.11519390626604033
Ni 0.5248572075257567 7.625709126653028 6.749771840656613 1.4766691348204954 0.10681056729835153 0.1291244003042034
Ni 5.471506663587804 4.709889389237511 7.1392880062859065 -0.07491654680323226 0.3414131892427281 0.6181122261365226
Ni 1.0040345021820165 7.4601932196773335 11.271696112268915 -0.21738368696292884 -0.06651263901025319 0.5993737691867549
Ni 4.853354117983613 0.7151731756677179 10.280503392898094 1.0242048578355072 -1.560585314019177 0.2559633470083398
Ni 8.184320758549312 7.391270763806485 4.78919529954113 0.27977870426038265 0.2907290326242993 -0.5783280042600492
Ni 7.455866780330346 6.329407707068631 6.9740908895778855 -0.053347305272888765 -0.24514543045722942 0.089258160236885
Ni 2.594196790507157 5.39800273615583 2.3511456254574323 -1.168421890806775 0.9761095449901769 -0.15359024665605162
Ni 2.807686078620918 5.594541490322763 10.999905549173825 -0.9870699006564227 0.351284425609853 2.1149843182674544
Ni 1.1054280238886762 3.770824343607202 3.6781838918215 -0.6277057833622286 -0.4685151598002641 0.11440174938204814
Ni 1.70176620689069 1.3010650570127635 2.5048243943797686 -0.6372034384400187 0.17668878034672797 -0.41789785186402867
Ni 1.24807300623219 3.6354477793666264 8.143478260284414 1.0846172974852932 -0.11613030203738064 -0.8133574293291993
Ni 3.9053356199783793 3.044437947981429 7.164096264916201 -1.076342716181327 -0.4151120615887754 -0.3859601226151676
Ni 4.156442159677526 7.237386147454166 5.886582522049763 0.6534003599148552 -1.0457255055161023 -0.5011239469742209
Ni 0.5968609990409971 0.17065571691991435 13.730168401729065 0.3423976646431845 0.6177399303987684 -0.7168351313307332
P 0.4297966821937504 5.655703680249122 7.780490909901512 -1.100032346488783 0.7505111834269397 0.7237935649264374
P 9.112938591693316 1.693095111609991 7.557585468110032 -1.7814549026481774 -0.33719837983043216 0.833577613030816
P 1.9771008069329659 3.4500484679815155 10.247548676684758 1.831277739707575 0.4826865662046396 1.1354883733035477
P 3.94849982222127 6.360011572765216 3.7895509947596357 -0.8613892359264455 0.7287786768458545 -1.0724148418818304
P 7.240273476449945 4.05502131309078 10.007019598066993 -0.039661580255680076 0.12306045349831066 0.646321598691203
P 6.753553604060548 8.088064314298865 10.080645576630017 -0.15082965319177896 -0.10418907051510444 -0.1968428866970997
P 2.3478903214098255 8.59607026827544 5.621297102073869 0.11577240447732966 0.36019689760813445 0.9889164669468582
P 6.762406865208488 3.969348705727068 1.3640188482434425 0.5157833487586084 0.027549627483494488 -0.12397962287847034
Ni 5.349246041788622 2.6377071078978065 0.32346646548484415 -0.34186673184037897 0.8211026204922569 -0.6974906653658504
Ni 2.0031049844817 1.3538476170460094 7.065021714699526 0.5930647962495916 0.5449154902378744 -0.5433571446118189
Ni 7.073272917656233 1.097658649650823 9.121713521518345 1.1349846941942519 -0.9444829192238315 0.18020810635389609
Ni 3.0079319081862175 1.7346016044609835 9.473223511435691 -1.1267911026398658 -0.10181774206945046 -2.043400949602513
Ni 6.505197768956749 1.843272652563944 2.2069048701168823 0.18354077027155488 0.31419600539798787 1.503828983064739
Ni 4.563364273921752 7.324179074901414 10.255467426933746 -0.6874687623534741 -0.5286098110993154 0.14214575226453582
Ni 8.30691838720289 7.335163676696081 0.14835861476954576 -0.5361341445008186 0.7845073378667264 0.6930423997865096
Ni 7.954090427236049 3.618542786886609 7.870807836050547 -0.6226551083121986 0.5455832057288604 0.467437353355053
Ni 3.3567248941936576 8.324889050006272 12.540691779183135 -0.3047045209677849 -0.0948402823103528 -0.4798203004004382
Ni 0.36456126347587064 4.819644324250559 10.282862440878873 -1.1955771110653282 1.2379491482736358 0.136141712162301
Ni 8.238669945040835 2.487839248918164 5.6304026629479385 2.355685596910401 0.957326607955719 -0.6260404798446637
Ni 3.7525348905361477 2.587320029018787 11.535101580494878 0.4013461181529346 1.060894757057373 -0.22437965866478776
Ni 1.5052821024839291 3.32299688387388 12.72480499954552 -1.647694289123543 0.825226155742327 -0.9760756064284479
Ni 3.200599637674267 8.457769941865637 7.716556155475737 -0.39991941300873707 -0.08586404695367147 0.7724748321822245
Ni 5.864739012908826 7.604723618746798 3.624460445083951 -0.8501913103280971 1.3967620767812075 -0.5551065718382633
Ni 3.2837401394833217 8.524715898076915 3.5556327154640672 0.24159216588833232 0.38030960919760953 -0.3824305121953543
Ni 3.7638291743051253 4.582837805129876 9.2788315820142 0.03106535394623682 -1.8958013733122576 -1.0443404522431174
Ni 7.403193519817446 6.349628118332446 11.409817916128821 0.2266273170483839 -0.3215395902472527 -1.5726936672469365
Ni 8.19237248988139 9.092089708187519 2.42997152870087 -0.43145579305412146 -0.17331857832291442 0.4102015116610355
Ni 4.466242541801907 0.5416957094642315 1.4191285772306996 0.8266831999038278 -1.3007825386600889 0.7485489174942463
Ni 6.343580211540026 5.903075819669815 0.19220502818525623 -0.9411070607730632 -1.0604900654197864 0.3538439588069132
Ni 8.455374460711411 9.156840565698536 11.064800317719962 -0.7026382710050608 0.26010796530433267 0.3209929737151633
Ni 0.07066213990300622 4.922194599214203 5.744528667945448 0.2681480619999898 -0.31262197604264863 -0.5281269579256259
Ni 7.046430777118187 5.862789838129341 2.4776161004485675 0.20994702817922553 1.7639613738491042 -0.05465496834071878
P 8.635254146319102 1.8743592578087185 3.5097751908740102 -0.011689777633102449 0.19673721435717084 -1.1391488528742704
P 1.8471436772428274 3.5624721329496527 1.603508670588594 -0.5904810946828153 -1.4028082829752873 -1.197562516926473
P 4.533243147773358 1.0761357524362312 7.905934880230739 0.9182823495690636 1.1105486726390743 1.0037987833753292
P 8.784457099883312 1.900226810957022 12.423779547246166 -0.3128011819329903 -0.40683748028480904 -0.09322562952506526
P 6.316774504175428 7.870895275666823 1.5191239759062802 1.3564268674972706 0.377147409419544 -1.4338926630849178
P 2.1348109064973575 3.501701599637864 5.785853905758536 -1.6399894642801176 -1.052555383953742 2.1000937743088666
P 7.002392178712536 4.278602590249725 5.74503508905638 1.0647789226031277 -0.2921858196754839 0.7529223639715936
P 2.6234617370795155 8.319588023269542 10.224419987350432 0.07169109788739911 1.7376741580178008 0.2805274095009491
