# total energy = -381164.8930644375 ev
CRYSTAL
PRIMVEC
9.24268099864010 0.00000000000000 0.00000000000000

0.00000000000000 9.24268099864010 0.00000000000000

0.00000000000000 0.00000000000000 13.52759790602255

PRIMCOORD
 96 1
Ni 0.4918816235457652 6.70191427118675 0.7956192308397082 0.7860425435643301 -0.6054472290743443 -1.1997615814603209
Ni 0.1642017751583499 3.354714285456136 2.9983248210694375 0.31109911164021903 -0.8565483628943764 1.014817760193652
Ni 5.903540721382459 6.321125052992664 1.0251981864144286 2.285276708169535 -2.0110148199623237 1.8316358943779425
Ni 5.710303987850486 2.5737724321860824 5.797130658270571 -0.5363385472021408 -1.3878089813529777 0.8121505535052915
Ni 2.6416044686997453 7.461394618967673 3.537615852994162 -0.30490326724215233 3.068464813004206 -2.6679512180548954
Ni 6.803056930345901 2.8198773015482987 12.357582922582736 0.05476475444570568 -1.0847952178240543 -1.8450506251219516
Ni 8.134659237548508 5.2402859264212305 4.015099227939166 -0.8760476092695687 0.06901329394491985 0.13951011441390165
Ni 4.186084206748882 3.0757147140974457 12.22202236758361 -0.13775147985158212 -0.15587390048390576 -1.520844029565497
Ni 0.789159521026464 6.651652571423662 5.231934239789027 0.08452758753043507 1.0364654203704151 -0.26719958204379146
Ni 6.030775469256431 4.690494284511063 10.044809940334122 -0.1946602772234841 -0.0285479868410218 1.4811353981219653
Ni 3.072424319629689 8.229979007621461 5.470290045326055 0.07313065854740308 0.5772926210169993 2.287757822720176
Ni 3.799093149543941 2.250805426886052 8.060554193379602 -0.49313552945210554 -0.3841829761100867 0.360501830443063
Ni 8.020983502832397 7.920894509317415 13.340430219978328 -1.28623215164974 -0.5258846988586684 -1.168466113781149
Ni 7.12267808509164 0.4507147219744537 9.268203828763014 0.3160009198172106 0.05171156944167868 0.9162714897866221
Ni 8.95192482749913 -0.03739034207826298 8.13482098446757 1.8829970224587378 -0.9186497602108114 0.5378729815687963
Ni 2.330579007366966 7.838939656099449 10.374869779102006 -0.9976415055246818 1.677648412283472 0.6093607051961376
Ni 6.380241241239207 3.4991773908803836 7.925954877213753 2.603245550346394 -1.705157416337018 -1.2124805716888858
Ni 0.30151566676009856 2.339488951936958 8.703561971146822 0.010417338678582059 -0.5963812622173341 1.5468301692166135
Ni 1.0432491425816426 0.7050270921438822 10.09310294902521 1.4292911597571643 -1.527970356197633 -0.38693045694823686
Ni 5.712623900803876 7.961294268358322 6.804476606161203 0.8519175489905845 0.5211425561879928 -0.27589710981778937
Ni 7.564053077825454 2.880500046812383 4.32949457079707 0.6412493263746182 -0.8073451616968483 1.5513812789224055
Ni 1.903798208073004 2.110178034113824 1.7253229605085973 -0.5908078818946146 -2.067068468422782 -1.2525283316393911
Ni 3.9496379391248837 1.0918471597486736 10.486093430525152 -1.9597951025553988 -1.3739826169928466 0.9951123113449251
Ni 7.146200708463663 0.34208641540115636 5.3654651020209645 -1.232053608724807 0.525885727299933 0.8029827709630944
P 2.0887719847112294 0.7761476745890836 7.921694001231631 -1.5537083843936854 0.4088892206075151 -0.4056665999051594
Ni 3.2331268157276667 6.537394547798931 8.634219680543183 0.747426630964345 -2.128570027371689 0.18523461303421002
P 7.809002612051519 2.6121757721117222 10.045175026237146 -0.39386215107106365 0.25647242543427445 0.6040575478156693
Ni 5.621195299469477 2.1773815683134212 9.66916150136185 1.0418374833156057 1.3619457404329707 0.5548723443402701
P 2.428172476987863 5.267662747807451 6.516677078137482 -0.9177367614782389 2.217533024965658 1.2079677714201968
P 4.397242498912821 7.704782140089664 1.8610859302235778 0.6206013111069635 0.42118037927004237 1.0513389950481378
P 0.42431670051558024 1.806592931057853 0.143226434694512 1.3888410221619178 0.7689431648798821 1.331416461495862
Ni 8.896413284877376 4.58089457215529 9.215581548249743 0.49312935880451847 -2.3655599186013196 2.0390478148401403
Ni 5.860710137215091 4.218036155274259 4.350624264035098 -0.928496313987588 2.364963936888534 -0.006535230015356486
Ni 3.109589140289376 4.025871572748633 0.592349566985405 -0.07537651715878631 -0.11349389285579808 -1.6927199619046138
Ni 3.7250130606139766 8.510540592084228 12.294503472685141 -0.1927697450689906 -0.10433279518182031 -0.9640119903956946
Ni 8.296757378490955 7.478798587458643 6.8315049784703605 -0.5467013784937036 0.38297790005839205 0.10083558066183924
Ni 5.808562930509805 0.9138848809847178 7.509994484670922 -0.6180147813267098 0.4932810538910343 -0.4250030954502423
Ni 2.497316974216193 8.030198455878333 0.8058933951384665 0.31754461015524665 1.0604340153708707 1.4832128494762842
Ni 8.170511597493528 5.929817663719064 11.015157435824674 -0.43313858007318307 0.44410999148302227 0.5054498280430842
Ni 7.725947879783939 5.082328506606747 13.205939043181223 -1.0734018883854481 0.9668782561998961 0.6906810986431847
Ni 0.8257124761980451 9.332150242146774 5.843111148153139 -0.09896895976674568 0.5241736297048327 1.8682023806480665
Ni 8.767265302017938 0.9997346000136735 4.02101084676382 1.0303914462621933 -0.7601638760253553 -1.8546652653935802
Ni 1.5529460339268473 2.005181176940475 4.677342873589235 -1.023302914846528 1.49180959000636 0.4802589305997535
Ni 8.075108643290772 1.6969654906588127 6.961680747466917 -0.32541115738751697 1.466638747167687 -0.7847335949449195
Ni 4.310934342901841 6.383642547880035 6.213672415453914 -0.19477777663795487 -0.9343378603700295 0.6997162122622594
Ni 5.975079073012893 3.6792155758169742 0.72197909352959 -1.1233897902678007 -0.28344458314774407 1.3144906322748007
Ni 2.958341906945653 5.949301235455105 1.9562263922834007 -0.06882406075224921 0.6639760785481726 -1.20823388059739
Ni 2.091701914616507 4.298428995388148 8.654754145119066 -0.48515868189421607 0.0009111989603597211 -0.39476743649415236
Ni 5.614836334880105 8.263603881423984 13.551948052436636 0.5140033740400503 1.1296000328435707 1.398852897871965
Ni 7.284619100455571 5.619993750927881 8.147699736297264 -0.015576514282018335 0.4792304893352392 -0.4140409400117837
Ni 4.968634286528458 9.156668698987161 4.362474305459565 1.609914756381924 -0.6123861222860227 0.22499003855527702
Ni 3.153824611982303 5.61061242962234 4.390733802889804 -0.031204964847894645 -2.881164832800535 0.752815148969768
Ni 3.6051447295680994 1.2531411874363603 5.880663237150463 0.01323681040524817 -1.0204333066082167 1.2043196331446484
Ni 6.628767693046795 8.5597024127977 2.586287022380864 -2.437317608060596 2.2693392110036723 -0.5178584861200823
Ni 9.546210736172723 5.468737274903068 7.244434695884041 0.8463482824329231 1.4666112363638613 -0.07350989626369275
Ni 1.1540134327546547 8.35654828245701 12.603758036321231 -0.6455754645537978 0.4538907250188699 -1.2052460016136597
P 5.368019779074021 4.851104353798148 12.492033431583051 1.3068097186907752 1.025680671050085 0.044830268940813114
Ni 0.8561560191696629 3.256307459899389 6.811538014513355 0.3445033981322776 -1.8407057178896944 -0.09136415083629426
P 7.478040687609329 4.482709570944684 2.074077970315614 0.39078788302111406 0.09024469251987037 -0.21593384189027973
Ni 7.646571734589862 2.14432974073843 2.0451835006945465 -0.7236446980533989 -0.7942893569541546 -1.2628888489381087
P 1.556301127162228 5.504229170285609 12.678822470787196 -0.1506334780205728 -0.13935790510675355 0.45265376728797524
P 4.4159496854373685 7.944139852256761 10.26070972789682 1.0696676181539964 0.13531021739994117 1.1154489381541692
P 4.163559792934494 2.8279369194580837 3.9416984760692584 0.050580541161029016 0.1405706944679321 -0.14933352826222668
Ni 0.9143691974737921 4.36442173836506 4.948665474035233 0.8146252402980293 0.49655535376693194 -1.1289814254229653
Ni 8.939946312807523 1.195623983018248 11.845590149254974 -1.192733728079262 1.5249760494559994 0.31770247588934963
Ni 3.6558038646180226 8.696161356398697 8.403844005858573 1.3699277301971828 1.687553587212326 -1.345851148863953
Ni 1.3165552223893837 5.872503798284915 10.468386302094457 -0.29513281811894976 -0.9787937766905596 0.3564340881315926
Ni 6.738968179673366 5.823231065398371 5.982634040535207 -1.1952202419465416 -0.42108756244591994 -0.8083512343638595
Ni 8.933725988434489 9.244806905853803 1.3420862803620903 0.7843361023961847 1.1225400406729957 0.7145288517950596
Ni 4.65189684828255 4.584351334882652 2.51947445359134 0.8117798004294341 -0.41818401564587987 -0.4542465656963919
Ni 3.256316702580478 3.5231898763501337 5.941483775789857 1.1913029091700063 -0.7167883372531978 -0.6038451746945472
Ni 7.45644054190386 7.5271470522362645 4.603509564244352 0.1377748768903498 -0.0437851155057504 0.1370775937130091
Ni 2.643961352377492 1.2473737544366972 12.861377437784377 -2.033815877017239 0.4323687917866941 -0.05056177210795164
Ni 6.307325730126483 0.21625563078463395 11.52471568695354 -0.25215837143995284 1.6835912601304683 -0.20972128532166462
Ni 1.573631154204484 7.55911748612382 7.439259322027141 -0.3330015681402652 0.6282372303856665 0.2858128262696045
Ni 3.9573925485587256 6.38787569581889 13.470876799530798 -0.8496117836755432 -0.5820069957735331 -0.14592758790447125
Ni 8.141720645900659 7.143779126018292 2.478512739540209 2.0051313645983537 -1.959492997933948 -1.0194627151648314
Ni 4.576661424216435 4.598058230937941 8.081887225601593 -1.6482051673216906 1.2675749415598685 -0.11375871648141055
Ni 5.933366853257318 6.992328553690607 9.088002972639254 -1.101588378121993 1.571206798288765 0.5464779496289879
Ni 4.803828040026874 1.1553166507882324 0.07072684423080139 -0.5323996171590508 1.2728387610619691 -0.5450656426624935
Ni 0.8911931746426147 5.769281535880692 2.8932152031868 -0.2092235197496397 -0.03623558529326663 0.3567166523690179
Ni 3.75385946829338 5.868289135708238 11.352129875779175 -0.20144207603200795 -0.6917429642487958 -2.3646456343171662
Ni 8.541069167721865 8.501723074325128 10.984383004870061 -0.31106465885785783 -2.8008715950664214 -1.5424335828108144
Ni 8.981436708216957 3.64584949708495 11.88237139864946 1.0716298840866898 0.44923060053903924 -0.48903384857890625
Ni 5.215737365448307 1.5028137316990084 2.251073464637639 0.009893862074944252 0.6108696856414964 1.2791438773443906
Ni 2.456418110396468 3.9229265907770863 2.721806909583198 -0.33882794501405517 -0.28007206713108534 3.059077972472667
Ni 0.3384170710087427 4.110608472974449 0.953106198186752 0.6649883218627708 0.305290475378242 -2.0187163023716397
Ni 3.14097728526831 0.9642519473122222 3.6398167991380275 -0.05964959334183276 -0.9862774866621142 -2.1685689363621297
P 8.122200103440262 4.1935800211122265 6.314736511823806 -0.8788295428900801 -1.7923226986006162 -0.7357183413884814
Ni 1.7767298284586373 2.692818164615021 10.980973379816255 1.0792750593367735 0.738398973544438 -0.1749435155208471
P 0.8184495773981492 8.410553268061227 3.9941987531921512 -1.0120391690072505 0.17770822275017784 -1.7459927051858253
Ni 5.248955561282903 6.752360824571621 3.8468020207901907 -0.023456431250727345 0.14813487996843522 -0.3584665451805891
P 8.838424703723714 6.940218317709678 9.230611071968898 0.3592831275446135 0.7006178981409225 -0.9793133966394553
P 6.8928957905329575 0.890574839277747 0.017917861559529492 1.1885160904534886 -0.0526731620239996 1.0637437964703937
P 3.611549907562917 3.657754070327844 9.93723807220932 1.3463723114747457 -0.7594791912535048 0.9422146920149451
Ni 6.262840706044147 7.236104267418343 11.623534736086865 -0.8156619090926598 -2.296201582612155 -0.7897161357611754
