# total energy = -340888.8479647157 ev
CRYSTAL
PRIMVEC
9.07669454145200 0.00000000000000 0.00000000000000
0.00000000000000 9.07669454145200 0.00000000000000
0.00000000000000 0.00000000000000 13.28465994775916
PRIMCOORD
 96 1
Ni 6.232367122335841 2.166125937026249 11.179359922473108 1.0697203257688028 0.15134618781688128 -0.1819178899561512
Ni 4.591246277866948 0.31077059284083114 5.770351567317952 0.599558117283419 -0.20606749061916121 0.8083730887407303
Ni 2.862553483864102 1.7023794563474846 4.811757311901749 0.6445261973536771 -0.3058625458316281 -0.8023399951727731
Ni 3.1345366376560686 4.204088946251979 4.435561904359349 1.820052303305401 1.2677582612152685 0.10351852681064108
Ni 4.2160338763501 2.770361496777 2.416147120555742 -0.9371089953572636 0.4177461567775128 -0.17445294903767375
Ni 5.584935572967337 4.575815897041107 2.6272011464832223 -0.7525382411592975 0.41753789742144864 0.4507393238740818
Ni 5.091635374659785 4.704877417607366 11.17683660137335 -0.31504164122773487 -0.16759093181051782 1.0933749890732651
Ni 5.736489142760912 7.852121427708246 12.087751887707164 -0.3729097171891126 1.3590121117259433 1.8242699409311744
Ni 1.8195323535940362 6.73616905629957 0.17474997052211663 0.1928016267481905 -0.5318476013103227 0.9445124869101863
Ni 2.795313330241846 1.6743506234120733 0.2950134510092658 0.6061650810769754 0.11473676412396369 -2.1111266350842612
Ni 8.353236660069356 8.814822887432504 7.029710267444158 -2.000786714476412 0.034052718709334906 -0.6731700863426149
Ni 9.437039379192662 2.4517513628071805 1.0698536548567439 -1.403291650369609 1.381307947009666 0.24871309320382975
Ni 7.004376305136508 0.7452828555408482 4.8411694330947235 -1.142271200553336 -1.2812652945627676 -0.7625843125413899
Ni 0.9669221227148561 7.3552359350323355 2.3900833920019746 -0.9498485544111189 0.30617622041730497 0.4992575831894434
Ni 7.7655751446644805 3.8819025946084054 3.5719398275872805 0.5260885873393585 0.15318298391530394 0.17558166332547825
Ni 7.897423210473996 4.0237350244817 12.219296791916925 0.9582879434277239 -0.4090270317369601 -0.10099550327847123
Ni 8.234386420931964 7.05047683702736 9.394419759682227 1.6220616761571034 0.3217627620016523 -1.8421203388490341
Ni 6.843519123374411 0.7715435483675099 0.1181331802637227 0.19337318298094436 -0.1977746544827497 0.4996399062295266
Ni 2.0102972440744558 6.7214375809581925 9.15671746606852 -0.1819690549090608 -0.27780281148093444 -1.6013630101571712
Ni 0.44933450498742844 4.921320277120907 1.4502860634400272 -0.8859044474589903 0.4750056526206142 -0.07041480227813679
Ni 6.518882064187909 1.9870064457220382 6.870414277153852 -0.907664207733585 0.6995907424279887 -0.08367166728804298
Ni 3.9250078172801244 4.55136328177945 0.4388218772977286 -2.679883193605791 0.6341821351151916 0.02610800994096149
Ni 6.4978150560133345 5.958695703347636 4.66727267186533 -0.4406014641091315 -0.3847085095962536 0.41870980624236276
Ni 5.267196801679448 3.1536521564909057 9.107776836436251 0.17066365719857063 -0.7647931472672507 -0.8529452189241504
P 0.26334940188517847 5.871459591514009 12.338486499432488 -0.09797882793933449 -1.82004638976813 -1.283379769802609
P 4.072740098645653 6.458730809050937 12.582127674325227 -0.420022097295883 -1.3135272399202669 -1.381015612580228
P 2.42551971540325 8.687304404948827 1.2333893691963147 0.9155353829515458 0.17491497627575683 0.7949431884880697
P 6.392616165559509 7.877263871759764 5.960149789823105 0.8412888656321447 -0.08689223110786971 -0.5494717421499892
P 4.868965902648287 1.423398171016268 12.636767560498992 -0.7024282118767838 -0.5964206000957019 0.5673455371066164
P 3.8968519106202653 5.946097251238066 8.126093285287824 1.0411900795395939 1.4958063698705786 -0.3404076307963492
P 4.961021739316338 1.1081010305767034 3.666912006231415 -0.2670183192709208 -0.055371020571136895 0.16912690883907
P 0.12519938701249783 5.638016083008233 3.68298592470464 0.1657770185302306 1.290669361485487 -1.1584745497860758
Ni 0.8938429314542099 0.25219232887863463 4.091888293581062 -0.04381596874368583 -0.03280650500705962 0.2182059257539081
Ni 2.0180305878765834 6.718986873415265 4.575688823316658 -0.08013614333095877 -0.7915470183223271 0.17631262795423183
Ni 5.8530702082474475 5.595591612431772 9.069052026580149 1.0218427853612337 0.4301298751538463 -0.9520990410081925
Ni 8.563289526582079 2.346770313023837 10.082857999930136 0.6504880713640668 0.31555071965366943 0.19018707194347892
Ni 2.513345812386099 5.096028494847848 6.7468804636010855 -0.7643439755449739 0.4557817713939957 -0.0995780541056543
Ni 0.5432674020994694 9.27719878722615 8.963226844198687 0.5719038459012602 -0.5773070191947025 1.1768018873403538
Ni 1.6291577609815644 1.1317004365456376 11.35111730678447 -1.0941535191105027 0.5767724868474712 0.21226050680375058
Ni 4.254192300462947 7.237084601379406 1.3263274605798192 0.42849851019801044 -0.11696539634416629 0.15232577812133122
Ni 5.389468954682338 7.9129534349404755 7.960633311692326 0.8824779382759447 0.0497575310391014 0.48495505052384225
Ni 5.476287538564205 2.9274700036678776 4.78759242785902 -0.5497653621310081 0.28615452587973944 -0.5008953759031824
Ni 1.114500100272126 7.472706516590008 6.909697303728064 0.09332538832772314 -1.0051031040090497 0.17031964359559054
Ni 5.308423148568257 4.676930274923386 6.695933884461458 -0.14314771116648897 -0.22582821818585627 0.09759753334051578
Ni 0.8976124827230169 7.560378309764598 11.05868254471204 -1.7107341390938473 1.5386445480820274 0.5372250635721523
Ni 4.689083968997387 0.24723645362515848 10.189706125793405 0.11529135107585306 1.1861643023918604 0.14204805034440698
Ni 8.636756292702293 7.578522622276867 4.9128798588091716 -0.9863481919990498 -1.0602627799003288 -0.3577877739460096
Ni 7.5639091439653345 6.1730872298807995 7.008083227212551 -0.8747926538165451 0.9420018046731904 -0.31221548463284937
Ni 2.733265045932756 5.766605615455114 2.2405775245109347 -0.6096751511127629 -1.2382965043107255 0.9870868699372871
Ni 2.268157061063476 5.73241370688397 11.248254757521568 1.5556325979995917 -0.7632476571570017 0.903732990999979
Ni 1.2371807045321703 3.3310561525150666 3.481059422870375 -2.1995376168295024 1.4833966833523164 1.1497669947097489
Ni 2.143052979344314 1.6250823251046216 2.4266688249400454 0.23247631962999318 -2.6576220682147453 0.6774502017752074
Ni 1.237879610016635 3.435365526897756 8.164194526224671 -0.4464512380216892 -0.06661676868828528 0.2754461383232998
Ni 3.5177909905915605 2.8604476907161045 7.102032462374878 0.8745468563543262 0.051884090463800964 -0.0736641624533699
Ni 4.1492203273742065 6.861436518521593 6.074357299670843 0.1333741767194929 0.050190247701145815 -1.021561249565073
Ni 0.40753632633860454 9.209668179376585 0.8022672519306813 -0.24892238100115843 -1.1175443872306172 0.14715323278145626
P 0.3641161423641466 5.465377351650876 7.915956913184753 0.9478857742577933 1.8188135458022936 0.8593428949203781
P 8.430334104030944 1.753408633408003 7.857225253083758 1.1642939846813303 0.3041658748554955 0.4601367059285818
P 1.736535058140215 3.332000128753824 10.708365701153499 0.16917678824039897 -0.9088618275861121 -1.964651916427068
P 4.220889907962939 6.2131426831657635 3.6983963368023542 0.7943911726393416 0.17449974311520913 0.8474402299455212
P 7.042643649584595 4.033501547874998 10.073611571137615 0.0343000588334506 0.27708881613304537 1.0081136087005993
P 6.442165841399667 7.8630951514838 10.042897851938505 -1.2576599964390016 0.7134325334070875 -0.9693665698393885
P 2.41463675857373 8.688774829474584 5.620753117541958 0.1361504539130494 0.0010400112287401442 0.24477879114643009
P 7.344697892597746 4.14249449667306 1.068665515533154 1.3046160534735662 -0.2055033905855751 2.2423994491900348
Ni 5.694527583609227 3.4531104648474744 0.0432649724967392 0.7777016277988025 -4.537592388032017 -1.1368957951740355
Ni 1.3240083651086414 1.3376143303191923 6.872446549075561 0.6526002326110631 -1.0528196933587224 0.15793541099862476
Ni 6.789476483705551 0.8377162827044016 8.942502935080121 -0.4329598884034737 -0.7141488427478216 0.9380713592705328
Ni 2.6741666873697825 1.7053203053989978 9.234047273411953 -0.12023661089627036 -0.1238639232362125 -0.6915383044371575
Ni 6.522176904328957 2.0977421198839608 2.349020425616029 1.1882188709280441 -0.22561610217505013 -0.3237142293010683
Ni 4.264467118754037 6.97220849946193 10.293884795773806 -0.360447837276676 -0.3167665943386415 -0.10640047634412643
Ni 8.018206785561922 7.125904169181916 13.296217561191904 -0.18497750271808142 1.5217446870028952 0.6291463724634971
Ni 7.838724226473574 3.9617139702564206 7.947733513321922 -0.5787908028290807 -0.781019636428442 0.2534652631768345
Ni 2.9187291467647687 8.302171176230425 12.250342718138517 1.741472962938601 1.2180994605375604 -0.020467780936048622
Ni 0.29929402018424633 4.882290490326131 10.102731422764359 -1.000381015943032 -0.15386406914272857 0.3147804171465482
Ni 8.646087134754625 2.0986044058712867 5.4494341375799396 1.1324369880717335 2.101220688824459 0.3615017324624871
Ni 3.7896561473536834 2.6244717844159693 11.139200994869663 -0.012913365627558404 0.12708680104888434 1.1057921317906956
Ni 1.7250621161614716 3.9434062772412894 12.690131263411512 -0.9860044355063857 0.05284439749454124 1.1228190053659954
Ni 3.085713097384185 8.6277975951287 7.804697513744212 -0.2386888761986083 0.3787507493509219 0.15852882160824958
Ni 5.7440409526709715 8.090883879251637 3.64238768508239 -0.977241087491459 -0.7754575689596322 -0.22203249858884988
Ni 3.2507364819692595 8.590292693027301 3.5136865092918868 0.3258783268319227 -0.2901155674100165 -0.5896274884332684
Ni 3.27580631246395 4.41086512601286 9.428535424018701 -0.4715112663141105 -0.6226972744040438 0.003570490960077722
Ni 7.083307241407989 6.199591178122834 11.226095822986201 0.8527621563790669 -1.9050725142015386 0.6082327622392815
Ni 7.872271689727874 8.711566409623813 2.6910602313656984 0.8539788023949872 0.6951571321366672 -0.1686247723916709
Ni 4.669995680246361 0.4568273163825651 1.4688188584813235 0.27327972679960033 0.6045537707257975 -0.11083485796639622
Ni 5.910389534668147 5.593567509535205 13.680808911242481 1.0659202352964223 3.8765723067883755 -0.8276509631337359
Ni 7.873424429942511 9.220650979846742 11.188845068333697 0.1363980511474812 -0.7556351349170664 -0.6377071175493146
Ni 9.3169547095892 5.0128950489749755 5.738269082572646 -0.17925114175726548 -1.1495610493465298 -0.4568917166287228
Ni 7.312511933533961 6.133040853290439 2.3226099673284106 1.66725498486429 0.3184457818132774 0.31222782592802356
P 8.60014090667203 1.742044611764501 3.2706298735316106 -0.2810421443538385 -0.338359747128385 -0.8900040714496606
P 2.3017771378746037 3.7023474219632297 1.5623287816248443 0.1617306163749989 -1.1809079390889274 0.3502356726303646
P 4.543239640109373 1.2486536465109137 8.112755990237536 1.6041670552648695 -0.43827795818227744 -0.572959283748968
P 8.85408866828697 1.4292980225085017 12.55688629430253 -0.43359675065652425 0.8650484299455876 -1.0126901723276882
P 6.425582720359189 7.895662331720929 1.3287318769802696 -0.7439996075606671 0.38207287174561944 -0.23368190990232013
P 1.7580831311287728 3.181789909761558 5.815160485566736 -0.739290632120772 0.982921682816004 0.017226134070299364
P 7.176860732685607 3.946492353406458 5.753665879628455 -0.3635233908782062 0.45043413392883713 0.1914898499153025
P 2.629100898663722 8.6803607335772 10.07090127012903 -1.339956637756389 -0.39692407782583894 -0.2869327988066607
