# total energy = -340862.20024834014 ev
CRYSTAL
PRIMVEC
9.39430249600857 0.00000000000000 0.00000000000000

0.00000000000000 9.39430249600857 0.00000000000000

0.00000000000000 0.00000000000000 13.74951129355557

PRIMCOORD
 96 1
Ni 6.122003918637992 5.699889723036277 2.6781850706324994 -0.034002582197689826 -0.03842899340015962 -0.07872666457794184
Ni 1.264783132585087 7.2338853832371095 8.507564920318554 -0.07969237092532082 0.7649885511075083 0.7064987824017317
Ni 6.4833463711700805 7.215031018058451 10.613371108083674 1.5174522302751285 1.4806173208349662 1.2258582785473726
Ni 6.358777919616017 0.6955053089830159 4.28410069271587 1.247123358573736 -1.6024693558474725 0.831854202581806
Ni 1.8873435612794909 5.181906670111091 10.855761962544667 -0.23567451485231672 -0.6271753647800554 0.11770484561335211
Ni 1.3851805138156206 5.440982745296457 4.228332355173974 -0.24576120966435738 1.465317200142786 0.14614793144539348
Ni 0.41951291323102724 4.330538608984502 5.89342550718755 0.3548577447834082 -0.8018463433658061 -0.026981413684850304
Ni 4.569886648855877 3.7816858779441835 12.957910948334675 0.47926288523507143 1.0603897923964962 0.016017458474178865
Ni 9.309922905143669 1.0532704111115012 8.521685496452106 -0.5530268064910991 1.8163391161198716 0.882450427472119
Ni 4.614537768783212 5.944160377433619 6.638676466360176 -0.7653968422895205 -0.8282873111661542 0.6563568714400181
Ni 4.905329009311453 0.7994457510406683 2.250094219760898 -0.22590020907437222 0.9215425083775742 0.25141583684697344
Ni 8.928579982524203 0.41194392368222565 4.864192297960768 0.41775181320446764 1.2097642011989875 -1.1717267868102919
Ni 7.42303027038564 5.16439569019429 5.767301359134439 -1.9073289143358827 -1.2349160178742669 -0.124608771822037
Ni 8.318072443976396 2.207003493483874 10.505919075740131 0.060246603495883344 -0.6958685563813951 -0.1738474542431909
Ni 3.9985533518601386 4.099833327441161 3.128852309345332 2.4210525523519855 -1.136265103568572 3.331737549189765
Ni 1.5390873721723497 1.4892787801557852 10.640403213615107 -0.7986419774958956 -1.3807811279719189 -0.6489983741924177
Ni 2.9138308158766155 7.164499064747041 4.671753768345053 -1.6500424776407454 -3.0686684443745795 0.7891229822618667
Ni 9.13850506687014 1.797909801189394 0.6699932016010121 -0.5298069167312102 1.6813597996967882 0.2384911583655054
Ni 8.286385461541112 7.575988304186791 8.858315296747536 0.6417213809150303 0.38967742356575474 0.6277762315888479
Ni 7.591150708470974 3.588792664085995 1.8130797209156007 0.4425670724759345 -1.4152696486670915 0.19210331512958528
Ni 0.6982061709605267 0.7925738187396277 2.6228432344254866 -0.5465265434787362 -0.21675273824714927 -0.8497315970828591
Ni 2.9026609901678837 8.439954125006745 6.736696618963125 -0.04479221661402608 -1.0442777173259823 -0.3723718424077716
Ni 7.564245426023701 0.6054674952402095 1.9952051852133625 0.03804229948470222 2.420331100804928 1.9810666103396652
Ni 4.069950051091729 5.25289002003134 1.2733742222492037 0.3485364305510707 0.29579333452108414 -3.103926239135609
P 6.047657408411833 8.384734414732629 2.379297820183497 -0.09083296092317261 0.013155563545351537 1.6981413900305014
P 3.3728176489104347 6.841165960253242 8.156210490236862 0.29943221682525206 0.7715173533649615 0.9116134221893204
P 7.419864390432871 2.160661399101054 8.34071459193534 -1.0595552123103429 -0.23909999559409792 -0.47819613453345383
P 1.1155076653758809 8.01845055906951 5.448560189717536 -1.4789373620293818 -1.230863702181764 -0.9913824119888475
P 4.345362818377587 1.0391507744082014 9.651496926860885 -0.7462423808482568 1.059155662879079 -0.16414899600850438
P 5.430132325873762 8.623640922385071 5.707449318282547 0.4140003165818354 -0.07220840384344983 0.5691818189844068
P 5.441640346473591 4.251654650636125 10.771449976194186 1.4311104723540902 0.3296231385863356 0.9619121704438726
P 8.389412777392803 2.1632448322969338 3.57938239124122 -0.41795724434705445 -0.38986331432431565 -0.38314373621229497
Ni 1.2180370831934562 2.3946171093199378 4.18106116427089 -0.0669291577223815 1.1959116115866115 1.2759122577809703
Ni 6.932347060614007 -0.16569952632323082 9.580728706468584 -1.0661323513072285 2.257837638121976 -0.4854368752562672
Ni 2.756044110574802 0.29224266026919976 0.485095478626508 -2.3515682323079177 0.5181976146270559 1.264330723590958
Ni 2.1484863830215617 5.153968014385465 7.549306606139744 -0.11468637050200249 -0.2972202967755978 0.9411484555339599
Ni 8.821203104600905 5.355222157495775 13.26768713484675 0.55707526552886 0.3520706689565743 0.3257153188914971
Ni 7.390075057108743 3.8613589577051197 12.017169250654185 -0.35979092041896743 -0.08242725335798062 -0.567706519990461
Ni 5.916860534280066 4.2314287172880185 7.935351377175711 0.5700099713126571 -0.16624495930558467 -0.13309958290186755
Ni 7.802024617372487 7.996665171501345 1.1279025081345861 1.335013949039133 -2.6575773310197395 0.20890418873700795
Ni 3.018680626419217 7.267873969792358 10.462470426536695 -0.4811863275100293 0.6249950692992849 -1.0689191700237461
Ni 8.112684807752679 9.036154140800642 11.740240242939906 -0.07064311623885898 -0.4319838976434496 -0.17728939004520436
Ni 4.650752805038183 1.4924916316212067 0.10630029085330707 0.13478776923756786 1.3557951474505425 -1.2567989339902872
Ni 7.241710837244994 5.479198767990419 9.632426492724026 0.6562918225300375 -2.104018820394886 -0.34547836045103725
Ni 7.9159023526468735 7.841574631025776 5.068866906622423 -1.6637788533902311 -1.4073370240835763 1.7095964259449785
Ni 4.778458953637424 8.92472831848671 11.087344671944356 0.4740648859738997 0.12818209099559216 0.0701468933287308
Ni 3.6292069535720866 3.0857559464867905 10.948639673942438 -1.0883459112897902 -0.7410528662275173 -0.837056572718352
Ni 5.665375055539321 7.144611326290031 8.353776430173708 0.666066128307982 0.2676024739091649 0.42946293099380883
Ni 6.37138507361191 5.077000493753306 13.992740343578859 0.5376228132312031 -0.009254428718732449 -0.11389729894180382
Ni 4.749646627776466 9.454613952718004 7.694790532847652 1.282805385356378 -1.0432269074639646 1.4239743755299412
Ni 1.156100446610052 3.5287348880086844 12.653991170020099 -1.5761420308068534 1.0933469640488074 0.31356042869651807
Ni 2.201056899982085 0.2755536818238156 4.825473680081426 -0.2501678233724852 1.715700481960187 -0.7335809833305044
Ni 6.210225813701657 2.9295474840100955 3.6354945602557316 -0.03746842925910321 1.0145385383903365 0.3794835137518884
Ni 3.5657766228863372 2.9322624374414024 8.58249951388312 1.7978999355780778 -0.19210922866685626 -0.8364713896388434
Ni -0.128811858007078 7.499236852512832 3.295730820636137 0.986651067951449 0.03954228106899642 -0.21756443551516724
Ni 2.128993205270832 0.31189272287218883 8.509779157424985 0.6133597990532017 0.09964438856721548 1.396087419311686
P 1.0495878445195563 8.336231630767799 10.62904644128602 -0.48905955961051895 0.4481535654247765 -0.4383743745508257
P 0.20306066748691945 4.004753591530251 1.0054026819977324 1.3430509604109966 -0.18183098666929973 0.2469739990255359
P 3.088198465144713 5.552361596097738 12.918779920574245 -0.4555583425292799 -0.131358946061677 -0.08777051994776496
P 4.200155084164075 8.710979753010873 13.192545866626512 1.6430385355190866 -0.5035297282022361 -0.9805105022713501
P 2.4290566223966494 1.962084632211929 12.432266841695888 1.9508093541170208 -1.2548618648685743 2.3057576017317065
P 0.4354804092420712 8.240973403108809 0.575565430285716 2.150706197149096 0.25963462521233993 0.46772248869563965
P 3.3751850131481134 6.657479162874917 2.540868550544585 -0.3706137220660843 0.7890196239147831 1.7186842471788597
P 5.414143222966898 3.2415322710470833 1.5231020269864979 -0.5013548320381043 0.13527345062473475 -1.0261735515261037
Ni 5.3814510501608535 2.196914012566147 6.700040989919475 2.0609566990980897 1.1005205989791111 -0.4579008746195275
Ni 4.752671593191277 6.615232984395382 11.760823159784172 -0.7791571292984065 -1.5641082395707708 2.288728928384194
Ni 4.253204710553653 1.7510228372598062 4.54176574366116 -0.7020569445802942 0.6196775137411134 0.6168130477091248
Ni 9.220733396919364 4.701444461492612 8.086211663221807 -1.0322135870725964 0.9593397817310059 0.6781703677706837
Ni 1.9341459764863043 4.206317746624065 2.562854036756649 -2.883126841622912 -0.00986095195447979 -1.255899047883837
Ni 8.207745755058529 2.4839851092923215 6.126700130472974 -0.06960747588549303 -0.6121755489371135 0.37070628177989057
Ni 8.333582437454206 5.769783333862991 1.9316001205005462 1.0951714188520558 -0.15471099052405612 0.5097296863653609
Ni 3.3214120254636894 1.4947368699259895 6.814835609120835 -3.4646664108417236 0.7648576819565989 -1.4006403287896911
Ni 1.4661781902333533 3.2287748082107015 9.160075324910357 -1.3025110913154214 0.2412208985918426 -0.47122227431878205
Ni 0.6795453284139964 0.5604030260015336 12.895130703384035 0.5350254848176721 -1.3448995835839612 -1.1954261873097605
Ni 7.03302580083308 0.22430118550831749 6.993221201581215 0.8029416333125139 0.14155208454459492 -0.3151701963857992
Ni 2.8579816873329573 3.1560159351121935 0.8356955462150021 0.12255240351364055 -1.6168292241135702 -1.1185900548863124
Ni 6.475098173548326 9.381592039148641 13.72029335760187 -1.198753966131413 0.6098798109244012 -1.5856617973718303
Ni 5.430451732159797 7.297888766377218 0.6837661885409376 -0.6426600906792158 -0.5710767220142745 -0.7707431942030984
Ni 4.061250926948511 5.178825338881095 9.420299383864947 -0.020502747939042106 -0.06127761586355899 -0.17028596214417768
Ni 2.108804849132847 8.444801585112467 2.714043123391313 -0.04420831908609806 -0.8648206302054977 -1.000731200193599
Ni 5.767641432886043 1.9215857940030627 11.702745702680286 -0.08699790344779856 -0.19206603413374665 -1.1687005983894583
Ni 9.466826546007617 8.988788067442 6.944053300997229 0.06949640422892546 -1.7039099170831622 0.3075671872275606
Ni 9.077695746590392 6.52688896339882 11.239208269500706 -1.3908858205060886 -0.0762028697148236 -1.851160337564115
Ni 1.4717584059364541 7.078296944727426 12.495830571477573 0.8348395104623751 0.6592313647743356 1.015637170771154
Ni 3.2185256241499567 4.005523924337749 5.985134567350527 0.4129479640579211 -1.35923348370813 -1.3386597733218364
Ni 4.121966304202954 8.673007982182703 3.9346147894074903 3.517127971075549 2.04237173700705 -1.1765033822633286
Ni 5.256403489177736 6.628826540156975 4.663325200114714 1.1571450323413748 0.25429598660824587 -0.8627470355059206
Ni 1.6451866249515046 6.370051082652584 1.1721703405186779 -0.5974413280507324 -0.2058736294408003 -0.18656207359638194
P 7.818257972145144 6.410859932844956 7.269298146055978 -0.08628185121738044 0.7589482584506994 1.4776322700647133
P 9.238432262886773 4.2416215355335805 10.3484048052117 -0.4488613901250786 0.7364791308139058 0.6974567268041214
P 7.302416820196906 6.907301850067768 13.029271009786395 -0.6456204588591204 0.39697395722716794 -1.3869643739644952
P 3.0275676366130444 2.041673163250091 2.8569971644277636 -1.5610889931284726 -0.22564926940583074 -0.8544943085788251
P 7.613377628258071 1.6329364544517686 12.76125155859202 1.0883847349475255 0.0822948415451744 -0.30899414948207427
P 5.386787013998163 4.244374066175009 5.369088148030753 -0.7815343712813314 -0.7622235867678615 -0.04932352882547634
P 1.075393993570764 2.4442284209833627 6.794375757639719 0.4244991592306302 -0.06535744235988744 0.6313639489401062
P 8.59838903718316 5.179924472277161 4.118941338788142 1.1582220674556376 1.2746902124484112 -2.406416033385733
