# total energy = -381172.12723437604 ev
CRYSTAL
PRIMVEC
9.17072363661955 0.00000000000000 0.00000000000000
0.00000000000000 9.17072363661955 0.00000000000000
0.00000000000000 0.00000000000000 13.42228103314246
PRIMCOORD
 96 1
Ni 4.363512812265483 0.42700264561683215 0.9321572804453968 0.6281333578179504 -0.3515783027011881 -0.28179316358725015
Ni 3.8487050738045987 4.152265194774987 8.786561044890703 0.23051533924888043 0.4506866162592754 -1.4283658197294176
Ni 1.2893487099396046 8.858937312396533 8.702805743576228 -2.1836883085020715 1.3224962761880965 -1.8380698229287442
Ni 1.1163246682989194 1.3274347249358291 10.451916757878033 -0.3002241165989281 0.5504261356434584 0.08951269944985228
Ni 2.4032064535975453 5.734893644560308 3.215401498992229 0.10899754764734132 -0.3971955863196708 -0.7716505365087162
Ni 2.221827882782393 3.1143960666380477 12.265790504975849 -1.8006702992343633 1.3343632028290116 0.6582067801645631
Ni 3.722965282903266 0.18237084310568707 10.55687935745371 0.8696473621701797 1.2269908494899189 -0.0022682272088864162
Ni 3.6879606310273716 7.7929507457865785 4.484746109603333 -1.2007928509383128 -0.3693867916375187 0.7091372484658433
Ni 0.5238225597325653 1.9170572263004462 2.709435255127506 1.5567435716755835 -0.8761278276882007 -1.9588473939301492
Ni 0.7806330831478727 6.7195267223594 8.002162462644 -0.56352590625021 -0.17206799374526496 -1.1369176495509066
Ni 0.30009450453237463 1.0754507533366817 6.912004619914241 -0.06419298973814105 -1.777514172832874 -1.2480862367076377
Ni 7.208812337118264 1.7380538728905484 0.31599378798986427 -1.7864505560905557 -2.408354902279659 -0.5913907509812782
Ni 9.097761295669269 3.3816859758795497 10.850800130877138 -2.0238132572785723 -0.22857184236926442 1.5978488263563255
Ni 6.208359761156762 0.0787095692049351 9.94456756889859 -0.17236109950565154 1.0844532611036033 -1.856008923905668
Ni 5.638711095732857 5.369174359216115 9.706469906932787 0.3806772769496734 -2.084380220228352 -0.49206055122037196
Ni 8.56814283863894 8.767441003314584 0.604728517233093 -0.9322568094712848 0.0927916273114402 0.1377134275247951
Ni 2.0372670708876144 8.136330148508378 10.53987316766103 -1.4377572882466465 -1.7797942271163025 3.156244074702719
Ni 7.264891311763559 5.577826661935618 11.330526183384121 0.5115268874750997 0.44135119779096244 -0.5022822289483801
Ni 4.644081929239838 6.541779758078922 2.8423025323893163 2.539150519638698 -1.670362677255336 -0.24388687545978
Ni 0.4986498405986533 2.9399322213964934 7.98793500209376 0.6727263139369769 1.5963383032490701 1.6762034523068297
Ni 7.882970568373369 1.522404308085295 8.576368060611037 -0.7870175058830897 0.5266706850950735 0.7454736210030322
Ni 5.393128289187253 4.361146765583801 6.955936054115521 0.5277564619600846 0.02133141448792455 -0.8548154393636697
Ni 3.2024808665510585 5.637949925676348 11.481915571045128 -0.639541342544576 -0.9754114904818879 0.4490719634739879
Ni 2.2758709567946136 3.326597439380074 3.4400768899374494 1.1237286616644584 -0.9210442285849171 0.836192939166476
P 9.153757733802413 8.337985189142131 5.548381302689321 0.5624118472504249 -0.33033661971359235 0.39419639448203075
Ni 1.1082360901080524 7.5478356461431675 3.560783787742243 0.8639587964258346 2.1780143980457454 2.39961160886939
P 5.3084458277196065 6.310374890176267 4.999625379708083 -1.5958657344880258 -2.3314138688472297 1.3484729027575162
Ni 7.228602758587527 3.880894313543762 12.944071893549111 0.9066691908101676 0.3632243715805486 1.0156384563227345
P 7.076029430513319 1.4706080613483155 3.0099332714970664 -1.0823889223754068 -1.558114226770865 1.0743321135092014
P 4.57031262882336 1.2802513521557726 8.948205135650385 1.3551595707490725 0.5936805754567195 -1.0079174335293932
P 0.27019611154159906 4.848304772473866 12.770172964879619 -0.45657469960893626 0.1267996088257687 -1.1625068108739207
Ni 2.910851856948377 0.7209766092369795 2.9115607538805244 1.4536125101113482 0.7219621681446534 1.1547407937752563
Ni 8.353749662963107 8.980055058617369 3.6306729550152324 0.3104997874933233 0.818551829045945 -0.8207264680997607
Ni 5.0495746427175785 6.887341793010956 11.329331238102636 0.37079369928737427 1.297889276272694 1.2934235271918564
Ni 4.901705895836018 2.7365347432839817 0.13973156385576038 0.5312649893339755 1.2045962838448028 -1.05875379945497
Ni 1.0429680504432006 4.283910931656953 1.2871083021708645 -0.11622517574403209 -0.5737483553091667 0.6709851628761541
Ni 9.100750951553875 5.137035833427666 6.492572406606435 -0.28402128158682055 0.5372682581052618 0.10602663794447546
Ni 1.804257326359786 4.078505065082083 9.997384517169179 0.4630574791198025 0.3568444361961339 -0.2938902039611003
Ni 6.996537598587658 6.008933206351104 7.620875874035638 -0.10887747712970927 0.48613004466854987 0.017122261502583412
Ni 7.158052382144967 4.364989298760642 4.079849493157798 -1.133605297348222 0.4740288905296417 1.183375941013446
Ni 6.267666830499547 2.5740845459222865 11.015209194793899 1.3112006486696193 0.8977150669406733 -1.1125603037524645
Ni 1.7789094464056412 5.783397601534792 5.423191755202332 0.8779473973954428 0.6098615560919561 0.33749020003923813
Ni 1.201878348505945 0.3565054593709915 12.63511755297343 1.0185512590941554 0.1786639017952278 -1.0669728449306528
Ni 7.3287470599982605 0.3207295496426575 5.99206824570144 0.649420549331501 1.22601717272274 0.5423736976526272
Ni 2.4449240751284447 6.339987156591582 9.396522376994215 2.015599354009213 -0.8878533436552452 -0.8888244493192627
Ni 3.973894621291586 3.19069648676051 10.818653993538764 0.781507631808454 -0.5321455921667158 0.799570659957752
Ni 2.7057119413571074 5.95867764117429 0.3730861275899112 0.06840342827506284 0.12419816664717967 1.199022132191135
Ni 6.168311211316042 2.5761021051082174 5.039489598004998 0.4164004413828957 -1.3441629625282527 -2.1051879010023224
Ni 5.668194972018161 8.233374745351634 7.07015925035462 0.6814204992768651 -0.5962177400562764 1.0153175826482064
Ni 8.239968495600198 6.511296272924227 4.550851436330346 1.5713862612894227 -0.5751064119989578 0.9666003199481611
Ni 1.6180457842219733 8.925278326719356 1.4160642658290417 -0.8995991713372636 -0.3210508235362922 -0.7063427164398416
Ni 5.126416135530813 6.438829215255033 0.34997773833214907 -0.5948892510528401 -0.2549133084772706 -0.2976679258359777
Ni 8.06876025722685 8.161943979446123 8.164129362873428 0.027953033569500248 1.0007659100862765 -0.5298087165034231
Ni 2.8721789156435182 2.3969061665032987 1.2878749746615183 -1.6095452888576474 -0.2507843739105617 -1.0335233070229557
Ni 6.4843526870684824 7.875257989848971 4.667182064846385 -0.6871162641100618 1.1487570653879957 0.15237565752266016
Ni 7.671475341346418 3.479574279291468 6.530409894993847 0.104472148973162 -0.8719904084810595 0.5600672582776484
P 4.050992894364849 2.186199621703575 4.800411585689305 -1.9327645808001683 -0.1846589430363981 -0.2751067527060101
Ni 2.6209469433773087 2.048253597727363 8.845833265483913 0.012107067676179148 0.0035648345331228933 -0.3102997556673753
P 3.1488596458231695 7.73119509324996 2.207710470915023 -0.9904915247434619 0.6750073966616698 -0.3871729119763461
Ni 1.1119043795370172 3.2304148905526238 5.771567368126381 -0.3020588558148217 -0.8567658782218213 -0.029713467904032693
P 8.030940193214226 5.2553381675117725 2.3510470462070985 2.2438384956294066 0.26070857500280903 -0.1077258800237693
P 7.084383959687786 7.24804469256104 9.798761317748465 -0.2060042414813936 -1.3641116377360378 -0.22571663230865643
P 6.351129585732063 8.269837542275543 0.4373866559178736 -0.4302044371455236 0.6861281891651797 0.9904663279324813
Ni 0.16263544597785778 2.3179095536505474 13.263629424719214 0.20357994831061713 0.6612301403719192 0.19502023166606414
Ni 8.683061175724827 4.892287562727152 8.974780975490875 -0.5309705980220082 -0.1475332418286943 0.05493856101940861
Ni 0.4194578913338094 6.688456310896069 1.7364810937978798 -0.47833651676606004 -0.9452408804357785 -1.372778055161784
Ni 4.7785339075349595 0.3787077811397994 5.526167976052225 -0.16854969617936136 0.29487493647187274 -0.2507380940536585
Ni 3.387857872843782 8.746540924293058 8.11912403694182 1.0154906178909608 0.2957252002873101 -0.6799562560265128
Ni 0.439076820272269 6.134636314358147 10.84752526548943 0.3272322697566558 -0.6600656877501728 -0.024540151233209347
Ni 0.9916761935027039 7.194084155060971 12.853216618044875 -0.3140332545678785 0.09851413161751421 -0.16621539161922988
Ni 6.993254479548734 8.246699806702349 11.796681399148648 -0.0531794122364568 -0.957732842255202 2.4005328351320787
Ni 2.111595785442008 8.173618310553803 6.1971338784317735 -1.13241796190834 -0.7435378374329 0.0682501905266502
Ni 3.7966703882547366 4.4433439609633245 1.9522709706737913 -0.056269621126006315 -0.3409344498340967 -1.2530155556884548
Ni 5.097757624367027 2.318285553317016 2.4677665134026068 0.32292438640992127 0.3816069878527944 0.8304984598848599
Ni 6.091478889226379 4.799177206296458 1.8493222619946157 -0.4706890275231313 -0.8435151838595022 -0.8072389751362871
Ni 5.869813329757624 1.91406757041584 7.086454709070437 -0.9441005961837483 -0.6713122071982697 3.0800980263677595
Ni 7.2302443181069895 7.201127270764583 2.5524746528962563 -1.2812498679437998 0.5618138086551099 -2.0561885882854845
Ni 4.581821886906736 4.141012716951638 4.242823338835478 0.723039203258916 2.3658100869389127 -0.7406481745899309
Ni 1.5524934521263767 0.9252067890498663 4.614540277396028 -1.238853662365776 -0.776474697370237 0.3865882431174697
Ni 5.14633494713009 9.12860243904329 3.0756084912885338 1.5293063014002373 -0.24692283407262633 0.09082061962799844
Ni 3.4005868371622894 8.152599012125837 12.732053935278534 -0.592666018149276 -0.4433947105835525 -0.25116695406096096
Ni 0.2993911100343707 4.407220480811596 3.9662434866151233 -0.10101452944186474 0.6569304845553009 -0.9604394425530877
Ni 2.6488259430374392 1.2200547226264642 6.510424137112491 1.4116721611238203 1.625539864513691 0.7640007332729423
Ni 3.2137333443744076 3.8640843772355327 6.13443914380134 0.38899248168358813 0.07640418709235229 1.1490583986784983
Ni 8.829957825907712 8.588960381148315 10.701907014172539 1.753712699537902 -0.03159808652125526 -1.3810706341878796
Ni 4.79245506591788 7.343044218047649 9.09825284645275 0.18430284524856 0.11445471410717063 -0.1278524755703153
Ni 7.652253504738644 6.458683831789303 0.08224029778031348 0.4959799408794361 -0.7505075838825139 0.6603320540376821
Ni 7.87692706153915 3.035601209703889 2.0390993814573823 0.4780076726717316 2.32342776531796 -0.9613799520894861
P 1.9785744400241816 4.683085016593303 7.874153834730853 -0.8569494549875369 0.39073183297219805 -1.1007895363697817
Ni 8.606027097716572 1.9976953986726593 4.665061793556443 -1.5356906076600263 0.8150394450173124 0.5126478884534204
P 3.3653529171970846 1.438941552852779 12.521565653699831 -0.12080688157744354 -1.558765744311935 0.4395750797271462
Ni 4.053120502233648 6.486993855457337 6.907495375133687 -0.5631664660282624 -0.568324356080118 -0.5845464743659352
P 5.314113334887357 4.597357092638401 12.276608290501867 -0.6873695177714485 0.8634561457578032 -0.7784387630751433
P 6.760189710679472 3.7721478734221083 8.654056011210004 0.2924334169099157 -0.6222103074652962 -0.2615691232308915
P 7.970771075855636 1.245705236458499 11.52795443752335 0.5632101747820042 0.8179399064935592 0.43768943266865906
Ni 5.369476993094004 0.7055789643589008 12.034242573785464 0.011713688892502407 0.19145796823610253 2.038569846762457
