# total energy = -381165.7797043868 ev
CRYSTAL
PRIMVEC
9.29218042761477 0.00000000000000 0.00000000000000

0.00000000000000 9.29218042761477 0.00000000000000

0.00000000000000 0.00000000000000 13.60004532380833

PRIMCOORD
 96 1
Ni 8.514322618063778 4.734774731660742 8.350549798266911 -0.07269228545840385 2.3111250366912066 0.4759649312100899
Ni 6.835495106516437 4.7027352938992015 12.863969927091137 -0.8791542732193504 -0.5409025124237394 -1.161688171627367
Ni 7.122121700829799 3.504146245922604 6.6143681620978905 -0.6501294024730675 -0.8154958158284407 0.8987687050161683
Ni 1.3681992154537999 0.2588420459227632 2.1626109419121744 0.2110819131146171 -1.4277351281239539 0.527979119493852
Ni 5.141902320432239 0.3229627362573073 -0.05433695367006451 -1.086823818218309 1.0968490636647947 -0.34652042856230647
Ni 6.028775887217239 7.391994494016692 8.021211697088434 2.114077747292785 -0.6290517558671618 0.24946411243724134
Ni 2.8793772095725703 1.22525760551013 11.3751182546399 0.11532014743125944 -1.993497379903851 -0.16225357875800445
Ni 6.796263521183136 9.117310783731371 3.939756225827127 -1.1298422307613638 -0.20178043320803316 1.1312432248739486
Ni 0.35809461163109824 1.8199571463275814 4.33028147601146 0.5043658509502862 0.9852274481310451 -0.7936028724100913
Ni 4.520747942228736 7.678927730280787 3.5681758728899604 1.398224777369663 2.398121654587425 -0.004943717158520518
Ni 4.680889377954485 5.51609842213097 8.792211775217284 -0.3822682755858771 0.8958605302304379 0.5439197019835084
Ni 4.357586547897273 3.156758084462285 2.5005313008390733 0.9046076802954486 0.1707248494538092 0.3208937291331377
Ni 5.245472962337728 6.4321029742357 12.839081751307928 0.9919557679938141 1.715184204445401 -0.8894975641268875
Ni 0.9077995568775143 0.3969712356759741 6.084687865452437 4.685753236142381 -0.5757129352347052 -0.860130166708364
Ni 2.3285925129723575 3.1334718805671518 5.580574073753939 0.2085249510207183 -0.6433548027533953 0.04118778709221939
Ni 1.006584725915488 8.911284561559427 9.908815916184 0.2847864418876192 -2.43055457830515 3.0909820202701153
Ni 2.30226776611086 1.9971683173108568 3.2465623612158825 2.0268595003040644 0.149606065197323 0.2157047565986092
Ni 5.207913969462976 7.482017137007934 10.435572892899122 0.11194274631859431 -0.26118114376385343 0.2807089293841359
Ni 7.2700625037884645 0.06173724608111167 9.836558992756649 -1.9812676706068781 0.016772077252016276 0.3946021145608817
Ni 6.862303046754849 3.7623387684406304 2.5745834735052684 -1.3624725594707179 -0.08781911379751327 -2.498908641399516
Ni 5.224351836458384 4.929371572032602 6.727969712664511 0.45321735310092914 0.1134455561163659 -1.001184485680934
Ni 8.326286057001559 7.98111872663898 6.279970468732302 -0.014765845455264891 -0.07055132785600107 0.23003917094341025
Ni 6.036441935985589 1.34486655065704 2.123973126901658 -1.5148430747870556 1.3826598330518705 -0.46115974787645736
Ni 1.3509808053110692 7.463051796964053 7.768087129719811 -1.1284242673679148 0.1043363947262461 1.42328840520651
P 8.66773651523403 3.6448484404078827 3.615204526734198 0.07003813566500841 0.40483690491501245 1.0868628989863605
Ni 2.1036845803794577 0.2623154629283501 8.22151300696198 3.876635813036459 2.0353176583737462 -2.0827000043124517
P 4.474770233979287 3.628772968445161 4.820890012825206 0.9052921079569828 0.4219650799548668 0.1907336884755683
Ni 6.565492222804989 5.903238531022805 1.1574739376913634 -1.6985357972554422 1.25915972091298 0.5731096932839033
P 1.6089503155012894 5.437003383202248 5.118621691845301 -0.21307451806461367 -0.5964555670986953 0.5565813566115769
P 7.436466869053448 2.560980650727102 0.7570999055802745 0.05831416235986086 -0.9025425702363037 -0.20899469156828523
P 3.1015160724285384 8.168625633422659 9.862752719875559 -0.04991873920731403 -0.39679706532967146 0.7856334810513697
Ni 7.8442727869886895 0.18563732010223252 0.4956291018434917 0.3001230722446896 0.2528391995570613 0.9499056329012996
Ni 1.7362346015968746 7.4818777543030555 5.665370794530247 -0.42156450208233853 -0.33101950471322994 0.2538146760964532
Ni 9.134083169218489 4.340925668574059 5.753363096120417 1.0121564113114052 -0.565703116407187 0.0887249134412343
Ni 3.8997608232710883 2.1763401383427645 9.446986191055656 -0.44282186879921803 0.1000187411874987 -1.9200813289055447
Ni 3.1261589346511616 6.202186556447478 11.236479853404864 0.4859845202296212 -1.8167234960424838 -0.6108491168162061
Ni 1.1532339158089415 7.442618292428778 12.084850341794063 1.0371637319890203 0.6619022267382795 0.24370638401785769
Ni 6.754560215883312 8.364467625958104 12.415888911972067 0.0629190081217239 -1.2835448346255638 -0.9677195211542688
Ni 8.533260081566683 4.906893787825767 1.170096435445214 0.7153405490630778 0.04101989405578742 1.071216193588039
Ni 4.178656323553822 6.856374635707325 1.4458205145829324 -0.06853841119103035 -0.8171091830621476 -1.1932510340353126
Ni 2.798860467054082 3.440123123481475 11.102315636996446 0.5085876023411176 1.0537342347531917 2.9465577563840477
Ni 7.448416612951749 3.238947419439322 10.797823896789717 0.4850021017116938 1.449757398031316 -0.4345174626985807
Ni 6.394070080164358 2.3511446346217943 8.845958675436695 0.07392410098297592 0.9145887027675604 -0.02837598003953178
Ni 0.14819076260941616 0.48673555605417324 12.339239574904957 0.05007146273509441 -0.7975436022253942 0.3213680976663949
Ni 5.175317000881919 5.572808598656109 3.1784255905447556 0.4684997331812964 -1.2870147954520352 -0.008656647233733479
Ni 4.781291386369056 2.6828104269717516 12.611852632069773 1.4889191558324422 -2.518331783121134 -1.1971364851326478
Ni 7.151773048247743 2.3727861225993543 4.512385909154023 -1.936087217415498 -0.07651731563144887 -0.49996592211037766
Ni 2.7226088353048947 -0.3575175672328988 4.304074739840093 0.12218473576157667 2.6970131684178584 -0.10432045388664615
Ni 9.190012802596305 0.19121820360559127 8.007611661964365 -3.0159263767858575 1.2175160772302644 0.5633225319901524
Ni 3.0599986107352204 2.53741568142221 0.6340231187359728 -0.07613319281915275 0.40445123944081957 0.09089723850220474
Ni 9.093439172475746 5.467639701734672 11.508195285950258 -0.11588244769263267 -1.0438547708559507 -0.09897255931117149
Ni 4.583637418670182 1.4250580668641433 4.347377229373897 -0.37491723453744463 1.7277970081134049 -1.524957023292606
Ni 7.124221733583309 1.4298435397316587 12.074637306398555 -0.13415630630115605 -0.3313421781599713 1.2284931450670584
Ni 8.26702053088697 1.0474238584450615 5.8497192892213645 -2.7535103321736387 0.060768280327308244 1.1317631019331607
Ni 1.4682388288356854 5.278859766246432 13.557843979302191 -0.7495238798130058 0.21300946915463315 -1.2231064268338483
Ni 4.716041696124992 9.1012538961293 8.677562995928005 -0.5344086771692795 1.710341531641119 0.49818440472992265
P 2.692567216313288 4.509894675608818 1.4108410309664758 2.8010618567003567 1.1248244658317985 0.11918682947551733
Ni 2.525679657671391 5.453422665837006 7.111627112370435 -0.037886490633128295 -1.3499484588617783 0.6074606599599474
P 7.793602527674977 5.944830330158725 6.499801153995474 -1.0302384656240966 -0.6374528354466635 0.5136007392849928
Ni 8.794546900133025 3.596436180913212 12.973423448360558 1.0261689235404134 -1.3182079332253878 -1.0419470123102765
P 2.860560544413893 4.49206298156462 9.352954901472092 -0.7292880123821053 0.6403165301477036 -1.6401887247751172
P 9.168250516274517 7.8775759612744665 1.863355345318735 -0.1923411421720042 -0.07778486948996281 -0.492946296259435
P 5.455420484606939 1.6222845942680557 10.71997679767868 0.6147201697358381 0.2143500423429276 0.3277351775350033
Ni 5.064145355470357 4.11979036119322 10.537736698703366 0.5367591796793272 -0.3233311349300367 1.1712112806264539
Ni 6.5799880241124145 0.7287067193783714 7.3333487563298 0.47948631409978715 -0.7728527843469335 0.2828054069018484
Ni 9.074966317989105 1.3822582842859372 10.261887175131257 -0.4301941527328784 2.6252989306020074 -0.6057742733964601
Ni 6.0327436482161305 8.413799811304978 1.6918049705896159 0.357046782014927 -1.6687567662207972 0.17893463895811118
Ni 2.3425307834602664 6.79621706028151 3.601454887506892 -0.45333022452970956 0.20182645595462018 -2.6605233010219407
Ni 7.4907982474153165 7.000264048044172 3.120652388590405 -2.0274865923651015 0.13904757295518633 -0.5938117017179451
Ni 1.4843514695197082 2.9723454737269233 7.758077593073428 0.17910330332549154 -0.23393130690896488 0.6007742490787072
Ni 4.1561971237076385 4.615574642448143 13.159335817000416 -2.0946972858836443 1.0664367699215247 1.2586208176903741
Ni 9.073953470333649 8.456673931325785 3.971417471849428 1.6023472284473115 0.7380984115848837 0.8574708747086459
Ni 8.153219198443356 1.115052346852396 2.6779032265419755 2.16660307088501 0.4774602848086938 -0.7003582167216326
Ni 7.000830871044014 5.598622275599716 10.300035292238631 -0.44991014310456706 0.8461073700667106 -0.2693958183641618
Ni 8.61819990192 6.8870295386004 -0.1413972495736093 -0.49210451708442987 0.502751969495947 0.9554358186909094
Ni 4.0275375949239125 6.211887592707062 5.198766747150778 -1.8791563085564087 -1.231119784056628 0.22012936802886604
Ni 9.33074287362256 5.848080148611986 3.512511066651414 1.098843211276688 -0.8924617889615339 0.23505719298329195
Ni 4.569541181116743 2.6489311375058078 6.919118224917664 0.17591307852296803 -0.6549083119189495 -0.12793680775400548
Ni 2.829171559275122 4.475457855323357 3.6695238252616442 0.15049875221492146 0.1350101696610191 -0.9353650160829633
Ni 8.402063787554159 7.49348368752932 9.189047345060509 0.002550791446311736 -1.3711513181916388 -1.6168382229746348
Ni 0.7854364094821935 3.6593535338956333 10.031080566467875 -1.170633553746113 0.2847116227856258 -0.14475130820818297
Ni 5.206622356397763 9.213131747245583 5.734893958505905 -0.6328649589656649 -1.2891758076590958 1.6328047736062206
Ni 3.861551377773567 7.372471623153294 7.246457578108173 -0.48523555787873845 0.8036499722334483 -0.05236154432085175
Ni 0.9902862416249598 3.7027108472933556 2.3074249261913864 -0.22920870462231493 0.24133865511662952 0.0539150048509007
Ni 0.6341717936211773 2.0136061843062643 0.917146561066706 -1.3964478879748985 -0.3774214890165371 -1.4430617311786955
Ni 1.2675834868917473 6.304465585287754 9.758644060729237 0.20059335487846744 -0.8556875575559778 -0.1339372483118145
Ni 7.053099385373673 4.9747267042002585 4.4948153253769645 -0.04035012168227244 0.6236871491211387 1.539129458138246
Ni 3.5982853247979416 8.072117048564376 12.310951390340728 -0.052590372502206204 1.4421366482612648 0.4570788929388645
P 8.590100348616376 2.7138834779794636 8.079705043017993 0.18207961234499612 -2.2543949309890143 0.42947347251677004
Ni 2.269875225496959 0.5844270354678626 13.49452241647562 0.34225702530026214 -2.1030525998268748 0.18503021033288777
P 3.2903703453593804 0.9919681262638342 6.264792621389002 -1.098657063407811 -0.5106629968129077 0.08513462498681466
Ni 1.9579924850595072 7.377851795561628 1.0470075687664895 -1.058841731183086 0.463620293601808 -0.4442033225277769
P 8.410882066682841 7.484618947499011 11.25388782402623 -0.5835758829225498 0.5059277961207674 0.41893683465150433
P 3.6883544286908094 -0.20928498981201896 1.6000865046890118 -0.3949232453457263 -0.4287643622648874 -0.0928718457300723
P 1.1287768971928238 2.4126774527357497 12.176487965725839 0.30786800629743105 -0.21162904386733875 -0.3260505907437288
Ni 6.000332523241579 7.045572719310202 5.6991395070503215 1.7918696702235979 -0.03771756915543182 -0.9297296721740569
