# total energy = -340862.2089938068 ev
CRYSTAL
PRIMVEC
9.29725908306714 0.00000000000000 0.00000000000000

0.00000000000000 9.29725908306714 0.00000000000000

0.00000000000000 0.00000000000000 13.60747844942237

PRIMCOORD
 96 1
Ni 7.391804234417918 7.804360798137096 12.761636897639358 -1.8424250145736463 -2.6253197565376145 0.15476678346265602
Ni 5.531459929781129 6.327900310960192 0.5470711640527487 0.8669564456015778 0.5976110208593772 1.1975422052114988
Ni 1.9416395359244902 6.971335703426799 0.723082219762165 0.86586912607467 -0.6598867389701474 1.4127455966936573
Ni 4.869578775778063 8.642806194750495 13.061559959702414 1.9960366013859365 -0.6342212158832432 -0.16681857242086753
Ni 4.170945557584662 4.6037701455727325 5.952169259776176 -0.7077305979263037 -1.2529757035894549 -1.1096693553579149
Ni 3.714106150015606 3.1443794256241246 2.6861705318280924 -0.515606456861112 0.9726655523056343 -0.8609683463389431
Ni 1.9680344537682446 0.1823815374658588 10.547700174565838 -0.2723127349006407 0.16345968325096363 -0.4746384990891826
Ni 6.1201995484982445 0.4667791069937682 5.570030537800361 -0.710886369946466 -0.6545421868287824 -1.5371607644476493
Ni 9.154843428046346 5.344334001129759 8.242049711949702 -2.02613522054353 0.5163947570903623 1.6738503786936203
Ni 2.397428353244746 4.5655119254504894 11.249886805087485 0.42281637221156865 1.9805742440842795 1.4345614070171682
Ni 5.614084669082801 6.451935041130508 5.697423437863302 0.5636022680141004 0.40975799636571364 1.197120544293048
Ni 6.856412286918646 3.4344074151048973 6.030385238936421 0.9616270351032858 -0.2115303135059454 2.038581673836999
Ni 2.405888858788183 2.381957714536748 4.570751860532116 0.395588389733551 0.5850956620011858 1.0526643987277806
Ni 5.760944169702716 2.7268488284261125 11.405924559633203 -0.35031794793152576 -1.2262282602922818 0.8766549038362644
Ni 3.2006092470820415 3.746888284681712 13.472287752607972 -0.36668867598006527 0.11782517324130029 0.2695541983188971
Ni 6.248678368393574 8.80171494282568 1.2159503647838863 0.04480198680603897 0.6893814059951547 1.8094863548640963
Ni 7.691380508726282 7.940388992209646 6.729565135949552 -1.057276186468179 -0.9478518356960643 -4.560458493996913
Ni 7.040451525635488 1.8092744618344838 3.6493618989129866 1.0497508246254115 0.796207399912474 0.6037166195364828
Ni 5.6045642760317245 8.076454375317551 10.901290733550802 1.0400994175785765 -0.8745350292797843 -0.9914965689692086
Ni 3.05573006259482 0.4527383866951991 7.856958180566639 0.015387281089347695 -0.10970897189206912 0.08077377691495767
Ni 8.670214513807695 8.192893245016451 3.8938891036359804 -0.6696834133455951 -0.5272874927434661 0.3403364112387816
Ni 5.596884740230759 9.293084369722564 7.897589990870464 -0.2979193797251514 1.1451253821726795 0.290516402392861
Ni 1.2465299788310478 4.102685083189155 6.97088013774369 0.7228054899815551 3.024838591673823 -1.3732429106133446
Ni 8.631844726579384 5.896033340632532 5.7782249847066565 -0.2645359191686993 -0.6674074728272248 -0.32842526162349245
P 1.1649000462251435 8.084533693248591 2.6174396161353357 0.7042405824951742 -0.5597538408022875 0.8533288275158142
P 7.662521817290208 4.403442109370065 4.22588398978985 0.23722643272046884 0.24781140732516677 -0.8487023844873964
P 3.8994005186757046 8.568167800791475 9.585706294419401 -0.1565760687572529 1.2376017922365459 -0.36139451746066154
P 8.715975621812964 2.908489374362508 7.577201802651129 0.011809076819786114 0.8506322545202577 -0.06010622126327713
P 5.990883975307411 6.232454651719622 12.069860407839675 -0.28941545601919827 -0.9353848135773052 -1.2160932287408088
P 1.2929976785080763 6.503934609816706 7.085250367350927 -0.5634582862370683 0.8028565297978754 0.47438935919285397
P 7.024571807538577 0.9930402165873148 9.232673570964776 0.48313779480944535 -0.07852200476630349 0.6952599762631188
P 2.835952160901088 2.957151227125526 8.143123158999831 -0.6386504552991904 -0.3873194648565394 0.03053827779817321
Ni 9.01474303460234 5.623883979899045 2.803548424669726 -0.05437651786835151 0.11149126060347252 2.3593530184596596
Ni 0.7133656545495874 9.024681804301169 7.31555741467976 -0.21693168702717477 -1.2419050475975901 0.1266527988352593
Ni 8.123870395396152 9.188982962502939 11.002476520398535 0.30560929217024146 0.6179407335556648 -1.2703571322906961
Ni 4.9051221963193345 1.9756303142396594 6.996203081643316 -0.46344263037336314 0.9234546377986225 0.019801608106959447
Ni 5.640126291090675 7.245437488516465 8.45307424444657 -0.9653700470854858 -1.9847880250553107 -0.35724424273771377
Ni 3.7105545971391303 6.635918496294316 12.76669925507716 1.163673577488512 -1.4799079534727675 -0.7056852853615008
Ni 9.087605652123123 2.849702806723882 11.72655726576 -0.15731320403359358 -1.4041349722065108 -0.6454386818656174
Ni 8.008844709040769 8.222188907617955 8.698798006382136 0.007389093375219533 0.3718226547725209 3.989335492125736
Ni 8.392514689547358 6.665056105495558 10.953625003555201 0.7100870139736222 0.07348058568765409 -0.14851951700136354
Ni 5.613656995176209 3.745688938291489 4.115377700956078 -0.9219114616812186 0.06357721053101309 -0.6768573053862149
Ni 5.022918465808721 1.0656704026371238 2.885900754287416 -0.9204135369794535 -0.5296719338152427 -0.17093336592018948
Ni 3.558795441111092 7.913092240258514 4.025173836248902 0.34079535315307113 0.8645995153336271 -0.9995358943339174
Ni 3.7078305002993206 6.5020100772370455 10.10162048465109 -1.5713662066847647 2.555094187452148 0.14364573384883003
Ni 7.171961251912313 4.350596490129524 11.66752803966568 1.1376113331838213 1.7306383342169422 -0.41921040002786514
Ni 4.726493962246757 4.714221580579355 10.394738882969925 1.2744251317124824 -2.429294994866436 1.5225088188624294
Ni 5.612922511727932 4.194300271788082 13.445984877626726 0.1048282467610001 -0.22775603133618838 -0.6859096453964703
Ni 6.626351616949046 3.2272087046202524 9.30160902635199 1.578126922447366 -0.6300465156802633 -0.506784744804424
Ni 2.63290932511745 8.917112519534617 12.873559158994299 -1.8031215889883332 -0.5454731625135573 -1.7839740695256052
Ni 7.829760909285083 0.46025986909590255 -0.028900529100848872 1.8547922778897477 3.3570369471865025 -0.2067172083880182
Ni 4.435777975611903 5.856064424883924 3.6759790212429913 0.8974217040699707 -0.9884315568906396 -0.9745159752508121
Ni 0.43834808946428583 7.931844811336658 13.064621547038078 -2.038870151611695 -0.2607332575931574 -3.245339741219811
Ni 1.3067111352955145 2.0487904440432883 6.6948519606225965 0.20473463074035061 -4.048970687289866 -0.2678804101608999
Ni 0.28403869533672627 1.4165861402541222 9.167126966424355 -2.0434384877086678 -1.2607563759761384 -1.03141243132754
Ni 8.568074828203086 3.26489979195332 0.3741895656685201 -0.507988535304538 0.249223457181345 0.6447943634133991
P 3.586491975192298 2.709156144855607 11.623303768546489 -0.5734315953996963 1.2283905580509231 -0.7845556746061585
P 4.490929315044503 1.9999519433623298 4.960959673454249 0.930843474063526 0.18879764779512 -1.6674573306830833
P 8.868515747583473 0.470723933919131 5.35421605754967 0.5317437287426069 0.23142962353303367 0.1405390698990483
P 6.34794520101695 7.907634749320056 4.303214869908627 -0.04998970165456552 0.4118369903819294 -0.11732972166212051
P 8.127951892026447 5.843931502099106 0.9405200014061357 -0.04212469708419197 -1.9848376473463236 -2.227090072526474
P 2.3240729810054996 4.771139399191353 4.607873025898358 0.3733717444271957 -0.5658787227531028 1.3579309628466225
P 0.34773514536819666 0.8130146045112436 12.187823098262276 2.3177808514448275 -0.24507292534808114 0.43827975795449037
P 3.6932895874752165 0.6036403354582868 0.6870841632636684 -1.865334315071652 -0.35015982508710664 3.662707174501666
Ni 8.325053779412 7.846867865548736 1.4414535184706385 2.281426738295826 0.9247324760697815 0.16605546900259788
Ni 1.1250241030649246 4.735958571744799 1.1641376710003504 0.2749555718401265 -2.225811720034683 -0.7523862889624655
Ni 4.946141702316744 2.0487625522667714 0.20029270661907908 2.188702730997527 0.3664480207241689 -0.0629215792248852
Ni 4.753316553997103 3.9647695455723007 8.17138589614433 -0.4926012542151904 1.5093578833027683 -0.16058261881348473
Ni 1.86840502805015 -0.0344026468817343 5.1529889764172765 -0.9707320827283475 1.6604757571589275 -0.3265036191207474
Ni 1.437198163100055 7.04193908704972 4.87864825177545 -0.39490576184422954 -1.6556171435150453 -0.08388712573295874
Ni 2.368551067290994 0.8423902235387625 2.68211599724843 1.3785733216873226 -1.0924370506400283 -0.05438963049447407
Ni 2.3250213014070717 5.144666070304656 8.830014869005533 -0.19914479535739898 -0.7862569735679814 0.3565721563713536
Ni 4.498971443940187 1.9879677767189345 9.440337144391368 -0.6653791295432864 -0.11225179291858087 -0.6034872771344961
Ni 0.8817390121228135 7.478482578573366 9.410809050318889 0.7317153908766753 -0.2712110171960297 -0.16178898041676007
Ni 3.4364249202729473 6.4110642912745215 7.19470885511355 0.8049249822911297 1.055184336936157 -0.012853716034216573
Ni 4.319292619618809 0.7596855278110767 11.396617073809537 -1.2934376682592432 -0.31866792512641245 -0.8140673109120302
Ni 6.806234980964881 5.651868729004257 9.565309038252648 0.7466609564429141 -0.3596664790259612 0.17202942719784564
Ni 8.721879381175691 0.9279175670499508 2.278871567982335 -0.11632981964269642 0.9726403554946539 0.8689565067507421
Ni 0.1613753108451549 3.2838754972435993 4.724897622904111 -0.1753394654076851 0.16984578928296556 -0.14591396105771645
Ni 6.696146139052977 4.334214720055309 1.9419091564308195 0.6298146021751153 -0.17758172447464257 0.3269605041525079
Ni 6.756187836634861 6.688178388228004 2.516866518645089 -1.4967569067093063 0.3027530536683689 2.0943918388280833
Ni 2.2317512007348133 5.806816844814053 2.8059843064855285 -0.18634918625462746 1.7025426044219905 0.8036625706389385
Ni 4.1897911012511955 7.940742288045526 1.55998892003772 -1.8339442307961447 -0.5755054472095895 1.8069419911756879
Ni 7.771513582659117 0.9511095792236898 7.168868053896596 0.08688888867376005 1.2780971812474313 0.21968868094702165
Ni 1.3948584463475164 2.1818249207696985 0.19762997168760632 -0.04724222081641541 1.2125386786203312 -0.40312223621675086
Ni 1.0112628439116396 0.14397828010572805 0.9341960059438877 0.3452436187324119 -0.8086903628708332 0.15373988486003845
Ni 0.16187736282245777 4.908608668383938 12.639087869431505 0.47068517086838935 2.6153901561287283 -0.06267681020393076
Ni 1.4806256591367497 2.9779398978893985 10.090638562510533 1.4387209377114965 -0.25235840326590087 -1.0514161281429761
P 9.14251526282591 4.652757402395114 10.420075772757807 0.01743130810256998 -0.11868315036622142 -0.3096333257279699
P 3.611166900150848 8.402434864728509 6.040455099984878 0.562816024667379 -0.10444978037565882 1.8289758310472761
P 3.6449252469950437 5.233585053840291 1.3156458010397372 0.7963626945434157 0.8648417132514202 0.11303520805182468
P 6.389280813814882 0.7082828431423382 11.962864763943486 -0.25838841151006464 -0.21633699086596936 0.35649965126220534
P 1.162631515068442 2.589825827657796 2.8012622287212303 -1.139979833415998 0.5146975718935974 -1.4151655189890597
P 7.078542395098631 2.203441047570237 1.3529017766591427 -1.3580569469015256 -1.1655401983836056 1.3105414178190655
P 1.8548589219218126 6.763365320458523 11.918681400763186 -1.5489081347915648 -0.3670262618251421 -1.2845257104815944
P 6.409139758694861 5.200700649326955 7.495257622696469 0.23262647205461226 0.8721886405347947 -0.9827414484843978
