# total energy = -340861.58178093267 ev
CRYSTAL
PRIMVEC
9.38628310018050 0.00000000000000 0.00000000000000

0.00000000000000 9.38628310018050 0.00000000000000

0.00000000000000 0.00000000000000 13.73777409715226

PRIMCOORD
 96 1
Ni 8.827930428271825 6.222166901185302 6.998901518206838 0.012523329277991335 2.7670685304740474 1.4531749083532974
Ni 7.606099217137276 6.211166177685242 4.673576656967597 -1.7533234345192836 1.5652413247339494 0.3394524659719315
Ni 0.9331335550076577 3.4918098555494743 11.223293854880298 0.9215746471670903 -2.2787671891857917 1.2561065359089527
Ni 5.96542390639254 5.864915589636028 6.495576179806309 2.29797050158712 0.2875722321628725 -2.298194187562152
Ni 2.985682711718257 1.9551251724985574 11.76063320507222 1.4490701421563044 1.7473129666591458 -0.9054389179474922
Ni 0.92554099081039 4.777786923680102 13.564567887938056 0.5462231533057044 0.3781863922070196 -0.378275095266084
Ni 5.595735770067176 7.74863930849555 3.06937550274921 0.7497174838810508 -2.6405599705261364 2.276481992696041
Ni 3.777284262145718 9.291950707238481 2.5282722531344857 0.6275445751940161 1.6504440839545382 -0.15734071483741938
Ni 7.354631313306146 7.264785813867097 11.499409198846926 1.0295722927950075 -1.820013222537349 -1.2540769070734337
Ni 7.618104272902272 0.9627698044778681 12.103542276426879 -0.28933240938708876 0.03992460410907962 0.12743158598281282
Ni 3.9113860852219497 4.7819919783968485 6.586685072916953 -0.9236425854397126 -0.9611323548550543 0.42806810752881114
Ni 3.7939543004871044 4.35790094667358 4.238116959456555 -0.4155177816676263 1.242470433182757 0.1452380180366144
Ni 4.525840319423629 3.41095641508061 0.968012043449526 -0.4390081514800827 -0.36167785302903516 -1.3734804805454475
Ni 7.7656847981509305 3.3861766283569272 3.916556988443949 -0.303557037626903 0.2747619677720816 -1.2870039968187579
Ni 3.084745540915888 7.813798884039415 7.465064685548122 1.2493170237909452 2.230583173281397 -0.8714029114087057
Ni 2.261953372578277 6.7570442293857 5.416667081742024 -0.34847498118551595 -1.6451144442115087 -0.3382826140335464
Ni 8.927791091511697 5.504416624220695 3.056434634584081 1.3264938273832638 -2.2736123844577296 -1.8786348888353002
Ni 0.24852624278597668 2.417746895320582 8.141031924406487 0.11538236812776258 -1.1296257438751836 -1.4720043823549747
Ni 1.2838651544894053 4.790195589607643 6.792765606027488 2.5056616438526333 -0.17887318959255646 -0.19440188135577488
Ni 4.152369511109763 0.8330870433673592 13.510743187563703 0.7922702696415969 0.5106573403859528 0.21451305028335313
Ni 2.273216911998133 3.056267558749353 9.247843625498612 0.4508359973529461 -0.18877039410161037 0.29011453896875194
Ni 4.127167341657836 2.273216911998133 5.108130578183626 0.44167412834802006 -0.846214070847904 -0.2950515712590532
Ni 5.363772561998096 2.6761606484606215 2.8752202419994473 0.31994396362535865 -0.9275493766932864 1.6352167254818228
Ni 2.0122407036400753 0.7035141017661939 6.994683322694102 -0.44601132227079315 0.5619817016915418 0.5287625346270959
P 1.8005800253752868 8.653289249566962 2.449679029575873 -1.232465242340929 0.21341467501285183 -0.4950353175779797
P 1.0899445508108891 1.5997511175192591 12.63846372015667 -1.0930533440677883 1.1011456341576196 -1.4776728934946617
P 3.6963275725655045 5.782532185062633 0.8657926073294802 -1.0692523849934488 0.5727818776308393 -1.0232921162132504
P 6.96864858995339 5.9020101794587525 2.4450900758905663 -0.24936975295122216 2.2762989301509573 0.5641666251580025
P 1.602332345302976 5.2497479979377575 3.709240281882084 0.47972928334852866 -0.017198623266473607 0.8340226709880346
P 5.58838631059572 0.9289040959555018 11.228541725621668 -0.34406888169802036 1.337534915688774 0.20288935000149572
P 4.428354385744778 6.635200891711411 4.933165572720442 0.18735808713511604 -1.0158122628964377 -0.5747343733715199
P 8.163747667531482 2.103794506557803 5.556297425416835 0.6534306989321584 -0.03182845736450647 0.9458988257347516
Ni 8.882577367023824 0.1142657915295814 7.394810235673341 1.7799803749851795 1.1335232791573768 -0.6537937386985321
Ni 1.9411865424664858 3.080240125147946 4.918398133912727 -1.4890680227054807 -0.2217134246865343 -0.2545566964688003
Ni 8.21633901033936 6.043405144309341 0.27836148145260453 -0.20260704287438655 0.5245227855141353 -0.7482288151506662
Ni 6.809945319527623 1.4867872034209562 1.107606719249508 -1.7965789027738093 -1.0654422672187391 -1.4482700148525123
Ni 7.79621837626159 8.122419864143462 1.6504971171188492 0.49239608018291975 -0.42498689750032614 -0.5857728905738686
Ni 5.477187017673194 6.29414091807818 13.479709320577147 0.761566669910153 -0.298392462706828 -0.4843246160286949
Ni 4.877750836031322 5.284777605533508 2.5725079269493993 1.824421121797058 0.05810641722442896 -0.8506510235733349
Ni 0.24100125982522808 8.85867050460518 11.872184483601616 -1.028243803791571 -1.7282600637927528 2.19291445508603
Ni 0.9481365895149055 7.135226951690206 1.1082478023681546 -0.7320619755828166 -0.5046761831018534 -0.11801260666175803
Ni 3.4906928878903383 6.783748204093609 12.116084227570889 -0.8236151025014654 -0.6569569669178622 0.32543301176438794
Ni 8.617949894637166 7.752956998606495 9.241057342998149 0.25613201137572017 0.9816723837899353 0.8575397802733682
Ni 3.650691465349389 4.433441751049413 12.70852575123303 -0.5416597023047381 -0.34092030876670965 -0.4510193170083458
Ni 2.40699021517462 8.984962940350313 4.807245772404451 0.7436177987412161 0.22274546549547444 -0.9247211632158719
Ni 8.91740986267973 4.657191961624847 5.607429201241556 -1.1667799843279776 -3.4708321733328034 -2.7215952286325966
Ni 5.177088782396838 3.7831506889268924 8.756237061236158 -1.2290647012998124 1.7869040986882065 -0.6222164781128833
Ni 6.891624752887276 4.031220758366365 10.32304420320891 -0.5713562009279064 1.7468211146243917 0.8892800487994427
Ni 6.287664382911762 3.4715730297251337 5.9253763919852425 -0.15847688532439158 -0.2705353312852437 -0.17812782678609967
Ni 5.494420232985573 8.549157827630395 0.9959296645299234 0.21491774192093957 0.5460436903050466 -2.5305406664824996
Ni 5.630840467925726 2.924709418325438 12.362017979033729 -0.16573125289395974 -0.6049114111755324 0.020288060825074734
Ni 2.351442193269031 6.0752528020189835 8.485864245117087 0.3204494425068675 -2.1068858575300364 1.2416955026899454
Ni 2.3379541048137535 2.423791661475904 0.5885593570754313 1.217587296787832 0.40051899426594895 -1.3716138596503538
Ni 1.133065134223237 0.534793790283035 0.6162329348017318 -1.0406419203456079 -2.335651561077661 2.0723040057901083
Ni 2.4864732583474014 4.287869890330628 1.9240162152492006 0.18087350785203687 1.2580032387110334 0.6593954011560257
Ni 5.2773155106678535 8.305433607150418 11.852209535068788 -0.022758376742438222 0.7549514785864805 1.348750067678303
P 3.7456149438102235 7.464647934589586 10.042985681817047 1.983316839826423 -1.1117635188827821 0.24354877539407085
P 0.8451793915628593 6.793425461711834 12.219928429252247 0.18281880450386578 -1.2721139670808026 0.8598810268120353
P 9.644405628251468 8.152202539626131 5.660196067538725 -0.9437905211424973 0.3954734614222415 0.9269713927026293
P 0.9646376747649942 7.61744723310278 8.035553570880964 -0.3431566542963961 0.20666552921447634 -0.5565433042847899
P 6.8949381107332846 4.808630249124807 12.388009534873328 -0.18206701393950578 1.012288308903579 0.3172237364807182
P 7.161912153832414 0.05927719208184573 8.623914877388264 -0.15575588684880273 0.3837227486442166 -0.7797667378579474
P 2.627051616590051 0.578821088618681 9.258956984392869 0.26068697773625427 1.7679355280055036 -0.29409100711799674
P 7.467341797767503 8.383536866744267 13.153973392324628 -0.27026536545330876 1.087027449588683 2.454171960613773
Ni 6.7570630019514 4.337251124403845 1.0837355247056937 -1.1439298192026817 -0.6385779501900422 -0.5633333306234299
Ni 8.8532546194008 5.1342310149042865 11.246895663106322 -0.7445395392245372 1.9167162690880537 0.6906888119526685
Ni 8.564654580615548 1.0386015836220468 2.704995309375452 -0.5951664159736265 0.709914750061816 -2.032205595107326
Ni 0.907040627313277 2.548310089762409 2.370562990062521 -0.4161716132015413 0.43685922345787986 1.0248635744654286
Ni 0.42853825253754096 7.456735298147139 3.696807211619133 1.0638695234149806 0.6756026070435075 -0.5797958470548272
Ni 3.3289109166898108 7.0298002227203575 2.83514644600017 -1.6316871150620091 -1.2222309662074304 0.3205931671735833
Ni 7.337904957267661 8.058902888098325 6.593197275958199 0.2958576121001163 -1.1453462399342338 -1.0806891660754807
Ni 0.3961884286954303 0.7459185117970957 4.477648327387492 0.5523416074986165 0.8566879737960342 1.7464850714412115
Ni 8.25763865487883 3.2955239085927888 13.155923861900833 0.5671493619354104 -0.5502700696815684 0.21633493398344036
Ni 7.8466602602968445 8.844985304210057 3.979791437375304 -1.6227345338544117 -1.4772923702267913 1.9009026990945648
Ni 5.368371840594537 8.715501532295965 7.400414785163004 -0.23929128566929755 -0.04901628199770268 0.1995929386384111
Ni 7.156167748728288 6.110479521554582 8.7537647143335 -1.1259230982126158 -0.985411024896761 0.19480297344893546
Ni 4.688147922463751 1.8140024098506147 7.351866114378571 0.27020237342585723 1.451100285212456 1.6146831243048447
Ni 5.378509026072408 5.959651342439865 10.572302576057178 -0.7500424713206373 -1.2408043583342436 0.16085952662395522
Ni 1.8451836414779155 8.224026375993411 10.157792123238782 -2.876805527390575 -2.128694468764695 -1.898710319428936
Ni 2.9138307165024275 8.152521673243026 0.2927900754494397 1.0409494242836976 -0.36908031614069337 0.8230327476354341
Ni 0.3277661812329467 4.716532041801788 8.825598875611915 0.202215978083555 1.0540353109333784 1.9591667249427809
Ni 1.9659381703416188 5.535222404534 10.724090971907437 0.33797613853672115 -0.21027458672197336 0.5123321569852145
Ni 0.8053505775459644 1.006735153346705 10.481248123387063 0.11911535280763358 2.476146922222968 -1.7805344477164369
Ni 6.594577059537132 2.101476094693883 9.321161758095592 0.469396791074269 -2.816096896656608 -0.12399016440143161
Ni 5.974322102534226 8.034188805354592 9.598678474091708 -0.6963832912342846 -0.12018107506798657 0.2378928626598742
Ni 2.908208333075349 9.043570890464963 11.816161515783826 0.7333254156762725 0.9106104348461027 1.4146934644486475
Ni 7.815300689295396 4.06365975189555 7.749271943959631 -1.3281287918835256 -0.8506595082137672 -0.5549183670868573
Ni 6.436521442628006 0.7958432116473212 5.580475551409841 -0.7673305689771236 0.30637650935356914 -0.2614824770543561
P 5.984675172517644 0.3798544192800695 2.893161183038707 1.3669668477966457 1.621025264472789 0.10929630983468273
P 8.66918022643181 3.060716656820196 9.933702129224182 0.5622043592253092 -0.4946005440334063 -0.3481186262873618
P 3.157057463991362 1.9686132609538345 3.0073913066934588 -0.4023380497525587 1.4382218865878909 -0.1671582151484734
P 2.2867707044333594 2.9292711517904797 7.1031155394324825 0.8760774340662395 -0.13180400401889558 -0.9556592475556251
P 3.806081377929149 3.8436077367629684 10.484655344061569 0.4315658362694245 0.8117458618677051 1.3898764054049677
P 4.036045307751203 0.3181724615320846 6.089790276896877 -0.2766172758132655 -1.4719581024980715 -0.8485098088606161
P 4.87242881365544 6.1332600300312405 8.117170116145525 -1.2191674967907584 0.743047785170359 2.340210126982621
P 8.144505787689228 2.914468983736219 1.7028378461746336 2.342741635155223 0.20069337079144148 0.5360318145949994
