# total energy = -340867.4313821897 ev
CRYSTAL
PRIMVEC
9.33209498501064 0.00000000000000 0.00000000000000
0.00000000000000 9.33209498501064 0.00000000000000
0.00000000000000 0.00000000000000 13.65846431318187
PRIMCOORD
 96 1
Ni 9.274198785720738 3.6490544916563303 10.174450135817281 0.7421715532129928 0.7781358871227437 -0.3842104869139125
Ni 6.09033990289096 9.127423593929047 13.001997495862465 0.12021707051224456 -1.1547045412206824 0.20822387484053173
Ni 9.303044291686412 7.514118988679032 2.1496779698518473 0.5693538257858969 0.09362595028727747 -0.31824240755321964
Ni 7.9327941034134195 2.020473246721486 2.46029955500851 -0.5866010429021188 0.6852087626747039 -1.0255821977990078
Ni 7.532932492408181 0.8644226373647371 7.2735011817335975 -0.8857766636318745 -0.023022171926786156 -1.5911989251399756
Ni 7.640540881049456 4.545635528748571 5.431875671256352 -1.9494011609155844 -0.5584713745454382 -0.12147896794380368
Ni 8.960369759476919 4.499805609694082 12.894656005141155 -2.0050750574391207 -0.7734942745856743 1.4845919892119979
Ni 3.9332541159457617 5.9247605394652245 4.405988191197119 -1.233480828089637 0.3551374808073561 -1.0142138080610663
Ni 6.2405119773004145 7.030837779541422 4.934270629344005 -1.4164222742142962 -2.0610130062573213 0.07388913397998242
Ni 4.93136834776674 1.9546726441449842 13.52601796617547 -0.9807300744813238 -0.19903912301747012 0.5953800746463295
Ni 2.0020796872720057 3.9437993834129923 1.0022175540380953 -0.5106501412971012 0.01520756097837381 0.4071061605651634
Ni 1.5587585093686296 5.588207861643788 3.0006147965821635 -0.342720595200242 -0.5176653962726697 -0.021976504271091185
Ni 9.314410783522773 5.860275762298351 11.176421322544638 -0.04660510145304877 2.387704315908843 -2.2898458155974564
Ni 6.100166599035204 3.997318948832967 11.668972101748796 -0.029399793318355818 0.2574018792270793 0.9972116170761148
Ni 6.925693064007535 7.722812631484067 1.8813307755151467 1.1037907850899507 -0.6048170516895132 -1.5398362543972837
Ni 1.2952854683046147 8.60751391150924 0.279008179783218 0.9504591914119245 -0.014978218576387106 -0.04999150142677842
Ni 5.738491921194488 9.036939599803143 3.273483390996628 -0.6709013449130963 -0.12766504214985755 0.12953500547906077
Ni 0.8256776449130113 1.163226990491528 10.420520685931832 0.9367354140679287 0.6404623116969487 0.3431268294997252
Ni 6.168748165952621 3.1283329169624983 7.068760614414508 1.7066576550316284 -0.5497298809073822 0.17022708388178426
Ni 6.920644400556409 5.285288054576245 0.8715523580239979 1.010332213618473 -0.612602609172203 -0.9175886659361487
Ni 2.814279920436189 0.43951554952006927 12.02891380952875 -0.5016659355206199 0.21678410570571693 0.4369157877274282
Ni -0.2626256868285948 5.775316368473862 6.779652308100507 1.6872645952169976 0.7267289934056774 -1.9285181468189887
Ni 3.181917807048199 1.036217176129567 9.390276050668662 0.20501462387461464 -0.2612474782254146 0.1941573694451366
Ni 1.7231620288112939 5.827417455438067 12.916058232052082 -1.9416713963714949 2.0814293651301443 2.4782619116834415
P -0.1983340840303687 5.479115669881017 1.1342275049566424 0.8701286726819724 0.8220883814442939 0.5531571614213765
P 4.238003013653637 0.2563265226335673 4.879964368306785 0.9406031245534511 0.7375970464684328 -0.49290258750569305
P 8.286685813937613 2.367048594684344 11.711737360771215 1.0530392655686962 0.4051166409389604 0.09451580909139852
P 1.3705768116016241 9.238223559095804 2.5024628938967375 -1.4970019328405768 0.5077494227105385 -1.0446345864447686
P 7.818158647159024 2.3395469104136093 5.710221272287203 0.37277910514851925 1.8222271994695325 0.24408279352066994
P 5.119503385058227 3.104134794358489 9.737816337265249 -0.421411521444242 0.2762328958906533 -0.6243857178500601
P 8.679305719142347 5.558167847504835 8.725382005507573 -0.36937110790823485 -0.08205778583370385 3.2441732317155347
P 3.268426328659909 7.353746934321185 0.10819164458526033 -2.455601236861132 0.5291592558448822 -0.8704793711531718
Ni 3.022152338872095 1.4092396816164372 1.9203799942672548 -2.2418806005720873 -0.35119495121984035 -0.47125389888766583
Ni 3.6282999121456028 5.365161456569193 8.051746586862807 2.1888461985539274 1.8551638022965533 0.9964114897723227
Ni 2.256071319710616 0.13628218405704126 4.3556294063887835 0.9597773834890567 1.0077163732621806 -0.850141173816452
Ni 7.8645298277295295 7.856401572894168 6.679699037072833 0.0954977133886936 -0.026148633370909804 0.1603100818783884
Ni 8.888008694042485 1.154837436993262 4.327520202726795 0.7298449133268399 -1.2010872422502799 -0.1609783115900066
Ni 2.9179781612289966 7.583904395864832 5.868291098782957 1.353696870160617 -0.1950307731890254 0.9489239857143206
Ni 7.359532833285507 7.288963530110991 9.780307232691616 1.2509249917080134 -0.7772370294575581 0.7024369536275322
Ni 4.975957098172431 5.632497985006159 10.032346590834523 0.3286461193850469 -0.4811801568624423 0.10036352612142715
Ni 6.307348442433432 4.736934146280227 3.1760712494657026 -0.866260705086134 0.4150107601242207 0.6566692604741142
Ni 3.3164586221588808 0.5614449713075517 6.85936239842914 0.4472403095818879 0.6261800907463215 0.3070856196054518
Ni 3.8891879628658805 4.897194215496829 2.224936650815994 0.10736026915423447 0.2544104006989231 0.19759287748924678
Ni 1.2433896874326922 1.3414700069730454 6.065136713644278 -2.3418106387005215 -0.8337287938966996 0.6524976455949278
Ni 5.412549835506007 1.0592021263700897 8.173457637624862 -1.262228846756607 1.1835690308608584 0.8387337033104587
Ni 8.526940602383512 7.338171667593035 13.246006586168598 0.05722607150200467 -1.4748752761448665 -0.22110407323730957
Ni 1.3331831065209203 3.339555557540648 11.975331719071578 1.6149325213114896 -1.432393195721256 0.9146635218695539
Ni 5.275909298996983 8.076508368011082 9.225049440437848 -0.895668983044922 -0.32627967603539937 0.5183719354213912
Ni 6.757398060906609 5.718138621773221 7.880060300401181 -1.6459760208808556 0.8936092723024159 -1.3452726506526638
Ni 6.324370183902662 1.3407794319353683 11.454425368894693 -2.341614977749948 2.3497466057181464 -1.2582554639311556
Ni 4.590924186287042 8.918823272075048 1.177660008778979 -0.4008138997985484 0.6689282803471254 0.13038166975007223
Ni 7.904125907254717 1.9642193774361147 9.449895073448445 -0.864481501698524 -0.7540371943023272 0.9847469089502008
Ni 8.196612431996273 0.18806318015918766 11.258262863394966 1.1462970338832774 -2.2589678950716774 -0.26643519307394115
Ni 0.3500011600754429 2.2082723285892376 0.49428934852198647 0.5007033144970345 -0.02198756001468471 0.3928316529240202
Ni 2.7827467710806366 7.679847665626427 2.6309481124945995 1.230402189164313 -1.0968616620702851 -0.4787129262688723
Ni 2.132486384251729 4.551533412854138 6.789964273190145 -0.9958946980369042 -0.3678215040329278 -0.6902406686716565
P 1.0445973975327296 2.859120637409681 3.2252280604246764 -0.21768219203995412 0.2951528727236078 -0.16530419265887014
P 2.471829358509186 2.105563289877427 13.501733988296506 0.7569998764750769 -0.10013366949880818 -0.2885932172282191
P 6.941454972637758 0.09727775936143129 9.251588052493876 1.3750856202490382 -1.3606265074009147 0.939797340822704
P 5.163205586429062 6.978559382770246 2.9244135740125383 -0.9088176046117379 -1.092438593301925 -0.4299414132921241
P 5.171548479451809 3.9548392519207223 0.7981078363480192 0.42635472438213023 0.2850975453701348 -1.1967145671038808
P 4.889691211033418 7.143093551544363 7.3303616372007125 -0.24323792902187144 -1.81826255839483 -1.1877414170709932
P 1.9868123796822799 2.55343853019143 7.710708904134511 -2.539102697119898 -0.9385794092552028 0.33887036821621636
P 4.575348919558893 3.7053083609417015 4.333188517292809 -0.2793920103449253 -0.38998749860700577 -0.6383547784356426
Ni 4.905014511193767 2.462161307981707 2.394301112015809 2.026560995227039 0.4842233145641403 1.1099704315381014
Ni 3.9141699814586044 3.0631202363775327 7.645762188260002 2.1201640626961806 -0.016717569864997017 0.5078736069932286
Ni 5.174628070836045 4.9280274577196 6.014887114348657 0.21673422630438804 0.34536111814688264 0.8073580172126548
Ni 0.5184240128792902 3.977142959218671 5.204107226059263 0.15489276751755907 -1.0301944997600387 -1.2372701199287404
Ni 8.949152581162219 3.497575923932352 7.707157108738025 0.0641276837178444 -0.2587655923438253 -0.7707097698620017
Ni 2.623335922518476 2.5424079937788044 4.952681919774182 1.8294975078787006 1.387465996191262 -1.333718370156161
Ni 7.2769344595222645 2.6091324737705763 -0.029086274019350447 -0.21481901155954616 0.17258864213542535 0.26326142333164987
Ni 8.41231447822422 0.2555967527964545 13.6282520012465 -0.06725131694849062 0.5270787191667696 0.6655297961885377
Ni 3.014873304691174 7.863755263835918 8.408109436170474 0.543759008035928 -0.6895554696791737 0.4954847464105725
Ni 1.4123379371908802 5.911555624893426 8.938112712654489 0.8086065449077751 -0.45165823614392536 0.7281631547490427
Ni 0.7185209296747561 8.176436442381977 5.2398239536498235 -2.009957582342403 -0.6860911652796571 1.1853428349318296
Ni 0.5541211430701332 8.152238319777968 9.467965742407335 0.17397703784251972 0.2724083799382406 0.14207144738317468
Ni 7.090927139914433 4.041926363428864 9.458226767957067 -1.323702894901688 0.7683865210454637 -0.29330270688874643
Ni 2.5752103080684656 3.4905768526045433 9.731368792758072 -0.9807377877908078 0.5143075355440304 -1.7923224414903005
Ni 8.63691934318114 4.3689136437689635 2.927090952097803 0.5582623438584258 -0.5682341103591568 -0.07947125605345023
Ni 3.7523981128351958 5.058686121267124 12.665603463657792 2.1331198515259007 -0.8807447576349218 0.15352725462860012
Ni 3.779069240641697 2.7508216737307274 11.429785838192277 0.9462189280783317 -0.8330171125416557 1.3748043415631934
Ni 5.036055790640545 7.292192435016887 11.842885959311689 1.2116850723707842 -0.8593783761440039 0.47102095694125334
Ni 5.039891281728184 6.657264680443432 0.5992212922875089 1.7740961482902609 -1.3401564124720209 0.8629889763133977
Ni 8.745246303145404 6.393446351860578 4.254392972284344 0.007180062688206988 -0.44652528579273415 0.3223605434866513
Ni 3.0031148648604566 7.526540007262115 10.774520648759232 -1.5090735192931302 -0.5072033203990813 0.010706844894542851
Ni 0.16010515643787987 1.171401905802408 8.09023587990869 2.778461088581705 -1.0038877435447098 1.2064513347756707
Ni 5.6567707643709975 8.904815797324328 6.3312040771471345 -0.15961896934863476 -0.11504786760647928 0.11238471895201936
Ni 6.220475969112677 1.353097797472311 4.5618043167253175 0.20226302927140652 2.134080415666957 1.5376364185324873
P 7.205338625886338 6.031902323351313 11.875243132664899 -0.8703163632127463 -0.023423006909630627 0.13876680848997391
P 1.0276596449194335 8.459077606789082 11.68640072256455 -0.9550887197641358 0.25448444846996815 -0.5578139434670973
P 7.739433092863837 8.335884619324553 4.543023475329033 2.083272331876154 1.948400487565212 -0.5376181852455129
P 1.6324727285931062 5.929267941400333 5.17954888458425 -0.6007912183595717 0.8421666402514075 -0.66058787880223
P 1.4283611444840092 8.68664074589389 7.411192512151303 -1.677796250715246 0.5832041014054279 -1.1389655332188706
P 2.158644246827525 5.120343273617563 11.054341654025986 0.6038649721888891 0.44838110805455034 -2.1155838995246663
P 4.576431442590927 9.211729741096274 10.933696328524778 0.2204841802651235 0.7273234324565666 0.25762427965053053
P 6.745695613646513 0.671685010768084 1.2550734705025801 -1.0371061392782075 -0.032474318478621485 0.6129214259642025
