# total energy = -340861.22844587517 ev
CRYSTAL
PRIMVEC
9.32346792632364 0.00000000000000 0.00000000000000

0.00000000000000 9.32346792632364 0.00000000000000

0.00000000000000 0.00000000000000 13.64583774075646

PRIMCOORD
 96 1
Ni 9.03806725098125 8.885759078914074 6.934432761733206 -0.6114016468855664 -1.89865298382844 0.972758112019441
Ni 2.708029230009065 2.714098807630008 0.11984665378324728 1.0292141381246405 -0.1056394298083858 0.43236236402879086
Ni 1.1439895147308248 2.7611729971970496 2.790928845088357 -0.2617547568791363 1.3280645143044936 -0.6361359164074528
Ni 5.200033708132937 6.834502900137148 8.675805769343409 -3.6984606779521916 0.33804298721891457 0.3183077135735163
Ni 5.574893059634709 4.924254850299008 3.9521760989533847 -0.9539430361954667 2.4536875647781873 -0.7036376588038528
Ni 0.7452742058424034 3.267856861728807 9.793072360299812 0.3341716771889664 -0.8899302807889319 1.0176696278201505
Ni 6.891702375873689 7.082003679746312 10.18361564954959 1.1574160266145743 0.9609438929933323 0.6635451616583411
Ni 2.9298345320094423 5.976417529409752 0.2443736884662083 -0.6053415567344155 -0.7873723181193472 0.05645679743614792
Ni 5.528163838380993 2.0237146545184506 13.649385494367209 0.3059198814321248 -0.19530870944076043 -2.0409761422111043
Ni 9.283563484985956 0.07062993128641698 4.424376185007691 3.1356940184655095 -1.1130691250680829 -0.8195288482472338
Ni 5.2612143046746125 4.041322437544247 9.200351533731085 -0.22375282371406624 -0.49202738398959134 0.40788160527860723
Ni 1.1400643347332562 7.162418590622867 7.0521965527814015 1.6367239061549683 -1.7725977093678635 -1.152210056933603
Ni 0.889001990375704 5.339727228093913 8.718543613977268 0.6794325223125589 0.7129345107247463 0.22752386072072425
Ni 5.720348482775015 3.679161649360024 1.7651981975526894 -1.1920521286312051 1.139654331755779 -0.23488929994685998
Ni 6.697140247158099 9.03418868832332 8.250478485948905 0.5921330284639414 -0.8933074247912809 0.5421680093997244
Ni 7.739522608412668 4.376724872775924 2.638108814631947 2.8039672032726095 0.21598449262255706 2.4204336878210637
Ni 0.46478886139856324 2.9292751239337793 0.5973778987986208 -1.4112646412727567 -0.025598674404710753 -0.7673899614601494
Ni 4.287527255111459 6.32998208016462 12.046300027754484 1.0182311567505755 0.5070878778671396 -0.21440043596488884
Ni 6.996134540132043 6.374361787500551 7.836695520542502 3.2111253001216307 -0.43497074818591536 -1.1475224216499464
Ni 3.0412313268098004 8.068958024170607 8.521729867757136 1.0166396438937395 -0.0863155326687933 0.3102730161944979
Ni 3.248743752476988 5.828286270974191 9.822642671179358 -0.13907765486217338 -0.40500814038555405 0.8444009288985651
Ni 0.26998711955723126 6.724896211178912 10.82628042911351 0.24132528538019085 -0.5581481868780646 1.8035383648107777
Ni 4.21202581183281 7.806549019345023 6.507795531094859 -0.5690118690654459 -0.6893832057673676 -0.11624394479710948
Ni 4.321157003926733 1.0960016253068676 4.839960444417729 0.5609910556434984 0.7767729453369461 -0.21651259721188518
P 4.722038154414763 7.8041528880876 10.549160856591575 0.26393273836706155 -0.56532105047742 -0.24097484401930758
P 6.025048738120722 5.693925774667867 13.33359404157469 -0.3136679008086598 0.8758030973589304 -1.674051181850517
P 8.473559238361796 7.555645173942243 5.376350742460777 0.020431528381474492 0.11644397662305754 1.448603486932531
P 3.0182210079641956 5.715546896792242 7.699595789359016 0.4739399303602612 1.0972403855659427 -0.456973991929884
P 8.523206705076886 9.02337346552717 11.939398076842078 -1.5236866412206145 -1.2264162079333716 0.8906085378028791
P 0.71684508743721 0.39148216247009887 2.1547187023707965 -1.5792738915676157 1.7658259378616685 -1.0575615789190818
P 4.203233781576973 0.706907202973057 0.8523542349922283 -1.872652703109936 0.08373080266075258 -0.8194763977427436
P 5.801555888425427 9.103741759064087 6.364432294157533 0.8384035736645497 0.0375285930730773 -2.0853731802692406
Ni 1.9590191105680255 -0.015576717866836096 6.221287226369714 0.8408422650130293 0.5485435739087648 -0.06640259579495017
Ni 8.80521363948653 1.2113515705085773 8.689519658318288 0.7115057486980197 0.19971917980363024 -0.8290475863709463
Ni 3.6773715435179026 2.3824910238449126 2.5200727783202623 -2.023582629325005 -0.004866326953365812 -2.46424631413064
Ni 0.08245208861876162 4.8693209772689015 12.616136402294629 0.5474202589375992 0.6518540984736579 0.2407282752261403
Ni 2.059796475398714 1.1977113369303276 3.8332934917538637 1.219446461483758 -2.512075260688461 1.5656218480018198
Ni 8.185855665048317 8.26338030086728 1.8907806488050678 0.9728028492144474 -1.2684059221015962 1.7077568016330782
Ni 6.987044158902518 6.65177225222183 4.108679831588035 -0.23596839194365168 1.4036559756875633 -0.5293436039415463
Ni 0.831919990335052 7.386144527016354 13.917526567274752 0.6952612618146994 0.19154718551579913 0.14671305992024408
Ni 4.685191809164427 4.075073391442581 12.916918004070316 -1.5703567915836438 0.18140032688978439 -0.2966579965142246
Ni 6.512311818959046 1.8712759539002846 6.715881350039602 -0.5039318487366612 -0.7707722476688209 0.9701415003322003
Ni 4.490191477456234 6.95396449469498 2.8035099327100177 -0.09863420213514627 -0.9885200028393878 0.43697029511444746
Ni 5.904403063136068 1.2986658476516428 2.017086601168637 2.0027512944019508 -0.3385759769042491 3.0130629391951333
Ni 4.233945284930872 1.0600689799134477 7.0828716946103825 0.052143514772774714 -0.5998496803819089 3.588297392131523
Ni 3.9316318373746615 9.336520782815388 2.8795446783541316 0.02690376636937947 -1.7258684236321244 -0.45909412359668034
Ni 8.087092169290015 2.8120418382106713 11.193461904776806 -0.7011262052359086 0.7861027073783042 -1.2445288583736824
Ni 2.7139216617393815 4.1015613638252235 4.288054031049375 0.4451749424124269 -5.5109441677714 -0.9524438259421211
Ni 7.492832970513215 0.25823488823434454 13.962967285260858 0.36035964843824386 1.7123971286185669 -2.1024514759077664
Ni 2.1574877723453283 6.043704997444083 3.9485865638012143 -0.17210578896173587 3.058678165931087 -1.684636413565531
Ni 2.782206740841978 1.3960121762849318 11.799187104411113 0.40250748545088744 0.803721448901332 -0.33054899283471456
Ni 2.5961942322161042 1.4551602568183657 9.226415288323018 -1.2621745964799036 -0.765767595365378 -0.12875416144897825
Ni 4.453634159711657 0.5157602605593898 10.129837886542521 0.5627095809965019 -0.22968924380315928 -0.7877626115792303
Ni 9.110445332504115 7.389258565304212 8.803761975530184 -1.9749982926583984 1.5250359561596574 -0.2594381929308177
Ni 3.539197748829143 8.221499282935977 -0.0014628521178587318 -0.4828881406924845 0.33511270094599704 0.8382045702798661
Ni 6.702948767677067 4.979701514065138 11.303816335862846 -0.3848702319850984 1.519624812446415 -2.64562632930545
P 3.747605227417391 3.1469221592383954 10.575523894503986 -1.4402057497871388 0.35105302632533736 -0.7259617762223498
P 5.828976207600842 5.628931879743755 6.068877428502125 -0.017545979303563334 0.38738965597284253 -0.36141997138195825
P 3.8412874331550877 4.798061711897364 1.9382408299443161 -0.5267257067027251 0.8197335080588721 -0.21808894056006956
P 2.9347666465432045 8.047775105038834 4.727464412748693 0.41766028193192584 -0.15863140862438488 -0.7702899087157637
P 4.937121236039257 3.0538180085122177 3.8541165250236262 0.9448495585346308 -2.1571385830380008 2.403390616295848
P -0.4531746174010067 6.052030854303533 1.4610461621211333 1.083686815251224 0.22153833256125072 -0.30144333371800985
P 1.3634639497492733 8.847215862500892 9.291273060615385 -2.1594962846369006 0.973966016284613 0.8011608872630073
P 2.667248381293233 2.161776567592078 6.364228110209916 -0.22612878014541057 1.3897244532081354 0.41919445918826514
Ni 1.6637542047651688 4.800700253320907 1.8903032872471686 -0.9226920486009851 0.7423013939226377 -0.23645947264745729
Ni 8.86220799892866 3.6980976127212166 7.870100573780717 -0.5136943274400637 -0.8703754985854559 -1.6157015382670301
Ni 0.7490632632082275 2.3288717597926145 5.570067232635323 1.0068064598534017 1.9730545386684666 -1.8417778679079508
Ni 6.786216659739503 3.273777263862907 4.904095647945699 1.350956074190686 -0.510244164107934 -0.46865939868761225
Ni 6.616240515949302 4.054878759911147 7.2945601015623955 -0.2097554809937097 0.32536256353776866 0.3211030169304664
Ni 7.170073157791523 0.9468541088671852 10.314820151962381 -0.410138519633584 -1.4013262991131223 0.5942567596751637
Ni 1.6740566368252956 4.632560832712467 6.459216533804286 -1.0460898308340565 -0.7936535231423686 -0.8467378045618579
Ni 5.419489496215529 2.2187056627587154 11.389676152009189 1.0043865375579992 0.8537476602207876 -0.0934274611232262
Ni 7.310111646065826 0.6135280099430114 4.8214160667095 -4.681961116089801 -0.6283421313946469 -0.635778533068034
Ni 0.5108132284769434 0.972922525193081 10.865579778775627 0.3647788605518621 -0.19829118910785204 -1.6715813801537855
Ni 2.7072833525748474 3.596854074494142 8.473533132651598 1.0089379043741076 0.727895760020269 -0.4165145983632568
Ni 3.6791802962958795 5.700097910436015 5.368764236607995 2.9994911140479696 1.921187674595846 3.089024639433428
Ni 4.413347454795994 3.55211075190903 6.173594890879066 -0.11014811631201675 -0.41270833724328926 0.00970462888227361
Ni 8.03301605530926 7.005476654995614 12.819636939712522 -1.053161135858541 0.11333911244548868 0.06675766514152374
Ni 2.617414445219587 8.186554925142897 11.61296295306328 -0.6706398637215935 -0.2621278239478389 -1.721986829189531
Ni 8.401218450710642 2.014792095711626 3.1219902736528886 -1.0293308662081626 -0.6026367562087428 -0.5555027788354174
Ni 0.8173558010851658 0.653099604868619 13.091461714798305 0.13946126345383725 -0.3298470816716836 2.2136347183525165
Ni 8.14145731077653 5.349078666425413 5.923739935618153 1.1100007705554045 -0.05458246323157051 -0.6547622732593885
Ni 1.7023999793255542 8.113682699819863 2.9389174544646237 0.643942042715433 -0.8189650053239638 -0.5859279280944941
Ni 6.719386041633631 6.063125781137516 1.5508358199990078 -0.6511874114239367 1.5714492533168742 1.0298759400783555
Ni 5.645173360873837 8.257394634457686 1.0672928028638426 0.4538557580158764 -0.36816294653274656 -0.5062507266778249
Ni 9.413812331936157 6.527248014579248 3.8953001475539355 -1.5180937205138694 -1.0255821977990078 -1.8279702726008968
Ni 5.767888845738443 9.130117849831597 12.058827039262164 0.1445376495354801 -0.37759992357593036 0.5031219512408561
Ni 7.027013865908639 3.7431019924083047 12.953038983515876 0.7752706497598068 -1.5246320358530194 2.7386884366694577
P 8.535867974522725 1.375015726511714 6.3703955842441005 -1.0093230556276682 2.659919091779038 1.2961290990484775
P 8.294110451157035 4.719399612991219 9.75373105503202 -0.1877604647798573 0.619162778888224 -0.03352924210569709
P 0.6572746538066504 2.904950196110367 11.990911169489506 2.227780670835595 -0.9712247060940499 1.50929334861342
P 6.23590828877396 8.730374162430747 3.0924740388873233 -0.08810064959367407 -1.2784041709648886 0.7066990713379958
P 7.630810972375492 2.8899021188750322 1.143171846593564 0.527711210544446 -2.0094292206427586 0.1960255330021269
P 5.7956261628234 1.727703871281377 8.719048945938951 -0.25897667991336687 1.27609557743637 1.439044382489186
P 2.123513055216729 5.7524118889784335 11.774829544449954 -0.8303609058657313 0.8623803961951213 0.6376875771652889
P 0.4457466105029949 4.249459535562592 4.283728874277707 -0.43613931457271987 0.49186823270390767 0.41579340392651615
