# total energy = -340886.86565948353 ev
CRYSTAL
PRIMVEC
9.16471064557992 0.00000000000000 0.00000000000000
0.00000000000000 9.16471064557992 0.00000000000000
0.00000000000000 0.00000000000000 13.41348041295708
PRIMCOORD
 96 1
Ni 5.403843259124211 3.0963066178767473 9.360356022812407 0.880589205893664 2.0589957187169765 1.41262321218318
Ni 4.8020150479224375 0.744856349645145 5.9512660827250485 -0.44148386671408485 -0.08696602176859862 0.8221359468527776
Ni 2.7938986644591783 1.848723737894318 5.068029019347204 -0.6035214728065412 -0.4918276092739594 -0.7800575296254889
Ni 3.602363604021285 3.042592249449909 2.8365219002004407 0.08260388814516097 -0.16281227947495186 -0.0436367628533442
Ni 5.952736102294348 3.043380414555643 0.7511653363752313 -0.34221357365683647 -0.15494187558793962 -0.45685212164003897
Ni 5.4507665770469895 4.71267744965852 3.5264037337206258 -1.398172841085805 -0.4415964810325491 -0.617837118098265
Ni 5.273933487336047 4.4691344319866575 12.072480724609559 0.5459151351469824 -0.20231933643063865 -0.3404261427391105
Ni 5.744422231906697 7.798957874213486 12.922452638170155 -0.8277972589036131 2.5480277675236698 -1.80488639419824
Ni 2.203764623895973 5.517458175586847 11.373799852507796 0.43834146443036126 -1.2099305515735228 0.6996527060141757
Ni 0.48250093066467054 7.770418965617484 11.478465429136138 1.0490514845655416 0.6524963600433472 -0.18482889295535912
Ni 7.314868699213656 8.928994176915142 7.62471839758304 0.3980905873301144 -1.9471218779631048 -0.7456525697830577
Ni 8.704312133517707 2.651671521716285 1.3853312286884354 0.30774793577979903 0.8153798590758667 1.6687853054658874
Ni 1.4269912533528062 1.3169597387081011 2.693950164341552 0.07389993261325983 0.5620104980469482 0.009714913294918753
Ni 2.156960447210107 6.7060936374287845 0.09269554820276564 -0.4917121667420177 0.04920911473479912 1.1736476579820885
Ni 7.776119415568259 4.453591082924737 4.18272531374444 0.18336413548437452 0.26448835376021546 -0.4582906538587785
Ni 7.819541814067893 4.0358085886224275 12.722095569466205 0.324651396403357 -0.09143382773196512 1.4676494478203885
Ni 6.83208091310934 0.9489141284618319 9.588813926948939 -0.3878038606921257 -1.2481674835675343 -0.38295270324741143
Ni 7.161149009463895 0.8506336056609918 0.5454487449522898 -1.1243015034487926 -0.875928310082885 0.9874105718252929
Ni 1.6725780014732592 6.873716193055276 9.516770137458515 -0.25979969003529446 -0.41443868967083464 -0.6223452903812636
Ni -0.0417076811591361 5.289797601266581 1.6252175268581133 0.21567158936782857 -0.22808024744482652 0.12139489287042965
Ni 6.49884287346282 2.1398132738051223 7.3803248947738265 -0.44793116500132535 0.39112238354239737 -0.697379850819599
Ni 3.979803042562642 4.661859129759729 0.8649452176274395 0.16155449580845083 0.02106941907578952 -0.8648589396426009
Ni 6.191229364463194 6.194922742807506 5.297452883973787 -1.075477282857238 -0.44314094270153365 -0.36282122260485905
Ni 6.7107676397999985 2.213332581691165 11.51759232780952 -1.4780066226849964 0.48442951703767534 1.4838350564413154
P 9.38649652666224 6.115556349602181 12.689608503573107 -0.3321767582461247 -1.4368813133995963 1.7168459084185401
P 4.111793203641523 6.207542549209785 12.54802930586481 0.19409386319705282 -0.12171242411084847 1.6083360990408946
P 2.7899211800883803 8.872099653933772 1.376169267569802 -1.5185979138437975 0.14998504580329655 0.28636612766991326
P 6.106272497833474 8.24113682795143 5.973170657367087 1.8705716522111913 -0.485042468031326 1.0144156396592272
P 4.936607986792347 1.4439184737050275 12.814461188089824 -0.35832076363134413 0.6729551421183313 0.7002702849935165
P 3.924448190950613 6.420933669232049 8.646932797349205 -0.3356256360266736 -0.4664446504244806 -0.35178501939535545
P 4.693110792673143 1.5514846812166803 3.9258173987040625 0.11083948595208654 -1.3716555115215667 -1.1750237123940086
P 0.22931113868704217 6.274481594934 3.743286608455504 -0.4105131293641833 -0.850681105480322 0.4146909148909568
Ni 0.7532613056738523 0.04673910724109037 4.726239388303468 -0.945639401425778 0.445059242770169 -0.36406409387302463
Ni 2.125223054638508 6.91611214397535 4.765889591948216 -0.5204357599289553 0.0009685345608563964 0.16309330105048042
Ni 8.464095905768884 7.20805399796561 9.356667226823362 -1.1070730553856483 0.41803720565537034 0.8805835494667094
Ni 8.615872676885907 2.3528652995377106 10.057185623386744 0.8376828934484412 0.5713777981944611 0.6329922285721485
Ni 3.5827694529043117 4.829399202991435 5.433130008099608 0.0770806443340866 0.1763139135058125 -0.24310577431938132
Ni 1.2279978935759879 1.2777897658952184 6.99840299631137 -0.26545817387265247 0.9248826284944007 0.38315556328683686
Ni 1.1444065688155052 1.210869049592067 11.531743557341663 0.28415806427500095 1.1178963712533971 0.3748948659399415
Ni 3.939386669117435 7.017134748167302 1.678925479987579 1.4774093554206298 0.9332579970422895 0.4278431360021987
Ni 5.308750222646328 8.051592284732887 8.836505751170394 0.7621320554953197 1.9690765278573252 -0.8370982245895648
Ni 7.43026156951946 0.7294477218280417 5.23605940459236 -0.25065427609060054 -0.14064885600403518 -0.08340607233148217
Ni 0.48724000248066063 7.695030056782955 7.151289613873792 0.780895452145752 0.09564220938635785 0.3781647949404649
Ni 5.244633907765905 4.892085823028898 7.6825174774938985 -0.8599311633236801 -0.7723390779353085 -0.8709568250102226
Ni 0.6897480287464215 9.287700947129514 9.225107807139475 -0.6966499146321099 -0.309427380364751 0.03243780881373123
Ni 4.840451843892777 0.507132006689917 10.90078623018564 -0.38788330777980945 -0.7035751809970334 -0.3935723877447867
Ni 8.182601821784868 7.526940100919343 5.365324897230138 0.18900462159960352 -0.36970509420888586 -0.9136353377153555
Ni 7.166739482888289 6.215387541425 7.595262101462805 0.4363252053312808 1.5180854929837533 -0.920102690607254
Ni 2.683793832130219 5.30651403327657 2.813986793473815 -0.5169210619074774 0.9452131125216366 1.0431829415999068
Ni 3.5146298301004317 4.436214791756457 9.465973812865002 -1.4173309020714946 0.06432617288189567 -0.01695359713520306
Ni 0.9374032520339002 3.747266842239462 3.9342672618143757 0.9678894710732296 -0.29268744190225077 -0.564183594438867
Ni 0.7173887957103087 0.3059812740539148 0.4621708532919945 -0.3017009582547707 -0.5392572635108326 0.06975454298631857
Ni 2.2421464316031217 5.678207198314493 7.42293988227561 0.37766471537559476 -0.4197125364752643 -0.23199835155231013
Ni 5.249372063110842 3.0107265509308654 5.322268170680722 0.9240971564786279 1.1920852958619859 0.45118849559635843
Ni 4.092776429288052 7.538790071636951 6.015006644473668 -0.5114284142240225 -0.4355996400191659 0.8403563265155461
Ni 0.9712301986067475 7.943393712194542 2.6244275867184244 1.2759474818942798 -0.5077154841488094 -1.0390154404857783
P 0.08435199573462142 5.566150282642263 8.120387184339792 0.8464130742325875 1.3613811261787523 0.20649583640583144
P 8.467569331060433 1.4639433662169947 8.056471576620014 0.7114288727134973 1.3895161938520715 -0.3828503733415922
P 1.4667935911923824 3.3872770125506384 10.478436044154284 1.6586217346693242 0.3118550159696371 0.9821356965795986
P 4.323168087346793 6.559659892551799 4.002260249249747 -0.9974072780266888 -0.011624471612805786 -0.5786964433430615
P 7.054820037874035 4.181939898051865 10.612236235563193 -0.8550067294388694 0.32622825397217364 0.4158471399825871
P 6.522469497213783 8.040722938042183 10.637694884949461 0.47752044862266785 -0.3749362607008382 0.40605920735788775
P 2.2525300486356428 8.845641134628485 6.075877735354783 1.8497783696149241 -1.1707592806907 0.5754992765620024
P 6.979687740934397 4.371337805901896 2.0538986949248303 0.8849305135814953 0.3379830805152566 -0.5673699625866486
Ni 2.696661085716856 1.712316186339113 0.4455314048504714 0.7823306419303817 1.202865160086309 -0.12000906826649654
Ni 0.8417850776425457 3.4592566490673398 8.394906923609113 0.6302509183815855 0.370815039443613 -1.5878729460905363
Ni 7.974352104370938 0.179536679317822 11.759786300091104 -0.04708769751642213 -1.2115333772842685 -0.5392050701166584
Ni 2.5301016365120526 1.860307932006504 9.160856771014233 0.621188036848369 -0.5445393378453783 1.0170674754597775
Ni 6.670873654855104 1.972144894625972 3.0960994954187284 -0.29174667525553627 0.6246256017750081 -0.7312489927632181
Ni 3.740668250656571 7.280748481903791 10.765725891078608 0.848823483446293 0.334598737424056 -1.0647827792578695
Ni 7.348585669260122 6.123153894633036 11.749322950076957 -1.1923328930964174 2.5412943054545782 0.26707205532699163
Ni 7.662348699026582 4.082961024308502 8.548504722708802 -0.38124343386578863 -0.42252686599560774 -0.32450150108905407
Ni 3.0048061479273276 8.745736625121411 12.498238350016633 0.5062823512467087 0.5541979439810648 1.0725146006844881
Ni 9.09297834246051 5.069312995292708 10.851881501845885 1.2742528678006766 -1.320851798606138 -2.298314772300416
Ni 8.421974896164764 2.764791543810204 5.86697549055099 1.010290818857576 0.6710844074581798 1.3744734405863361
Ni 3.8065991782222888 2.767614274653996 11.324223350886065 -0.9832181310105003 -0.4018441408352757 0.3765786814002675
Ni 1.1203858625116763 3.477696046657307 12.775629393095567 0.35059974083800266 0.27404437287976674 0.19757205155364038
Ni 3.055514491299737 8.427996110984154 8.331394563152736 -0.9357231707533303 1.22017819744346 -0.9500390731553703
Ni 5.810059888735396 8.444153495651703 3.7219722411717133 -0.9806220881485498 0.9473903226786135 0.5270046713957247
Ni 3.337787575678957 8.89300435865679 3.577884662190866 -0.2054087739892398 -0.17501962017442116 0.17023942517695842
Ni 3.673041851642471 2.8538725301792307 7.221657177807951 0.7151577436283103 0.13459442227983914 0.5163425636961881
Ni 5.810334830051351 6.0228003143099045 9.860517350671843 0.37087057527189676 -1.447753737337726 0.03865936424341084
Ni 8.190208531526256 9.115899283500523 2.9567069976433187 -0.560940404911221 0.2605342542084739 -0.7748286771263817
Ni 4.837775748417493 0.7475122827572587 1.5200423923242055 -0.06547982687036465 -0.4605588810676649 0.5956361565211935
Ni 6.311635331429888 5.976060290597761 0.5174019813118441 0.07683458976155154 -2.3757345451414764 1.633314109142471
Ni 8.411307173105758 7.555011609278224 0.7312000144817206 -0.22856284350819991 0.15424330685901824 -0.27903231301266135
Ni 0.5378612811030185 5.22267526133173 5.796233089956082 -0.6370648559796254 0.25437080571023934 0.37359748728475656
Ni 7.02637277638335 6.572976216954493 2.8699217712625065 1.5287835961275478 -1.1880208959846248 0.5403065307109534
P 8.729047687243016 2.043638801484488 3.8233513526033525 0.3414365862814958 -0.9691043173169374 -0.36492361365984244
P 2.0294884884234 3.8169919599653417 1.4674351209296081 -1.094108010584548 -1.2147896794380368 -0.58461589415129
P 4.754899271078491 1.3454344943303815 8.684316568079442 -0.89321383663621 -2.463286521320532 -1.547915174750676
P 8.603940223773511 1.9188246087520013 12.82391733641653 0.6546702277662144 0.5027221446992761 -0.938117639127436
P 6.421822646153633 8.14811501605373 1.6443451942090181 0.1391154500786443 0.5607596563589826 -1.3711158369680128
P 1.8972692095812247 3.459559084514889 6.190213914536272 -0.9311730894888027 0.7564470892954004 -0.14094787530169275
P 6.965729886794476 4.39374552315213 6.309674083376084 -0.5246009470502384 -0.679862667871442 -0.07461547062304569
P 2.4718049128193185 9.088414316615678 10.46805426006387 -0.08735065880152698 -0.4795835017992837 -0.9631082476345025
