# total energy = -340893.88990842574 ev
CRYSTAL
PRIMVEC
9.06099622141864 0.00000000000000 0.00000000000000
0.00000000000000 9.06099622141864 0.00000000000000
0.00000000000000 0.00000000000000 13.26168386958520
PRIMCOORD
 96 1
Ni 6.38482179321576 1.9300465208716913 11.573776048377713 0.5494156921010732 -1.155289981410507 0.3376051283505476
Ni 4.497561295608936 0.5060901540933644 6.029371604260205 -0.5975488001628741 -0.6061535111127495 0.8282544010456898
Ni 2.461229291277507 1.5624962778145037 4.575241214594471 0.7557788595837822 -0.44081975076752467 1.2479165438989928
Ni 3.6845543656082156 4.0863098686876125 4.574140303576538 -1.6598329813686057 1.0608132530871601 0.6165587656064736
Ni 5.2104079754678025 4.3866728261647525 2.806835614143493 -0.2535053723861505 0.42585387348631176 -1.4141509616816161
Ni 7.156773350193798 6.237716522630182 2.5810953955905656 0.9825884678463014 -1.2355590507749044 -0.39533513607216436
Ni 5.282451954921202 4.335976553363625 11.740993105756749 -0.6097620543996143 0.9007813645708228 -0.933936768276869
Ni 5.872105332723922 7.975923635504467 12.29144589642461 -0.8058940310726185 0.5931234174016687 0.3799910495159262
Ni 1.8432149958934585 6.4686088235271155 0.3965418059623689 -0.25440397294101996 0.031800689450364586 -0.31162053136132783
Ni 2.671018532415044 1.3785761803493919 0.44464029120101567 -0.6989088858696156 0.8036731121618997 0.4860117739231307
Ni 0.41083824550224735 0.06505523321363005 5.020382578876077 0.16954754131625638 0.6738704548437491 -0.4267339620984199
Ni 8.635618512637432 2.307437005620036 1.3495085050775388 0.9327697445519614 0.7958410177119907 0.5649454123055561
Ni 6.696692215654014 0.632033468445336 4.966672618794582 0.8549871890548436 -0.044926942419677464 -0.7737423860407384
Ni 0.5155108716682228 7.5643369517299455 2.48620773903995 0.6389345621985125 -1.1407349664144677 -0.4448491836418919
Ni 7.70638618652946 3.932209509165041 3.745722431523958 -0.008532462951043368 0.2314774460518336 0.14443043453365448
Ni 7.534888714624732 3.9847270421686765 12.52097904791669 1.4027728017516616 -0.9686872843841768 0.9396705854368527
Ni 7.762274410057139 8.732643658152085 7.135422019143113 0.2538198183027758 1.1137584378256238 0.05089910084271233
Ni 6.852423554462414 0.8416704848495294 0.7357148216453699 -0.8997416104523989 -0.7924505039732029 -2.7283739421173268
Ni 1.9201156692202102 6.680844533593394 9.005173954116584 0.8224421652392868 -1.0110955741470586 -0.7307923648417737
Ni -0.0406648440936878 4.882481468060184 1.2090956861614701 0.41118161618611765 0.1398304738677979 0.6323728498205948
Ni 6.498636964378401 2.13472536024697 7.14055416729585 0.9403110472343289 0.1211542376145333 0.18239045871719553
Ni 3.4135399742799324 4.325511102946233 0.5026098255173299 0.4859035304800406 0.6441397605485358 -0.29120777203293075
Ni 5.883938993542201 5.549742276880179 4.666468228748009 0.409128847422147 1.3769162456998738 1.1898692620472733
Ni 4.888987263211427 2.61911714714161 9.672965737304077 1.2649683571749568 0.5198827156389627 -0.5439641820681986
P 0.2388369822181194 5.636981546679869 12.325515241506334 -1.105139328698045 -0.24662844276065912 0.7078198152060003
P 3.9454566853643707 6.115429320177273 12.58276507376184 0.5199619056163303 0.26187662716898125 0.2903567368865451
P 2.3302978986097136 8.316028121579595 1.4618485460861086 0.5803908003263488 0.4807021887847592 -0.4158792787721031
P 6.3507252651459405 7.684802893980347 5.840776938941991 0.06603569937383465 -0.40597410384324917 -0.4922335864631264
P 4.647937585762202 1.193577824356428 12.7174377516914 0.022358827311174397 -1.4723368259937288 -0.42491027862611985
P 4.098832165204352 6.189249254853017 8.265171469148694 -0.7609853434853863 -0.004356991417115076 -0.7832942913952317
P 4.633902102908055 1.0806053258247985 4.070541017292474 0.7686359180521085 0.9295684640058443 -3.1762297737960266
P 0.2586379768476646 5.65562001551846 3.527076972864379 -0.1803924544505603 -1.0782070230835752 -0.18266916629987895
Ni 1.3650934182532208 0.7837652836050452 2.5897413980046564 -0.6760366092571325 1.3830105315230696 0.1308005024550457
Ni 1.7622640573402362 6.814032114273248 4.667541956777845 0.48603362830000163 -0.7421265589076703 0.3404981336276265
Ni 6.068103737900188 5.445124016690398 9.23741271902393 -0.6161628157196356 0.00557595142588072 -0.3256397284585553
Ni 8.870769481669582 2.308723667056633 10.356406766739083 -0.5479115967517209 -0.10252171011501053 0.09897538752464889
Ni 2.5668080170467196 5.339644961877542 6.776945457512744 -0.6825317300631728 -0.4512378607770552 0.4289559094504032
Ni 0.788579390797045 9.040925926161519 8.948546353312665 -0.9356102993245499 -0.7049892877357408 0.3065274331091366
Ni 1.6320394223629682 1.0505228189973195 11.474406823189485 -0.4253031431891643 -0.2622394098250387 -0.1949569825282965
Ni 4.049957152605731 6.833612926699207 1.5308625284662825 0.042649459239410416 -0.032011777019906165 0.1692140692362376
Ni 5.577586717687662 7.7764820518359 7.993838130760071 0.8363448913633079 0.3443203355871941 0.7536232466933601
Ni 5.468220495576918 2.8858094433624517 5.2094674440796425 -0.34928642134321775 -0.9142138359266448 -1.2422534320759444
Ni 0.6249106194642875 7.429482147780135 6.831994632807825 0.7662787306738417 -0.49568889200157856 0.25801740132389117
Ni 5.157455514654613 4.7795485531324235 6.900598152067732 -0.42604824888530496 -0.3552506093464527 0.41687532413678524
Ni 8.158683925477435 7.121652929572319 8.99034744630881 -0.036593225743001494 0.502384044633567 1.3394997527246286
Ni 4.501502828883019 0.38177419462880696 10.363117340400658 0.1856966402722931 -1.0746730417883879 0.5468510166976904
Ni 8.248949567951936 7.241747370985394 4.585491919405896 -1.246301634003389 -0.40450574682783885 0.8775388491031145
Ni 7.35909633060066 6.017208123186347 7.083462643495073 -0.224656052254626 -0.1567223645271301 -1.2879154528894334
Ni 2.3848722777126974 5.170068421131677 2.554690747052627 -0.9279514972277116 0.1022255190308304 0.8063077215712695
Ni 2.257030684691944 5.28473532592136 11.449700205308012 0.7135531181453518 -0.1313255217205803 -0.01638306934371372
Ni 0.9500544949903651 3.3088854701060217 3.8388993720236617 0.506484954175818 0.4552546952459321 -1.7099342689003714
Ni 3.6881878250171978 2.5806713409762505 2.6504935642025123 -0.24577817894522186 -0.4307420548165485 -0.5264914792047319
Ni 1.1047075752709112 3.416294517073774 8.020321609963492 1.4022459827139142 0.6098880384545173 0.45391206517510857
Ni 3.5987014282014798 2.8860631512513577 7.180578398970049 0.322465958716264 0.01259146351176541 -0.1326702086739328
Ni 4.155526817378911 7.0909089700344765 6.085587835844255 0.071682870357283 -0.22284753829097753 -1.1348965053558195
Ni 0.8136511668186218 7.244936841588789 10.944482625132567 -0.22485299875678053 -0.36886768590925506 0.8963644664500499
P 0.35584524838256776 5.5310494420653935 7.954543309266479 0.05608887257376791 0.363840922118625 0.37957684479664305
P 8.718898127170974 1.5964387689517738 8.16117388718713 -1.0038473772250776 0.6203249175171252 -0.7179599889637958
P 1.8726813549907364 3.348817279620691 10.444052875260624 -0.07214926847074025 -1.0734458542495062 -0.7616551158589012
P 3.8945791926425946 6.238695110201678 3.858699460553604 -0.17992502789583853 -0.8986589189111814 -0.24140524668850685
P 6.839511635116281 3.625712257373984 10.317854946920145 0.399977262829866 0.9689603355399055 -0.3451970817651926
P 6.252168811301817 7.690203247615642 10.151978010854299 0.9859789815850889 0.1760352059231291 0.11317507606379863
P 2.4010642776225484 8.607746888841852 5.868335052274852 -0.578503610605965 0.23876935172755656 0.015315547311147818
P 6.9665649214822185 4.111218546780607 1.6244236551977587 0.041816164704837656 -0.43894284545978596 -1.131543786833503
Ni 5.321522969812795 2.932971927710954 0.47690196757428055 0.5303273080110544 0.21126137611527487 0.8889455482781593
Ni 1.5903135356338896 1.3331715292311699 7.061421770646325 0.8215772461358302 -1.198550077650723 -1.1809051108754502
Ni 6.901289506065003 0.8912694710311373 9.285910794187604 -0.3328035931968462 -0.8750052840479834 -0.006081687417705655
Ni 2.687600155154287 1.674254602877795 9.19961658627409 -0.15510025554267484 0.21366792867423845 0.6001317303987019
Ni 6.3657393355715834 2.019623527647733 2.65444506457223 -0.22376182257513075 0.48874639924547436 1.4274420223635673
Ni 4.085141000199436 6.8544713395657295 10.479860119381359 0.36573351115564756 0.35187243690283915 -0.2616352005821365
Ni 8.000605788696651 7.269899885657977 0.4606157333056929 -0.11348669376694648 -0.49083619189496763 -0.552786408345519
Ni 7.930129361556853 3.8299289859516117 8.366318461758473 -1.5218912398830886 -0.13440904574191045 -0.36333184369269045
Ni 3.2642691256426164 8.408205634216928 12.600880723129363 0.25371028930810496 -0.813586771731186 -0.728041541569514
Ni 0.21231363463215647 4.731063163363194 10.225620350007809 -0.6137117830759818 1.0093816767797454 -0.2622682061804451
Ni 8.78516119115572 2.25407679998539 5.954284036239531 -0.9860805401599597 0.8772254316277537 -0.5810438605293154
Ni 3.484152316360217 2.8558537904794252 11.778894346060563 0.12823788393419205 -0.6462308387496096 -0.2642980921262803
Ni 1.1850967320701264 3.2832428513344056 12.6579323785476 -1.2799018385563377 0.0040978242184574595 0.1010006454847938
Ni 3.261949510658329 8.591690803872487 7.99753773544009 -0.29641322749327015 -0.15606596189005378 0.07956612976010168
Ni 5.591123845760028 7.738081550650701 3.427588142528524 -0.4019199883785336 0.744263659855331 2.0345165026286898
Ni 3.244407422339654 8.354256463840178 3.5746997558113263 -0.3411907888192769 0.5976634713638674 0.5447954197202424
Ni 3.503298200976622 4.429984387199497 9.34806832087008 -0.3567001973087857 0.15241705228355687 -0.07203536860069529
Ni 7.179897012068414 5.93708173527207 11.285506802304981 0.8674567822767643 1.316826736607145 0.11905313211113043
Ni 0.5189069329811563 -0.19290316893160656 0.22851560163764303 0.6443212804317227 0.7831173994977352 -0.01789230689938854
Ni 4.467469727785424 0.35227159154739973 1.6590502515354728 0.49476869418015434 -0.01698239349060946 0.21491208549398472
Ni 6.039353197489467 5.809530094124352 0.28834988893741964 -0.6819609451613674 -0.5550682624011601 0.5462846026712591
Ni 8.145889799079724 8.55802920361222 11.438838789364008 -1.1588000514462948 1.4276893624876832 -0.17680962219530838
Ni 0.1940457605312888 4.770596289052438 5.873042239713668 -0.3431977919469767 0.3716102816513987 -0.6300007500439925
Ni 7.733478564666257 8.893159202865576 2.6002711814938775 0.062048175480996365 0.23203383277593587 1.051391445552628
P 8.488984413845536 1.6933279995259407 3.686072082443639 -0.6791324745736369 -0.7537368894530889 0.10828432363040061
P 1.8989854264727157 3.1915183884986913 1.5108902810117253 -1.3402777685412337 -0.38498953117178214 0.7614023764181467
P 4.900159471319343 1.0990625747427427 8.044470976588974 -0.5831891890070924 0.19375524891071147 1.9600226451851728
P 8.469720736280712 1.5218305276212125 12.515925730429435 0.36138371882738407 -0.08138544235702758 -0.33964709848124086
P 6.044998198017635 7.849921424678284 1.4008979440751435 1.437300403214886 -0.09888899845842969 -1.3831833096555082
P 1.9279171868040834 3.391793583802237 5.734405376019946 0.5160553714730726 -0.4850303838464679 1.6241771798382092
P 7.0438461566423305 4.0945010091008776 5.912906997857698 1.0467210366601523 -0.04702213438580934 1.1287543970138236
P 2.417673083349889 8.499558596215316 10.17785168502474 1.4647441012481357 0.7381454627727352 0.9369868679571025
