# total energy = -340870.3735963352 ev
CRYSTAL
PRIMVEC
9.23501502255634 0.00000000000000 0.00000000000000

0.00000000000000 9.23501502255634 0.00000000000000

0.00000000000000 0.00000000000000 13.51637797513791

PRIMCOORD
 96 1
Ni 9.2602264896601 7.634531406902226 2.9505309266351016 -0.664488499408217 0.13694955277557705 -2.242957892796666
Ni 6.131662022300861 1.354241054817086 10.399554895255438 0.639767342512453 0.21304186505446535 1.293925149418623
Ni 8.651269607220973 0.5350361291816857 4.157664658621772 -0.5649140448469885 1.7231903625793292 0.21413741211148926
Ni 6.477910435908538 5.7736020246373805 4.754196752015805 -0.2507887447859358 1.086045802401704 0.8261329838273127
Ni 2.272275415895473 7.637283441342122 1.4339798674608897 -0.2681619459570607 -0.5522511046673392 -0.38559811129005844
Ni 6.666443265071334 4.8672499574062105 7.419653850737092 0.5738943939687278 1.122484247734396 0.5436744187419217
Ni 2.6656962856071704 2.0454357449316833 0.9317012596273966 -0.06975428587600245 0.7189362368341361 0.5365573480811663
Ni 2.8899870924588402 6.084535741271336 11.922120719633359 0.9054648860894213 -0.4455757773952713 -0.5791188755924607
Ni 1.8966873599537182 0.0096727546051978 7.937290288347597 0.6653847859702411 5.997941188425934 0.375325782829773
Ni 3.682923941715565 0.15310731201028674 2.872121956136752 -0.9670973141892377 1.7914863187422498 -1.160960035212091
Ni 3.3289088805778406 3.489219504209337 12.622850562631161 -0.1637345341789051 1.4976765903100981 -1.5157740712417573
Ni 8.802936256907017 2.2805038141704697 0.4198579468630239 0.8887815118964693 1.1568246728874787 -1.3451240408899414
Ni 1.379046304835762 2.8428885164740123 4.377981638562408 -1.025122227443454 0.36784592951296 -0.3288530931895305
Ni 1.6597815227500334 7.3352061039962955 7.7353823871066005 -0.776118856692715 -5.272379732965797 -0.7795939597255089
Ni 0.6503242081776456 1.3839316277173255 6.1409090427192154 1.7148113944870145 -0.4899306493615627 -0.7290866950045766
Ni 3.971804442770742 1.254863059489099 5.000316363584207 -0.8875676940940262 0.9609423503314353 0.3987953267066229
Ni 7.145149497375166 3.1092817562501587 12.172769182508224 -0.6741681885898261 0.18727812582680003 -0.44547241904818763
Ni 8.824167556159788 1.4011272254592373 10.90485150595792 0.015719724728101958 1.6978583115724437 -0.31606853983035244
Ni 1.1396008385348564 1.05242229788843 2.575167281555392 -0.17345510390077867 0.28311188239867374 0.49150519293753414
Ni 8.392079679066036 4.877159128392822 13.306333091803616 -0.06803576052299896 -1.5894408047982884 0.7931375027378985
Ni 4.660099338207058 7.332592594779882 2.2121988734731004 -1.1415505203372276 -0.8222557602600936 -1.2111389700593271
Ni 5.4785525336296805 5.710942448547761 12.167970668766712 -0.9514171844498196 0.3375873877387347 1.7390265582806375
Ni 0.9051570563032415 7.936313223771285 4.880844822839007 0.4073211047894469 1.3240263396793779 2.9654635921496153
Ni 2.0487603502953182 4.287734302465049 9.98802231432385 1.2255343195490507 0.5814886613762179 1.1388529189004062
P 7.810966366547349 2.950282504734319 9.640569654773346 -1.181476667108204 -0.6017206721523767 -0.6707954154628512
P 1.2931329612304965 0.18754375906711515 0.6684811709705417 1.3619290282624223 -0.10117573761007738 -1.1473424444286562
P 7.133051627857494 6.355869714018439 0.46709320106835683 -0.10983392750570761 1.1478196411753911 -1.1383620953069171
P 4.5600656568212425 5.648190522309152 3.7442121180926846 0.17772287803819714 0.618724920019857 -0.17935321455276856
P 1.1959251944037712 5.9274019627650905 2.2751576640454467 -1.078486244886891 -0.05976992096978093 1.2545358489877232
P 3.1675639352776583 2.432927735078232 3.221249847389933 -1.5679579523341642 -1.0580973968178937 0.3326639822951884
P 4.96741292900061 6.088063516962748 6.729601531965499 2.987639614026022 1.9754911731344171 -0.5808643975286577
P 1.0096641789061251 7.178912711845858 9.80563169357037 -0.34427714105408447 0.6125056785830225 1.5726250187925304
Ni 3.621511092637309 9.240463557776273 0.3415708785613409 0.8765798276239547 -1.2626818751336253 0.46745817929065947
Ni -0.05091540764257879 7.25712405302537 0.3258713532330649 0.49453112424805157 -1.6529213418504372 0.5964987616318049
Ni 0.7865018908751114 3.727279718275394 1.7216625870836682 -0.47322953455679784 -0.6250236085443751 1.775276541751607
Ni 0.49230386824109834 5.382887014291086 8.780738975095817 -1.623116856894495 -0.4918435501135594 -0.3206890693214993
Ni 2.863260959341175 4.589257538916938 3.04998372558377 -0.8605042622183309 0.18550020799077085 -0.6753830348335336
Ni 8.175740220042393 8.30624945059486 9.795237684301561 -0.7928870772899893 -0.7216101841218734 -1.7825854167081945
Ni 8.712525461045947 8.598066686387916 7.39771607284455 2.164809726430014 -1.491170156650148 0.2792377441552481
Ni 4.188938113075698 8.169691285283557 7.340041557797404 -0.15934411842069332 -1.9084092918842552 -1.2131269470236332
Ni 8.555354742480105 0.09055670909647565 -0.0014997664195953051 -0.2531418183991447 0.11254875533370938 -0.521631065788637
Ni 6.437904351366131 1.1192376306825924 13.277962202532441 -0.6269280246559397 -0.2707772720927208 0.7055364184884623
Ni 0.4079124550911857 8.645820948430572 11.502883365771547 2.117750568158682 -2.4230526135011496 0.8079478282778537
Ni 5.547805910357177 6.9980818851088165 9.842909754711615 0.5613690078082074 -0.6247369305418918 -0.1012479856089095
Ni 2.7413033525851676 7.193513270401155 3.7542958308608876 0.5221149474035911 -0.5727409970905749 -0.4252311523006483
Ni 6.361447663017427 5.5755017200392345 2.19372145566321 -2.4316390696185795 -0.28732566336970516 0.5497105976336727
Ni 6.093632230946836 1.0898056381995247 3.782153253303678 0.2866983141983514 -0.6599106502295473 0.5829037965561896
Ni 0.5866838735057542 5.809295357221961 11.972415534274727 1.614379477021497 1.8218456477603977 -2.261229951632976
Ni 1.923635133428959 5.180529367824508 0.4757510275361561 1.4054218093387345 0.8376484406660799 -1.7785755242178531
Ni 7.557834608166147 6.55674975810118 11.478770741870296 0.29587586693256146 0.5264099752345192 0.24839504774277865
Ni 3.054471942824678 6.356571575150762 6.043821331086177 0.3985762687172813 1.030153362109458 -1.7425047466372248
Ni 5.455409586292822 8.456124507390504 12.078153684363643 0.07310314774357733 -1.4878999705393086 -0.40825698634015495
Ni 4.113266400993408 1.005914762857137 8.109623977876083 -1.0033400985713559 2.6473006316840797 0.3734599332656278
Ni 6.334361364318702 4.604772363947234 10.269621929632665 0.7727813076790497 -0.8994793579299475 -0.7359672241744938
Ni 1.937893996432993 1.6608343144485178 11.965697984437204 -0.8385043609084719 -1.2711901697149526 -0.8211838673521534
Ni 6.594022278233487 3.425276261048758 3.6922827058141974 1.3073259962055614 0.8122138026430593 -1.5214042729443409
P 5.659170955024046 0.07540204964723983 1.8005028327778003 -0.9081938549848101 1.3040306132837414 -0.8324627827000824
P 2.6895410940763522 8.782139003354501 5.659537585115536 1.1295876915483967 -0.16729654049855058 0.7062532420498289
P 8.231796760479238 4.556390120891447 5.278550739463834 0.2863257613502811 -0.20958964483980677 0.2572944071149375
P 7.946545620279362 1.0930933035035635 6.776165400587675 -3.073448896482358 2.0492468668603285 -2.4063252734441396
P 7.489227682481581 6.0850251970609825 9.088209561142651 0.7061226300092355 1.1020763735020052 -0.17716931952757228
P 4.03856436547551 6.776681637920529 0.09762980700760893 -0.1237525944693288 0.25846297350174197 0.00858877011027553
P 4.3724009190589515 2.7271368397301234 6.645259987896041 0.4957863368113913 -1.7599622799920398 2.6428482523396806
P 4.44425856998796 8.898389370902937 9.8231089592667 0.2045644237110735 1.4677111542962593 1.7750181458838976
Ni 6.239711696618995 3.2821335301144776 5.848076878788762 0.4444200665242733 -1.3852155095941885 0.6714901275370306
Ni 3.1735574599471006 7.316375908617263 9.59616862664051 -0.8872697032376332 -1.6259175595680837 0.12248041262512455
Ni 9.085869408367248 1.4043133055993875 8.425393148311148 0.4608036500886193 0.45155436357620937 2.8516645093485726
Ni 8.66823432959041 3.3569002107366672 7.171222714939472 -0.21403508220567008 0.5098050196879865 -0.527679328865246
Ni 6.117809499952382 9.146377225985404 8.599498113697258 1.9252438469430908 -0.6373412495694637 -0.3791058186974955
Ni 8.31691589280319 5.251103351682557 3.009570376884318 2.0735677029938806 -0.6952270661426543 0.8258460487145132
Ni 6.9552683560371165 3.5152437761946786 1.1565840309340913 -0.4638426940252592 -0.3716866434152889 0.28324377999084766
Ni 9.192192134899273 3.8510658579814008 11.008157153122445 -1.5776296710959734 0.5573133496815951 -1.639430249342538
Ni 6.916850694057336 7.41866293363843 7.057887841594648 -2.025781950969169 -1.3924148555561051 -0.7672575496473432
Ni 9.10497665419325 6.329476041437138 6.468614469911218 -1.2522771348605337 -0.7155554932873612 0.33159054672535154
Ni 7.687180226841344 0.9302707558195437 1.9241910813258778 -0.2839976274377367 -0.1605427667144848 0.995446554755892
Ni 4.271573026391823 1.216445397509318 11.975605308420835 0.09636417515404695 1.5306584445527573 -0.2643929658329318
Ni 4.813963921439061 8.252409313733773 4.47485325084681 0.6104158859335294 -1.0195269927438635 1.846350831990614
Ni 6.793009144261935 7.872693206132172 2.805527340198675 2.0705471710000016 -0.38501858463750466 1.3480589551485493
Ni 4.313195238541553 4.6967808173858305 1.1386773370449579 0.4771172996469783 0.39086090235089455 -0.8924646171750114
Ni 4.955804515272585 2.5099385243208747 2.177488146473772 0.2844910221343875 -0.6777219673793554 -0.49162320657263714
Ni 3.6758776253476384 2.6448805620248566 10.005971489281519 0.965664438397453 -0.10434436514604609 -0.09611246415455704
Ni 1.016950605661425 5.601055006264728 4.551207430530136 0.33029213962890214 -1.7021782791040363 -0.15655832814544005
Ni 4.160937547901972 4.640401051427522 7.919394676476343 -0.9389468198969506 -0.9202147907050862 1.4045854294803681
Ni 5.9123119484201485 2.7431134155053694 8.488785061082256 -0.06978616755520241 0.20412167974670004 -0.895237294824142
Ni 5.88407127285905 0.6151092493648327 6.375770247624264 0.4710433255387565 0.6164093845128029 -0.7043909920301095
Ni 2.8635564798179427 8.527686637842745 11.720524038394457 0.00048413872527013394 -0.028605065331202353 -0.3724302064495328
Ni 2.188218310284904 3.185442924122095 7.868234540938941 -0.4473110149188232 -1.0445384271865368 -0.9861201351486437
Ni 3.5266582546098255 3.8572071428892265 5.21583482978333 -0.638129549798714 1.118111315477681 -0.695102624749648
P 1.090895369957605 3.495600899504536 12.647774944342032 0.5316606821104972 0.4676070461636979 2.4654565323886577
P 7.950138041075067 7.961543284475314 4.876127577228605 -1.506308297843167 -1.824707542689225 0.6719953493082234
P 1.652181105488168 1.7471170586497429 9.53415550159382 1.350277560066423 0.3360259567888858 1.2132411040039945
P 4.229710703854721 5.07515784782708 10.425790649081966 -1.1237217196859228 -0.27860371011567503 -0.45698813299727103
P 1.7447990699100973 5.059800018050065 6.858696881736932 -1.7858188360438279 -0.9960924158700071 0.8387655849896586
P 8.570296996586665 2.599231883379169 3.0469971217654384 0.2782473552175208 0.04961072104859198 -0.19612940556984287
P 7.4842961845255225 9.15387605808338 11.66621568627799 -1.1604530136686853 -0.5768971853507935 0.012896139236377788
P 5.075130142782381 2.8032518325275646 13.514039658899685 0.8234317828460657 0.3960846126436791 -0.13343691163662824
