# total energy = -381169.6829825688 ev
CRYSTAL
PRIMVEC
9.29998402278912 0.00000000000000 0.00000000000000
0.00000000000000 9.29998402278912 0.00000000000000
0.00000000000000 0.00000000000000 13.61146667414016
PRIMCOORD
 96 1
Ni 4.25757922161663 5.744032880506054 4.052392742385408 -0.4700603928001969 -0.2011371431970794 -0.18342301374676798
Ni 8.258153382586531 3.1307931478711035 5.225251867368494 1.4503803763272956 -0.05140972193054372 -0.9433104961822851
Ni 7.922340256663147 2.2923902811309826 0.6101245269847136 -0.4053603815186503 -0.08382181971266209 0.18979986380738928
Ni 8.037129960428755 4.571053785728057 1.0886710189036757 -0.9911859797073252 0.6356126969141311 0.23771159988700352
Ni 5.369950320004732 7.8423324934373895 1.8390858060604864 0.4679667434959618 -1.8605176104092989 0.46068666489478083
Ni 2.9947994803539286 0.9980091938911664 4.462084012013208 0.37029953325977516 0.7752693642082261 0.48765162351939895
Ni 3.883217661592262 8.190151898835893 4.482895516435688 2.417173014791921 -0.2749671418043522 0.3446846609051483
Ni 6.466334745722245 0.17439423187094333 5.2154785140761595 -0.2745552510779143 -1.9024880413038139 0.2551567919466444
Ni 8.554236976428033 5.361673334154339 8.148436820148326 0.6606403293067203 1.513870169350825 0.3400325068451176
Ni 7.708645221977403 5.576251867329732 5.410680530375943 -0.22791106885681395 0.5519402582951398 0.34233518683636527
Ni 8.85195736747141 8.006551612702811 4.436453255829297 -0.45184746933659603 -0.7512408625041126 0.13164716672605714
Ni 0.2724076943157393 8.923018545991463 12.150466428630123 1.3476686616886662 -3.071332621470304 1.3478730643899883
Ni 3.718654442915082 1.2887731968265732 10.328081534019226 -0.7551625661560221 0.6919990461236598 -0.7914979102519466
Ni 3.1938284401115054 0.0700381802688805 8.101599310217619 -1.0322241285955578 0.7299151044431429 1.0388066669090819
Ni 0.4108984075641836 1.7198460599022802 11.934207388327577 -0.4736830771544487 1.3569865966554824 0.8668692852044103
Ni 9.295231809688369 5.117864950947731 3.3485978455313283 0.13212667746563694 0.20265409406223808 0.22371579982854375
Ni 8.132798896881546 0.3445653409613663 10.59980753950032 0.19878921179019313 1.5375330601854036 -1.8276866799222071
Ni 4.582994965314465 8.142303480633345 13.169583796436608 -0.18689400301450393 0.27622698235338233 0.21851574368484303
Ni 6.580826849996603 4.3647801383553615 3.6791657804214304 0.43957996482315265 0.4986852556257412 0.7110131253323174
Ni 5.0716905298834645 4.592732048668803 6.2581443716262175 1.3701712136665563 -0.13100336249447117 0.27986020823059543
Ni 7.814553440926018 7.06208242728435 2.3207961525708005 0.43867750761354135 -0.8977135242787766 -0.7943420645689611
Ni 0.6191176116109264 4.769273646868798 5.965619881700384 0.030862493906811363 -1.992813209352632 0.05803931143191939
Ni 9.202027369022492 3.8656313916562035 12.367582927466831 0.18298232666492356 1.207002322183134 0.3928799896634524
Ni 1.0968122249861851 2.684617110614456 0.5554871203880236 0.7078624955184777 0.5544326856996904 -0.891404037120981
P 3.315723331730709 5.1556228864000815 11.32905556284197 1.081979345641814 0.20013029919911987 0.9074166104991533
Ni 6.3760691000324625 4.789166312862044 9.210498724540606 -0.44866444362292407 -0.7161579027580506 -0.407527307262982
P 2.3936485080288143 2.5122326053078607 8.35772645236516 0.6943294940290493 -0.7772195459560615 0.15999820706492446
Ni 2.903101637112505 6.067951326763536 1.981448102690412 0.28343532717636344 -0.6095239702468793 0.10986400941269465
P 1.9286400029664996 4.003373456184472 2.164045850537345 -0.575838405068976 0.3931620396802455 -0.2085971990195504
P 7.446683269804541 2.170430289623069 12.23529344361731 -0.014065476954130615 0.005683166427706342 -2.064231513194619
P 8.55475777553772 8.147223172223073 0.49128282014605434 0.013574653360641138 -0.3690378929385322 0.28760385673175626
Ni 1.778119760282682 7.528532429882408 13.63093089775814 0.8759699619540978 1.6340322182554181 -0.34314842676628
Ni 1.936935588785095 8.229267631967073 3.5678375307384247 -2.190783524785956 0.8002653720319314 -1.0663059007706153
Ni 6.409474642925281 2.261291134295352 6.084270938864962 -1.9415058173279078 0.851422868742353 0.1705502715491579
Ni 5.966702399849806 6.63805895215763 7.465140948250916 1.5586973529678447 -0.14451708071018984 0.08328163093847593
Ni 5.861733479295451 3.2714833073595675 13.2750595661245 0.45931858090266053 1.2179205117575347 -0.06553973357402261
Ni 4.737198001702502 7.971778972147063 9.059928261942641 0.33832786544918503 -0.825805425284565 -0.08538350777282713
Ni 1.8859995758608274 4.480667240244954 9.95010507017458 -1.5417350140818933 -0.30761783795983794 -1.6492012126863727
Ni 7.387116871634022 5.102306077545814 11.389735169109448 -2.3015175955084297 -0.8777854178962817 0.46133355445016033
Ni 5.4377007041846275 1.0487406071651995 8.424422218347939 -0.5113985894273515 -1.1217278291843455 -1.494639089035355
Ni 8.427543293012423 7.607377695095471 6.897093269335319 -0.6618569753226408 -1.0947986088936694 -1.3518765291224266
Ni 4.222508981569631 5.706070345403468 13.365221981990755 0.9617054537497052 0.1434539295529981 0.32893896803511735
Ni 7.016810104677935 7.0013256311488306 9.977014574172454 -1.7974391938915752 -0.32206589506436795 -0.14227533586386465
Ni 5.20531270145474 1.1933274599922192 12.167603509334075 -0.2473907748479804 -1.074878987151607 0.8583977573982893
Ni 0.355615582070845 3.24385305459382 8.012212513025434 0.4257461442638538 0.9353745291646601 -0.4269267948355164
Ni 7.15054387605843 8.861899050475982 8.437095306683139 1.0362203942391444 -0.6362451882918075 -0.8997284978262764
Ni 1.6866544166437971 6.678448783110723 11.401808408470098 -0.03405426137123167 -0.7625148927560351 0.08862309775604738
Ni 9.087721264430165 2.8347374539819064 2.557226858389639 0.1433163755338693 0.3164943145138614 1.2632670582131342
Ni 3.2369431664063577 8.441390969339652 1.7155215672950526 -0.7435131548425518 1.0949701014745272 -0.7206298224864751
Ni 3.597429150151192 3.3395777909512208 0.5847123204271892 0.1288598337889071 0.4503611145990566 0.8266551748793699
Ni 7.171543240159762 8.553948676920884 12.351194495483055 -1.0310730457102502 -1.3247647605072992 0.4070938192699892
Ni 4.569733187985634 3.1012935983009413 8.792993608270672 -0.6317910091751958 1.2099076687553874 -0.11820338251632546
Ni 6.517382358455731 6.278623866616272 13.370680142659964 -0.10924205955797961 0.4533880743508385 0.6260312238732831
Ni 2.2068769273170994 1.564173626026196 2.402369103120851 0.28390918148898847 -0.37769479728258176 -0.9828172960276558
Ni 1.7867873454653398 6.364332520096288 4.828749835193531 0.8653052831514001 0.24035032306143123 -0.20317654222461135
Ni 2.549655741332555 3.1043625930544576 11.73903234198169 -0.5964349982734051 -0.7885640244346033 1.1497875635350392
P 3.1163409725772726 4.490478723472104 5.39859334103914 -0.49951289373335916 -0.06340828905331661 -2.621954439609807
Ni 2.1309983570324365 5.094921890169172 13.319038260942389 -1.32925750617133 -1.3073997868662903 -0.8949927829135039
P 1.1345143605339267 6.525064145323624 6.910378296624404 0.39274654940938164 1.7326443089033772 1.5984530355992277
Ni 0.6366192516916601 8.796771261812728 8.043655759272824 0.2851409970135605 0.6674864056942762 0.7414997239569489
P 7.184665517727069 4.174707063287591 7.09210463596102 -0.7248670004962742 -0.7938288723779684 -0.5085235818724017
P 9.141995971646894 5.369838720195514 10.32454289006858 0.822542695372893 -1.0015799213471395 0.3486526444139609
P 4.839748926390452 8.683915954740245 6.735280055956972 1.1235931645278585 1.601133153534552 -0.1599197884185052
Ni 1.9440128766863853 3.10277229577309 4.190630496066289 -0.8478523777822752 1.531757591154207 -0.7975844827656586
Ni 7.078561999112322 9.256339276175627 2.831498269519331 1.2474529739990128 0.5763860500423299 0.6164880602695383
Ni 2.9686851249967363 4.466168565030615 7.406924907771944 -1.3996635666987185 0.05351776941248202 1.822879745451867
Ni 6.082468601946078 7.054037941036497 4.0075156691033085 1.248890734886804 0.343804315182724 0.4839587480488439
Ni 7.743752661960809 1.8799917861312168 7.915122539001922 0.6735408394184723 -0.1525576916264792 0.4682793896403742
Ni 9.117676513221303 7.470175029645093 10.161749458365929 0.48856822179639725 0.19123068271664487 -0.9331687797625928
Ni 8.37847657689257 3.1869836518127546 10.095761421173279 -0.46667193594393824 1.165886783089747 0.3368199134450909
Ni 0.396144912785462 0.8792167769682453 4.224209948661807 0.3939444263722248 0.9366634231794128 -0.6411493104616441
Ni 6.218425069526847 0.25097123096163365 0.6542557415418666 0.33702765858052275 1.5213374242621476 -0.23373950261313295
Ni 5.9352033536978075 3.0279074237554973 1.9833676194089749 1.1534637268350458 -1.576669364065233 -1.6362263976932596
Ni 8.78073808922163 6.312847808110028 12.721358972682388 0.8703708705997656 1.1118851320623109 -0.4448723235703435
Ni 3.8731736787625723 6.894152614362405 6.555309553618731 -2.033627415155517 -1.5691905391896845 -0.0736461647312409
Ni 4.017425732161936 5.648866143194746 9.297543785736018 2.0109268882342075 -1.2302445805405262 -0.09055399623017309
Ni 0.6335883868729604 5.98634396627231 1.044671864120765 -1.4471420718956562 -0.3597464403342772 2.6599430030384386
Ni 3.472707063365114 8.362694503872214 11.089139222981865 -1.0035229040061233 0.3126001216657778 -0.3437351525076854
Ni 2.3412523976006017 7.026389088302547 9.022360976164371 -1.5461069178973437 0.9289904800151872 -1.5194430354529123
Ni 4.843813019442835 0.7122169624564557 2.74980255917914 -1.0521365512487688 0.6624611845655429 -0.1521972229632669
Ni 0.7382857478915505 1.7400735253231823 9.729395057481026 2.2489087110634625 -1.7566445284727166 -1.1516827236752232
Ni 4.07101224055515 1.8873201736032497 6.722975246992193 -0.8936707216679706 0.265119302475995 -1.0337876164279356
Ni 2.1902020558229944 8.95683328818475 6.149224817825517 -1.2125571905630925 -0.8543063609377353 -1.2862802312788555
Ni 4.787250516137121 3.391360102428731 11.15926575309971 -0.0032498743958653707 1.6391289160520353 -0.0405745789882527
Ni 5.473961342196627 5.337372475696952 1.7252530706589295 0.024827600566641114 0.07856674196130985 0.6066818728123938
Ni 4.22862837110846 3.344125483176886 3.3269828224824725 -1.2870302220710026 0.21343370117624533 0.9142873694770577
Ni 4.987414073955089 6.623913676339151 11.34753928124383 1.1044104209518206 -0.386658691344089 -0.36348996653710947
Ni 2.5296700754982937 0.7364443510394408 12.666191466991908 -0.9250222393960585 -0.7921198601066616 -1.6663327301603368
P 1.4362430447250776 8.801467753784017 10.035884403533768 1.6177118838288398 1.4033662123612862 1.5165927104883108
Ni 1.5017707327046999 2.2464855596056617 6.166144278901493 -0.21636295900789834 -1.3115665166494703 1.4479465700748224
P 9.155480948594162 0.4332732393141371 6.225313567750875 -0.49073540465104515 0.15889931757379086 0.11690446119924383
Ni 9.29399491180286 0.7374506093192301 1.4589582558931486 0.4647117268937738 -2.0715481014606905 0.40541514601598566
P 6.069578823981311 9.008662099582768 10.313612618754012 -0.7783870839016014 0.5594224256047979 1.3979897785407214
P 3.5777782837445864 1.230508796430273 0.6454188966485602 2.0309472972201923 -0.8935683917621514 2.117839528328062
P 6.367857214070781 1.8859158760039132 3.789909061104447 0.30465489867677215 0.8904604422607891 0.7193072470203096
Ni 6.367745614261563 1.994093291073309 10.208654858180578 0.5943061248558603 0.4451762279640075 0.2796663470522345
