# total energy = -340890.98537810124 ev
CRYSTAL
PRIMVEC
9.10084195235311 0.00000000000000 0.00000000000000

0.00000000000000 9.10084195235311 0.00000000000000

0.00000000000000 0.00000000000000 13.32000212447410

PRIMCOORD
 96 1
Ni 6.549075126118728 2.153905381196597 11.231439232512619 -0.4176566823875001 -0.2694590675019295 0.6698248240194657
Ni 4.7551535509365195 0.25508477066453034 6.165896004053552 -0.36197173012037015 1.4083068441960134 -0.15476215547696573
Ni 2.8215249499389436 1.7499463065521608 4.6928100528619305 0.9430878386485179 -0.4499965321707863 0.23183405806030394
Ni 3.6302530741674013 4.6659652991620035 4.544358938035853 0.27762951912786377 -0.5911174427152336 0.30748722591924466
Ni 3.855189485479539 2.7654091580571407 2.443580632202411 -1.346310862109191 -0.46744378111295626 -0.11396749005810694
Ni 5.098874152265086 4.6823650164780934 2.438572438840012 0.5656560652193354 0.6952957145970605 -0.467503173595982
Ni 5.304935417232291 4.669796753651501 11.646650588227873 -0.08434246810282249 0.12385209616167056 -0.4449890516538659
Ni 5.7389454722195286 8.055173471645746 12.431278772708973 -0.09514572936591356 -0.16180543547699233 -0.2684295977961506
Ni 1.8582554274060918 6.349939601927075 0.35200873815418376 -0.18929284226398368 0.1372172046146669 0.45746944350906377
Ni 2.7694954361231368 1.5118409768402545 0.3105744246155082 1.8659053570837738 0.5218591226390432 -0.18414137997003127
Ni 7.985397315895213 0.04057792430479978 6.76882587764912 0.7258756442664467 -0.38729581070745556 0.20226997124994198
Ni 8.727398066449103 2.141264311633862 1.23878022302215 0.03953122532540288 0.741766090244458 0.4696158490636106
Ni 6.644916093408262 0.6309231535581421 4.659776726589894 1.738204319489658 1.1508797681579535 -0.8180905731388104
Ni 1.0421374194591746 7.456947823289184 2.4870708259529097 -0.07593316099320471 0.5699822033985151 -0.4741433046203189
Ni 7.499330444566115 3.870351488281207 3.287656426828034 1.1880404363686505 -1.2861539901136365 2.0839284774029143
Ni 7.7498766253163645 4.0653643310387935 12.524451373118886 0.3927974572519751 -0.5921852218581155 -0.5334784520455264
Ni 8.405819813749863 7.721554804956947 9.042189821255665 -0.5165083998500911 -1.6065304132907234 -0.9115691992149462
Ni 7.020589751061352 0.806852440688587 0.07338099927378632 0.1202037007758059 -0.7056634309846298 0.30755381749112193
Ni 2.026657408103608 6.675485821746078 9.151374443111708 -0.15569418037293187 0.037741480414831774 -0.7667667260538537
Ni 9.234897420730139 4.678733780512987 1.1730603125589545 -0.08831353693542855 0.2361296001118643 0.6778062995630455
Ni 6.679308175393558 2.0258383323220053 6.48685448941138 -0.9440052082564645 1.1828172402964985 1.6884275051768471
Ni 3.2937039363488676 4.134166696693421 0.2565782188396526 0.45113887330534563 1.2903163490214422 0.6579653535777185
Ni 6.117831727104904 5.667494761537719 4.460056018256496 -0.29958725434587763 1.1005671359463305 0.23061047006584798
Ni 5.414172823972039 3.2400453718118722 9.017787733553316 -0.6356990859803503 -0.18008880716721243 -0.15326834454025862
P 0.26407185215711554 5.622545702811767 12.456506306782337 -0.19545577654158597 -0.2155116667511966 -0.8047894851545302
P 4.099993034916552 6.164191416343617 12.702340071535765 0.23044386258099667 -0.7174542529719709 -0.7537425458800437
P 2.5512390428520693 8.560497724684526 1.3778347184648412 -0.1304649734924979 0.9238696138488541 0.33576267582517016
P 6.456938201530442 7.879891254382767 5.656752127619899 -0.7893620948558664 -0.2941627408961966 -0.11093795920316377
P 4.936815458453982 1.1351480248811705 12.566036760635058 -0.4685696671872834 0.10296419696906783 0.03185622527864836
P 4.27170772210855 6.4524059822055735 8.307458823305598 -0.9212476028449748 -0.47411347982364804 -0.846076259718459
P 4.760077106468153 1.1609034077915668 3.6532636431252263 -0.3266519717731536 -0.5452613036130675 -0.5378303012563189
P 0.3682755831768134 5.7070197184210585 3.5917255695692134 -0.7675282868102266 -1.4391086600682184 -0.48701810370045795
Ni 0.7569689054205788 0.034501292089509486 4.697924726075939 0.22326765654753164 1.2158685143245125 0.0447168832914004
Ni 1.9216609937441589 6.751832785433469 4.639436344680094 0.4393832754313142 -0.8518018493483265 0.46912553969075343
Ni 6.416048118344431 5.7878989014333175 8.972287163801084 -0.29312658632219846 0.4109296480763116 1.2566012161571842
Ni 8.73492446279783 2.4518396463335717 9.951187382499521 0.7097810526974292 1.1930137212135261 1.0969488224674526
Ni 2.7271492182142767 5.401113115676484 6.7225380850623475 -1.4630302038808223 0.2849944441333673 1.3771638429343056
Ni 1.1068808095738594 0.05228797772911311 8.971634633428407 -0.8246453435381927 0.8917593635778706 0.27337202940309047
Ni 1.5369501999673862 1.251356676606559 11.346577625216712 0.7356286098881524 -0.6139858626729747 -0.8791578727637762
Ni 3.887643088115042 6.855828107170959 1.4017835842347026 1.0801880580693461 -0.47917058263158124 1.3829354553107602
Ni 5.890774819602616 7.972173792443339 7.959087691705933 -0.20003234016867485 0.32104748110218256 0.012492218929739776
Ni 5.4748572385467815 2.9631886567881405 4.5484079026495765 -0.024196137630229295 0.8090377189079226 -0.6761754488278419
Ni 0.6974493986241155 7.527734172503693 6.758089614320712 0.03161968378781006 -0.6447192872010896 0.7372736016907432
Ni 5.076577089321457 4.943732098387516 6.961752807416224 1.0403598703288148 -0.0710128408734519 -0.2579814058796331
Ni 0.6787808413929862 7.559559817039967 11.414762043698332 0.23462396210061529 1.146963978043315 -0.7707257107016017
Ni 4.63608723481754 0.52162204092427 10.383727651500882 0.06619047978414407 -0.6869985075852748 0.5962138834015345
Ni 8.39110375220707 7.445653678345084 4.46786181045517 -1.3456282342198695 -0.7293566608365116 0.6107056492598063
Ni 7.341649255765576 6.22093516632465 6.563897667513132 0.4593003260702154 -0.12953551969969304 1.7668361242937376
Ni 2.2796153119885765 5.289900826218873 2.5808832155566743 0.22951286612629504 -1.1739394781908945 -0.42342546655047725
Ni 2.273144613313915 5.8161388142145745 11.395195233360043 0.5581363598035226 -1.644811311148793 -0.22801802674832342
Ni 1.1828819412645728 3.2636256534800125 3.9221143474258926 -1.1115506315410275 1.0383839775493666 -0.9760401252048224
Ni 1.7285957311783835 1.1703136784379802 2.6528117204444186 -0.8833747390586013 0.19557610416953414 -1.0866469263208125
Ni 1.3728529175442934 3.5830925108311207 8.080619425927535 -0.6624203040252785 0.3794578027202755 0.038062096979044134
Ni 4.120560937876798 2.838097583253372 6.492981176257768 0.35569258197987774 -0.6858505100237607 1.5875160769717498
Ni 4.083775334440818 7.120380483786615 5.79998208938036 1.5254694441526502 -0.8136993860496503 0.11637815638212859
Ni 0.8743552061030712 0.19106307732185757 0.13556068219205475 -0.44625866239490886 -0.9537214071029639 0.9138518246015359
P 0.2403805402163582 5.623719711432064 7.864701949055045 0.1398620984366817 0.760931093208683 0.14195909017502648
P 8.770445049193334 1.7594657873027877 7.976044380553512 0.12266398939084035 -0.8029341771133462 -0.3028774950613752
P 1.8634429073562422 3.5977266647957555 10.36197572899412 -0.7655971312257848 -0.25808759244019425 -0.3165053702574549
P 4.176676729758601 6.542058376922998 3.6216819011550294 -0.49340909482846634 -1.2104411726613542 -0.5447843639766489
P 6.966294127583111 4.062306448120809 10.344660466971039 0.7604127588113678 0.8557983721022293 -0.4962607053446486
P 6.553234210920866 7.916968084763316 10.230228299607527 -0.32271664127448935 0.38535719892384596 -0.25995009957022974
P 2.4403543837070982 8.478135104423364 5.839155753761812 0.376011753153204 1.7990821288116374 1.4781688592944737
P 7.07938119049639 4.017002456556162 1.2876672160892084 -1.0760102725425729 0.014176548610698165 -0.4679747139157618
Ni 5.370361370498312 3.0780594847369107 0.23186761259290076 0.38923262271885223 -0.1818322722208804 -0.39913394099296423
Ni 2.081817611573541 1.334310851598877 7.017070455453065 -0.9789439291151786 0.4470035109807334 -0.6607053782167008
Ni 6.767913973278936 1.0119954306961951 8.969250212819741 0.9231525331771714 -0.041070544788064746 -0.16387414508056294
Ni 2.8861864324754687 1.8462969209946922 9.34623257155499 0.23618359327825128 0.28073669729827777 -0.8100569042010565
Ni 6.2288619997221595 1.9104669580622553 2.128270129400836 0.8607662576304659 -0.1308300701414005 1.1900199286925248
Ni 4.452077310059484 7.055081942308844 10.423181621816484 -0.1772161136051077 -0.3176230288016659 0.3375755606641928
Ni 8.73509737879617 7.379071918142802 0.2710558383215813 -1.8187333273836612 -0.28023636062309154 0.9041147998194301
Ni 7.582430233030719 3.8874246679066142 8.107472370385281 1.3093540823791838 -0.0536362972682173 -1.0049130994854307
Ni 3.190427581130784 8.152825506496823 12.599656181133042 -0.040256276416885506 0.9490332575986752 -0.815682220807634
Ni -0.07669279568406659 5.207146869750946 10.065565854895128 0.49105807809778657 -0.7079085182650647 -0.24933144351411896
Ni 9.01785143944744 2.515090498357336 6.016365529364163 0.5140475970144244 -0.3556776695815423 -0.9883071154976334
Ni 3.6195686856384945 2.909411781304914 11.432557830179952 0.6857600071924834 -0.7356939159084491 0.6564936541281984
Ni 1.3065805859706168 3.359020679510674 12.557724961620194 -1.4195338232600843 0.38563564939621325 -0.6837463191965643
Ni 3.210312920939694 8.65571983471685 8.010449203717632 1.4827189405590013 -1.0215121414946924 0.3005349629711276
Ni 5.661988752116946 8.138182251690171 3.2831405890187977 0.7240995262026303 -1.1495312245498588 0.3095407660141637
Ni 3.249528449194428 8.625359425745442 3.775474300161359 0.41420291951094473 -0.3148076708400578 -0.9342324451404168
Ni 3.5503840846191195 4.64227580738965 9.542436714532709 0.48024736063552775 0.48055692145614654 -0.5616736835328198
Ni 7.4467002751771325 6.352087400643278 11.483386942933612 -0.5406567149615205 -0.10682573680700311 0.03156774750395209
Ni 8.405119048914493 -0.09331184329278545 2.482382072145335 -1.1598457191019895 -0.18484457668464294 -0.7938746380142392
Ni 4.804534719725146 9.070991255989421 1.3147859051338724 -0.17836205428409282 1.3638475854413739 -0.9911525553662285
Ni 6.111315524220154 5.89740023259158 0.4054570732405673 0.17069733864998343 -0.31770736098535607 -0.26563712265267797
Ni 8.135852436133613 9.36176315845838 10.748042548231545 0.5830007271453702 -0.5737013041213151 1.1169095818600958
Ni -0.018224436140660178 4.9149552359272075 5.615286871218363 0.8672258972128806 -0.09531362240234552 0.10856020299960659
Ni 7.6273883925986885 6.0781429550652435 2.4760287743327036 -0.22835638392434865 0.9412338161589145 -0.6693738525249762
P 8.519917070127121 1.5992454635792808 3.7280425317329478 0.3108898238428904 1.284039257763479 0.3251571323951819
P 1.6644074924267849 3.1585200290163495 1.4620038558665371 1.4989850247088765 -0.37816016695477456 1.0983585583307858
P 4.820761521042896 1.2843199263950587 8.260985373541663 -1.0675143192564196 -0.06832449540801136 -1.8200924125147169
P 8.79944033186207 1.5797150566090654 12.366130395124495 -1.2390637214940532 1.3650320926677781 -0.43811032225616164
P 6.779444740115498 7.781947992587119 1.313135012391842 -0.37530547111479884 0.9489592098276302 -0.45978369346453724
P 2.1830644790216533 3.5286512738805946 5.871044194108009 -1.1883582247193856 -0.7975983667227295 0.2965700647861086
P 6.945935543989274 4.146198009840962 5.776858669981514 0.17024662426581005 -0.8360505000513409 0.5405425579811594
P 2.623308610791089 8.476223927599625 10.422981403292091 -0.6046036501271264 0.41028327274156434 -0.2409704731439334
