# total energy = -340860.6902393968 ev
CRYSTAL
PRIMVEC
9.37332791963517 0.00000000000000 0.00000000000000

0.00000000000000 9.37332791963517 0.00000000000000

0.00000000000000 0.00000000000000 13.71881288089232

PRIMCOORD
 96 1
Ni 5.030140264848491 4.300379808531493 8.981734786837848 0.5536155891150337 -1.6180803229118523 -1.2655375994148657
Ni 6.011630819615805 9.101248468967759 2.2607098781195525 -2.992955626922297 -0.23906425726015604 0.40816699772950993
Ni 3.314090109796106 7.51591874707698 12.099691756254392 0.06636377213721474 0.37813368459221325 0.4847609322351652
Ni 4.849010073365996 5.462944314812925 6.159458513824539 -0.9712822988048626 -0.2668936207675984 1.06470770304556
Ni 8.213416208202364 5.1210428003999935 7.950971458443643 0.7809121643163003 0.5821887727670361 -0.14984054980563224
Ni 3.118478126456829 0.7173154886482286 6.1153120133151075 1.6423654207114617 -0.3909999990319202 -0.37878468791265085
Ni 1.2380854104821406 9.479621602872431 2.7444485927763846 0.9473622976541556 -0.06538803848750674 -0.4572827814195544
Ni 1.0235018111440755 2.1580025732059585 1.0463202409797714 -0.15176579185280314 0.1612019975650385 0.7686505733401278
Ni 7.260973597101179 9.293120494410042 4.699448313465672 -0.3341876180285664 -1.1994268238287216 -2.489797937347499
Ni 3.1284419741874174 7.7226100041863 2.9066868415486247 1.8334477507757003 -0.26664113843716014 -1.6480395882781034
Ni 3.2338919148921406 7.4303121418808695 6.823229803247731 -0.5435378931640575 0.4272666946734383 -1.1192942800421886
Ni 1.706386253819801 6.5852316304091865 0.8897528556854296 -2.584443587148543 -1.5686457224298083 0.25965288004478504
Ni 2.4540778867206336 8.603449762216965 0.42501012768034807 -0.2964803332857797 1.539283467217607 -0.13692204197175128
Ni 5.042644284484055 8.537686492529467 4.607779039678646 -0.927940441484118 -2.2080168579451067 -0.3611533479841328
Ni 7.254374774145078 7.4362173385603345 8.095608471779855 -0.4281380415347982 -0.5690062126384909 0.4274826673389864
Ni 2.5645519312669327 2.488852933833036 12.984308028161495 -0.553655955434666 0.19959268152809498 -2.403528941645925
Ni 3.893811703814393 6.177444993043943 0.7282644731582006 -0.3648845328917909 1.0923239221009315 0.783033067314045
Ni 5.603281782566803 0.6062527990995952 6.2777564753047255 0.9873486082391059 -1.32253124319109 2.740330857368887
Ni 7.9312884068449 -0.15424092526919406 6.902826230490075 0.8332526255912294 0.6326189043931298 0.16962236041824982
Ni 4.6982400914783975 6.460950673626615 8.601503859311158 -1.4485808612247117 1.1005841052271947 1.0050105442952433
Ni 4.498710057008936 0.35067401214675886 13.913208588500549 0.511677554120351 -0.44167747078212966 -0.8328985846859205
Ni 2.5462645682167184 8.59006464974351 9.478890483283546 -0.10500411021723206 -0.7064532738757769 0.24813665187506942
Ni 1.2794405338945174 9.221583254635958 7.010163022133809 -1.8438388642020374 -1.6831536583724171 -0.8253662808646173
Ni 8.926089087461166 5.131578421142404 10.927295566168056 -0.10752147732244709 -0.48621360552129167 1.4581685049131468
P 3.8925650511820615 6.312608383707242 4.571135888283359 -1.752238171874905 0.8630812789168877 -1.928932094427955
P 2.1723062718295503 2.563399011915228 3.103401128268069 -0.1535251977460711 -0.9335343906321277 -0.06421150168090232
P 1.5761907270297026 4.213114124268295 11.26841347035495 -0.0647905141128239 -0.6672611770573476 1.118891388176815
P 8.402307515320727 4.023454204248795 4.682258567131593 0.32918759371081374 -0.6313073846705579 -0.5888222189231537
P 4.931186040491179 1.9633747893132587 5.010933378315331 -1.1339549673781566 1.948069843698671 -0.9256447034714058
P 0.11969458736152044 -0.019445906398757238 4.795260598256387 1.2059725953670393 -1.355933987021252 1.926107480494967
P 5.239990333514921 7.961676736423986 7.284593446486229 1.3945583842616693 0.8755179620183439 -0.9278800205598279
P 6.304275495059552 4.522040270556852 0.28494917310431894 1.7239305831794631 0.22456529231303257 0.34458695898501945
Ni 5.937937714387313 2.0412015322173755 10.43312996137434 -0.5071094751336943 -0.7771177302708745 0.12830550394733384
Ni 3.606500452038288 2.058242242635259 1.1426452468155126 -1.1264404041686664 -0.1822577897940732 3.236664582043316
Ni 3.748881305309821 0.8602831122564829 3.482616924365573 -0.7423170776519217 -0.046364960417784665 -0.38793395851208673
Ni 8.423509983398423 6.2141509457372495 2.352954674249626 -2.9862938986314056 -0.5262500526178872 -1.189884688666241
Ni 6.577433021461068 4.2868915894493504 11.81460104589633 -0.7790846241892583 0.6069392402388386 1.1185874837831509
Ni 4.981014652472184 5.372866632130936 2.632955667469676 1.984588764560311 1.2271589996366672 1.1309717163801167
Ni 6.503805529529015 6.014470938018785 10.084369982817972 0.794910021257289 0.5790096037081061 0.10292280220817113
Ni 6.16143534871295 2.49440194404612 1.3424217998130217 -1.1260138581542092 -0.04882499192250301 -0.3952937413112676
Ni 0.8164599915652125 7.0916819189617994 3.0170006021850533 0.8550218989475211 0.02820782989278368 -1.719648925084974
Ni 8.54631932767516 7.326052613840102 4.70239716247418 1.8506851976999092 0.8128894885538451 -0.17266448967868328
Ni 5.306953389194437 8.843032027498095 10.494603996140372 0.6435766889562141 -1.0813332274173828 2.852318340882488
Ni 0.18934497619659488 6.8722898023276 6.801334646226206 0.26961436213287115 0.49115140914254124 1.25065091211102
Ni 2.2164827669887823 4.937606770214089 6.7308612791872315 -0.1490735897326207 0.2868541230499253 1.8823642739707451
Ni 4.607656249081025 0.23774884231207852 8.628763371982934 -0.4703509274574222 1.7006163339335552 -2.023123944521032
Ni 8.059515534741845 1.0476756242176295 0.5847232018725126 0.26921429848097506 -2.897500850956397 0.9243959186659692
Ni 2.044810263521493 1.5480613695137138 8.250219643507522 0.07017723234603397 0.8603206854526152 0.06940101630164176
Ni 0.7519190038570842 5.3794092151186605 5.067468606525156 -0.6452934145370047 0.4932514862046795 0.8820696470939324
Ni 6.22504275294604 3.830176179597116 4.507055130983106 0.3016086556512806 0.7867061452902581 1.3717606696408633
Ni 9.476434671331132 6.780103120831515 9.395095742401946 -0.22884000842898655 1.2962291149614515 -0.17497308320720187
Ni 5.767418130271729 6.582250912085266 12.912489588545531 -0.42199336208964094 -1.4886995836224683 -1.1950497778069484
Ni 0.9777131035580691 4.363040506630255 9.164249418875196 0.42260297064918184 0.43412639790774915 -0.6395847941880017
Ni 7.5175309595037545 1.9208105065808008 5.491009933698089 0.29147336698949156 2.744564178723944 0.7974800959773104
Ni 8.14280692790648 8.673552882797464 2.367880761856577 2.637341977809471 -0.6940965520826369 0.14834056822133806
Ni 0.6935990939841314 4.583313716102344 3.0861157739877507 -0.42293798539109745 -1.61410565453482 -2.015128327910065
P 6.093591200195547 0.6487842751838335 12.546746076872463 0.6276358493562417 1.2880290956491622 -1.8857331904429782
P 3.812179389716843 2.372623665856274 9.172082709137145 0.5822916168934875 0.572693174571775 0.06407729009588319
P 6.993599414114314 0.7372619307655308 8.751203407134003 0.2739078473019025 -0.9348471959062803 0.15232449256975056
P 3.286016992248493 0.2436709109820558 11.854042135718313 -0.4119148948077164 0.9935200271571405 0.027785654753700536
P 0.5994458882605045 4.314683507155085 0.8154270508127093 -0.3951461599898098 0.9665861788807739 -0.12388860582656083
P 0.23322714885466 3.384568163499112 7.384013525248256 1.0236497566629852 0.6356258095402537 -1.8520851633712299
P 0.2536413200422882 8.566884409444597 0.6958768127033536 -0.05421402414855824 0.2949001332828534 -0.27352706692371603
P 6.387520021583877 4.398921606454048 7.116936476760976 0.10549313403850863 -0.00870935484853984 0.561256136379427
Ni 2.6359204511358896 5.845357353112597 10.376869371676749 -2.741538761634059 1.5992246236579297 -1.772883358929082
Ni 9.12980899957463 1.678941149252385 3.7188407262018597 -0.5957770529744321 2.211540040607017 -1.4846503532537592
Ni 9.03239200101959 2.1866287171092673 8.949220586454155 -0.4584431202762427 -2.087865093453159 1.184457604113399
Ni 4.6573723811252785 3.11443822206183 3.14930419045644 -0.7483308879461693 -1.3116071400794187 -0.9905061800314812
Ni 5.1269573704075215 2.5556285229512974 12.76973192748588 0.5249953542751797 -0.9734559094174138 -0.9474006070912588
Ni 4.097428509319166 4.220622160046472 11.027922929584548 -0.21667509093167847 -3.3584281711070743 1.5406260972884305
Ni 4.317251799044248 4.021242098826011 0.4616420310819595 -0.7510719410264162 1.0918464682438809 0.730349363767084
Ni 1.6757635910391493 2.203866267416466 10.567711268364947 0.9023294257842331 -0.8546552596367217 0.20884428203335
Ni 7.062427762078294 8.397911424459348 13.362439330202152 1.3411853679571675 -0.41030924088349335 0.3172239935910343
Ni 7.42548487792861 3.7580577934831476 9.677676275504833 -0.987508530855738 0.3299273000903157 -2.8948330743162467
Ni 2.9089561242725908 4.4998629763606415 2.4322774003125405 -0.9291619725960449 0.5137794309547024 -1.191143757884323
Ni 2.650533469585549 5.2546033519645805 12.85467865038638 -1.2027404615829866 -1.322293159038355 -0.6021960691268984
Ni 7.753420133528205 3.9859515186701646 2.5208459771764455 -0.17674123085121818 -0.8997241269509022 -0.4346871555072256
Ni 8.052569898647427 9.031604641462328 10.424006901170971 -0.24185956061710603 0.017472445753150555 -0.377951136267762
Ni 8.0746815795472 5.862388690202418 13.420566149517013 0.6604102155737852 -0.3087627501975586 0.16021109440667894
Ni 3.1090860517380614 3.8884501601625616 4.85292062583373 0.16049828662979454 1.1496060436518523 -1.3351126794005264
Ni 9.462937078920929 0.9875457246957806 12.252148937193267 0.014056735203382242 0.7611043855617537 -0.32882198284127884
Ni 7.204527415507948 5.799962325305222 5.636731441091147 0.5544835935422837 -0.7712540724012459 1.4802365404567797
Ni 6.160151202768368 2.4430454795909036 7.800174293904663 -0.17509238239388555 -0.6459166499433006 0.24130625921679735
Ni 3.8251052091152267 3.0198519685817087 6.823586927046918 0.3977352608732247 -0.7161815569071344 1.0488529954014905
Ni 0.6530978807582614 7.891226802705169 11.965973732778354 -0.17418324031605487 -0.048807251310690136 0.2535022870623569
Ni 8.139216943258491 3.0314842687074477 -0.025051156580217195 0.6183027448807739 3.5727219062907696 -1.543456367648374
Ni 1.516023334195603 2.189974995227631 5.206440380380307 -0.4637092537711885 0.09239156365954411 0.8176583706973982
Ni 1.900910931103812 7.626111591781401 4.718147165617837 0.3931743809754196 0.9705546766102188 3.817343345923729
P 8.143219354341237 2.9399256001915597 11.339298326495873 1.6934236728398577 -1.749207355468381 2.054037860491069
P 5.087092606157104 7.800914786821613 0.8843435080604788 0.6242332514325959 0.1371812091704089 0.11116010251629888
P 0.6980851687949121 0.22451651508604673 9.88233352042456 0.1898129764335118 0.672168641661294 0.4228634233994201
P 4.539821473891684 6.198966154275769 10.989454791215465 2.6466339446343583 1.4238656178662188 -0.2488043673660554
P 1.9805279796678936 6.631882684176956 8.363126066686078 -0.1322698879117206 -0.6891991147810195 -0.2109523295152883
P 7.226320403253591 1.3441446175109355 2.7303454833733336 1.1155494682877753 0.9774555174951101 0.5564841689120803
P 6.634169776224241 6.8504405746135815 3.8620792389911247 -0.664188708779611 0.6762302133251773 -1.4621169480379335
P 7.925280103556747 7.072410356465008 11.344237133052081 0.23442752981909304 -0.25287416656005485 1.5238285661151176
