# total energy = -340886.3016661373 ev
CRYSTAL
PRIMVEC
9.10661617829626 0.00000000000000 0.00000000000000
0.00000000000000 9.10661617829626 0.00000000000000
0.00000000000000 0.00000000000000 13.32845328780704
PRIMCOORD
 96 1
Ni 5.508118395936257 3.2325936487221334 9.538920585616461 -0.69074383356032 0.21083611565239815 0.4891744879218285
Ni 4.582594811803063 0.4925750311028769 6.450197807721706 -0.5332822768743203 -0.054465220927415875 -0.039236834013435654
Ni 3.601047326835611 2.7439053212727122 2.8893024609199585 -1.273796496989548 0.729745411634498 0.8665574103909464
Ni 5.121169180990142 4.560356455847722 3.6173017255025597 -0.6433316628249437 0.3506632470860864 -0.8055093940396902
Ni 4.9971006463727905 4.765291739393587 12.131290908145322 0.823462121863369 0.5483486842891394 0.27171983851164816
Ni 6.144889404053084 5.633152231835862 5.407446578812952 -1.209500920235272 3.091956982588875 -0.4606943782042646
Ni 3.652791118210816 2.9464000317653296 7.768915013303298 -0.6029923397759486 -0.16799716611000098 -0.4903854775107942
Ni 5.469579197573028 8.326269956399754 12.906980609379247 2.055983928473846 -0.6529267627125466 1.2688712917737888
Ni 2.4003035978693594 5.299749918207278 12.10599363991914 0.39474583922759754 -0.4358258970973591 0.8566494072486149
Ni 8.002848493765049 7.604197277425563 9.358812668917869 0.0022669416573057734 0.5204007929259619 1.0777871619373374
Ni 7.987786151115525 -0.16824837085066116 7.192765836373658 0.25895636819839274 0.8962503094696888 0.6009951068402617
Ni 8.576028003259374 2.9429941574298266 1.7154915483902033 -0.4571223445822901 -1.1738795714872363 1.2787024189315979
Ni 1.5171166709173223 1.2775580338324695 3.2650177545284365 -0.5637891872139258 0.7563956672321747 -2.253883281459918
Ni 1.7404746383688614 7.014143208723519 0.7635405650013178 0.7335069355594592 -0.7390561475124626 -0.5505611185594259
Ni 7.560130363229045 3.98449960128752 4.369786858837299 0.3186141890703416 -1.0213882143223183 -0.7397642293230808
Ni 7.510244321491387 4.305589770259421 -0.08257788205054886 -0.07787691498313684 0.1133861636333402 -0.9216152705970386
Ni 4.731324062197263 0.6137531258429858 11.00614301884184 -1.1043356018498272 -0.3557558311176454 -0.30342848246883874
Ni 0.1539300387177442 0.4203814231292633 0.6833486163087948 0.43819028356447765 0.19720386958094424 0.5136020248365735
Ni 3.7025678805580293 4.6248221895937744 9.815552255909418 -0.7147777345810723 -0.8005777610660276 0.6000350569198376
Ni 9.214984599185081 5.371418985106759 2.013809713716762 -0.7884064158108164 -1.183158168575685 -2.4353527710247413
Ni 6.2096738693545985 2.2011965484805045 7.5325354958187765 1.0568223867602122 -0.48748450181391517 0.1757644687602457
Ni 3.595310158837304 4.856139339315981 1.6316560426879618 -0.9429893653974405 0.22862275021185788 -0.24897174618185508
Ni 0.3117221932260945 0.10908633018748715 5.181383035786339 0.867894641145131 1.058225694865642 -0.07315945490280948
Ni 6.804490698156823 0.9695267520186189 1.1492776893750916 0.5603012286653254 -0.3111543903581867 -0.807524624697506
P 9.115995684674614 6.111258671643961 13.139468869902377 0.07641447150499743 -1.2400343129374385 -0.8231075667374276
P 4.000153873968613 6.298900491652073 13.302835183984955 -1.2373729640551916 0.822526754533293 0.055451496100085144
P 2.107361978552643 8.95522748809984 1.5235623336303408 0.5091319048803619 0.37412430632250404 1.0520936138259753
P 6.3185070356208906 8.209004063837538 5.954379910707406 0.40061155397975523 -0.6939222312883017 0.193156438984448
P 4.692885036608607 1.2725767149514 13.287534247999629 -0.14992102533458052 1.2376020493468622 -1.8820521420469654
P 4.0222556306859 6.481014595826897 8.775693288201081 -0.5690339805526329 0.8580619713254255 -0.7933308496956273
P 4.332053595978595 1.0637802262765155 4.359350677049903 0.12780182483803795 1.1068833079723452 -0.9777864184719678
P -0.04192048483588169 5.555864382944387 4.081199112568187 0.609043431066035 1.7394757300029138 2.1929918452911843
Ni 2.4495066434167434 1.638480540621186 5.348108780463481 0.8504263091570385 0.23347982119384306 0.3958881803621569
Ni 1.7456471961832078 6.526365542861131 5.498013694966541 0.43314886448582823 -0.08683695238990205 -0.002342789200563707
Ni 6.708871231518378 1.1799260050866809 9.806702446606632 1.0383790924533602 -1.7331629004110085 -0.24945434224522842
Ni 8.649226981625073 2.781970975610684 10.600904987243347 0.06612440243289902 -0.8513110257548371 1.4225193882509695
Ni 3.3416180539217017 4.380045461615224 5.720652239764323 0.6169601148099503 1.6080023698505599 -0.712645775839734
Ni 2.138497498213295 6.391696907370718 10.050386380680747 0.5555603715462303 -0.8155672924963244 -1.4528334658534785
Ni 1.2771118096548233 0.8960463792225278 11.719628159050313 0.26298528685212774 0.946677355771989 0.401756723327792
Ni 4.02529724038659 7.362307346677905 2.000107899478266 -1.3285849055843377 0.03963278390027368 -0.754808525250713
Ni 5.775288292339945 8.347306239060211 8.164917115086105 -0.5813863314703988 -0.08325103481085662 1.151534885243449
Ni 6.949959780069446 1.3041493521738277 5.4320371736476 -1.21125698369443 -0.9201222309912799 -0.8322228987751344
Ni 8.31922143571612 7.243438689722512 5.364515259615464 -0.7505484644227783 -1.302522404169331 -0.3436510774343114
Ni 5.18744713129439 4.891500328740465 7.810340098235833 -0.06323705358277497 -0.8656701226899864 -1.2837651781664858
Ni 0.7023140545203403 7.330825775614182 7.45211132842156 -0.6250552331132591 1.4111391714384858 -0.0682440198790631
Ni 6.202634455286835 2.4085632984637475 11.740168131145838 0.8985324206356461 -0.1736731334488557 2.013262992566552
Ni 0.3837864872543495 7.819186264892271 2.6897883458017 -0.2172661875484581 0.6781911937062901 0.6130152712295893
Ni 7.251279485986864 6.435736501719624 7.5230318314965015 -0.11449765152996409 -0.8651674720219551 -0.6427745047698931
Ni 1.9547077767183318 6.066108070158874 3.158496758031621 1.6630288625980842 -0.47870855539349816 0.11274235940175421
Ni 1.3687243653103247 1.034274790856652 7.446047232913508 -1.1009337752571298 1.8445011803763847 0.7336462893508009
Ni 1.0468237075259643 3.5999454263153017 4.283218457712373 -0.11647482986099295 -0.13652532075396484 -0.3796951155420622
Ni 0.6205448399590766 7.368354139615803 11.336915341807076 -0.18081745780312086 1.9282535803036922 1.4089501342069668
Ni 2.2221053385187783 5.420649350501754 7.981544476598003 0.47701137019673334 -1.0168620443171905 -2.5730736547487036
Ni 6.051510164918739 2.3056949655925205 3.267110454855438 1.0270256151137538 0.03581186749228671 -0.21960923385933795
Ni 4.186712006688157 6.900856907296637 6.615417318133896 0.00565796961672574 0.5723195932824401 -0.9226524536123014
Ni 7.92878438689167 7.577168841522429 0.8919711686205559 -0.44880276897300125 0.16428757846889772 -0.16914902032625706
P 0.25093280030689286 5.834754493973187 8.791740966687772 -1.2901422853374234 -1.3881208561664418 0.6564124072683017
P 8.415414619154397 1.5981746587791137 8.567102609044866 0.22493810227141905 1.374317374624446 -1.2231197965702871
P 1.6900786261424654 3.2293790133199076 11.24081686717385 0.5369635823806495 -0.2655566471237298 -1.1847630511689597
P 3.83189093253256 6.2681110233944946 4.4091857217386865 -0.6735783775246271 -0.6893168713058064 -0.40089231844496764
P 6.721055883552877 4.347498416494671 10.920721140654988 1.922414605024412 0.9736975931145746 -0.18594603727893783
P 6.281452215644525 8.132690622844187 10.792968069256503 0.2961859419738125 0.15160869744964856 -0.6811626176297882
P 2.1788306999029787 8.64304358944912 6.309782897617116 0.7471139848199327 -1.191611955769993 -1.9725606297511833
P 6.754477163796982 4.344547872952685 2.058459451328981 0.18901053513687446 -0.42535559369365455 0.6588557266024717
Ni 2.2458098596292424 1.8731398183678025 0.5214766978905375 1.3039195416271736 -0.7338314087784137 0.38392072358763557
Ni 0.9213618606804531 3.3600589510591163 8.611206860366453 0.5557943419339073 -0.017142316107241446 -0.0037262998116516476
Ni 0.6136229012360401 0.24889565033670044 9.564537496059693 -0.21015477331465746 -1.166750416641623 0.1393026263887859
Ni 2.649078130214985 1.6515940674744585 9.659276352943477 0.23081590120843476 -0.2307919899490348 0.43787275232405876
Ni 5.229874854634249 3.316456474271985 0.7801756202116462 0.05648148002649628 -0.946029694885661 0.1364399601290102
Ni 4.318093153849381 6.91371544890554 11.183171988714673 -1.1105409593295907 1.3494509504000693 0.7609786586171668
Ni 7.524723840725209 6.557583022064616 11.648307875538663 -1.7263422779447493 -0.9768945027853175 0.8309656293292658
Ni 7.680119133936489 4.011573570270006 8.741665507340013 -0.15757545655604474 1.000553279854838 -0.6453103838178692
Ni 3.2359630965941544 8.664289324274597 12.622391578138794 -1.6733528702319118 0.37203734188648835 1.3284949169736926
Ni 9.352676631144442 5.2040029589466466 10.90640645116842 -0.7313379529325986 -2.637636112011122 -0.22686900074554475
Ni 8.482229859794995 2.5896847815087045 6.337626375640644 1.7849019806565132 0.27781283878326346 1.1813095454027205
Ni 3.8139873257314947 2.9693213839109456 11.613241029806792 -1.1464394729984126 -1.6042025364884953 0.24664386937962682
Ni 0.7913776683937369 3.669337839247202 13.137669402606399 -0.6930863656505677 0.44508881045652376 -0.06071197316807609
Ni 2.8768619129795034 8.33670613818715 8.309063916374356 0.7722411189048636 0.22471878717176136 1.3109692493851035
Ni 5.075991259657444 8.060675504541633 4.052969514031756 0.8989764501516002 0.39219710466381486 0.9743527102000703
Ni 2.4595967738010667 8.342589012039381 3.9413296887542284 1.15825112092136 0.012742387267332893 0.42532808288982876
Ni 5.153688906263084 2.9473653330475846 5.529921455652995 -0.3009198571143721 -0.3624597255003822 -0.5253535089455469
Ni 5.800231313208773 6.085587121505506 9.747843656251941 2.994842816642681 -0.09223215526354439 0.04635339045355888
Ni 7.5560597059350085 9.006934853011563 3.6888360144871615 -1.1866813512375949 -1.1975977410397824 -1.6581548223352345
Ni 4.64661432137147 0.9254416245903602 2.0120102464207847 -1.0209138457890612 -2.1122476360625813 0.5063065196164248
Ni 5.951346496960999 6.004966251205491 0.8439574471058378 -0.0018792193005838607 0.2051804600285176 0.3445890158675485
Ni 8.147252101620843 -0.11140669591124677 11.83578577646111 -1.4154879353254848 0.16876181219016742 -0.20948397249987794
Ni -0.001822233835652668 4.963151182408207 6.473110053251451 -0.02941701970953644 0.12211711574843484 0.02163737576411757
Ni 7.164156491955435 6.391678694138978 3.171518308064603 -0.26216587627462595 -0.39368988715925746 -0.25043084722588477
P 8.60254646867377 1.7574402637352828 3.8296242958424354 -0.8586664376786437 1.0958131662011128 0.5377891636057383
P 1.6573585553203762 3.521847088611367 1.917164842131317 0.9913484734271185 0.46158038035364374 0.33364151571710926
P 4.7271805519762635 1.2815922646630247 8.825327987340717 -1.2888953003041996 -0.892033957395496 -0.35140166791400773
P 8.228829166587243 1.8473407756071627 12.731364986289488 -0.1387444398924707 1.1602465540848341 0.6802514186694284
P 6.052566532359696 8.00178301970822 1.976662916920106 1.2535266909969187 0.9701052477776261 0.27061272149039844
P 1.7009337122598966 3.403060391198806 6.50753670388764 -1.088401190007758 -0.7022117249906035 0.9627842886361806
P 6.772526476451972 4.12020639098715 6.511855971794937 1.8688729243525297 -1.419241745940962 1.5197795928567244
P 2.4433596777042714 8.297438410554294 10.646395265500397 0.3876693919967904 3.0309264497391153 0.35071338359773147
