# total energy = -340858.43213481613 ev
CRYSTAL
PRIMVEC
9.39762865771104 0.00000000000000 0.00000000000000

0.00000000000000 9.39762865771104 0.00000000000000

0.00000000000000 0.00000000000000 13.75437946741803

PRIMCOORD
 96 1
Ni 1.2643569261773833 6.810592874964443 13.409598146295144 1.0548794041012284 0.16943466988747594 0.5239157480577558
Ni 6.9791675333691545 7.04497912511897 0.5439554071085516 -2.54996432242475 2.731563652699218 -0.5351283289441235
Ni 3.8370422818589227 2.4622256313594866 11.506404537301131 0.20212933190701962 0.28586887631852054 0.6027552840644781
Ni 7.223562257779508 8.043862446364104 4.542961115786295 -0.6204275045332605 1.5568194192188414 1.6455595021687275
Ni 6.866583945026617 1.4993070340364643 8.902177921389704 1.552447772513707 -0.6667803807661872 0.5607835676183826
Ni 0.21191276157670227 3.929345788094349 12.825174671730778 0.4399170364475973 0.20584920396076806 -1.3071565605072326
Ni 4.5048565518754025 6.3185894372277795 10.012019041262578 -2.4089033185839615 0.14163873072113026 0.6282801678084599
Ni 8.290531396849492 7.13395587089753 7.353173409036725 -0.3830288079009855 -0.5940893808593639 -0.32618943031443826
Ni 1.6222186160007426 1.9446418490929074 6.5682111225593465 -1.9539643548062349 -0.8038708299950026 -0.7520047372533307
Ni 6.373123874886523 6.229462329394672 6.351469859505983 -0.8950028102158328 -0.42915645549698345 0.7033486668085241
Ni 5.416191566860178 4.7778294642782155 11.42797756917477 0.08207886887962638 -1.181264808207714 1.3849393731146666
Ni 6.290161611289869 8.680796109427865 7.4315731240407 1.3638023340257353 0.1742097226786161 0.6098286459714917
Ni 7.3558056847541495 7.553061905063822 10.395408448896761 0.4798452401011027 0.13377963968802767 0.10243917770353325
Ni 4.231291588882809 7.4603636984352075 6.623325393890939 0.3489519208219345 0.9712401327130177 -0.9194899967239196
Ni 3.1443524894432193 5.5254014066038035 11.92988798678044 -0.8260275685977 -1.300035118971103 0.7797381986128572
Ni 0.22230183978310256 7.768192414607843 9.110831585434086 0.16317994722701576 0.527927183209994 -0.33898606785847424
Ni 7.013788396428747 2.016261175199625 4.749373445455077 -0.15900010481771326 -0.1979525748215107 -0.3323505648198276
Ni 2.267300022895303 4.176099317235419 5.673007136739008 0.5342808933421637 -0.4184514103746535 1.452100444342196
Ni 4.791831930607963 1.2664338020558223 8.220978609229961 -1.1069838381059516 -2.1945892716852917 -0.3279848316519642
Ni 3.1892355627256865 0.3408153316518627 2.8706493813130094 -0.0930327967879688 0.5591195496523984 0.6336470885473281
Ni 3.5441839877421857 4.153638985337366 9.765210066113895 -0.8104610816180107 0.06608917831958941 -0.5037729545612938
Ni 3.238883233611632 6.142966557516148 4.707408335793675 0.8341710236404408 1.0870446759798635 -0.18069070241726948
Ni 8.98095636081857 2.4476687049535943 7.9196887629044666 0.1363224607145394 0.3858264252507807 0.7695568872044811
Ni 4.468064836653279 7.38179952493407 1.9997767952070007 0.20679459859317287 -0.1529217598341173 0.8842244886534063
P 5.588844795994495 4.154005492845327 5.8693376906503705 0.07523870602934139 0.9048894732019254 -1.1352891128085483
P 5.84415016698796 6.708421858899329 12.504890338864554 0.05230832248541314 0.21545201715785475 -1.6419956960768691
P 5.562230712339564 6.553755690540273 4.399916054718089 -0.38697905079798517 -0.37161876629183094 -0.9460070691778416
P 9.172837137678165 1.8551670290086584 12.141801688119982 0.04496448052583224 0.14214960891927778 -1.248067210544244
P -0.2235442062588024 7.560335669452564 5.359063383760488 0.7612213707555923 0.9252531244599419 0.15459966175717246
P 5.8333616895741685 0.7480333658804815 6.0998474190860925 -0.18517650610276495 1.1761678533007809 -0.5462452647928915
P 7.301891490570416 4.649674005661589 1.5432409468496 -0.4055509002629015 -0.7761756780725793 1.5095144634852908
P 3.6144406577295656 2.5491818870300627 3.571200289893031 -0.1891437182806291 -0.6161903265234613 2.8196272784073697
Ni 2.9407434723289096 7.84868310193287 8.520824040068959 1.5675969694503198 2.742424506673122 0.1587172834699718
Ni 0.9165882892655337 2.2673094205237123 10.133841438094228 -2.533427244001676 2.250900030461878 1.2253972797505541
Ni 8.625491066239565 9.234090879649505 2.8123991213812576 -0.5363771137495601 1.0530181825227736 -0.36073271550694647
Ni 0.7538815100395433 5.901494495541064 6.352294971280313 0.26878029626735006 -0.28460517911474853 0.6585775332404206
Ni 6.3814877641707355 4.2287730244691355 3.8625324091561097 1.4879362230938826 1.2693595442641172 0.4843708958855981
Ni 2.0128216432018484 2.543242585875431 13.572752252633412 -0.28329417361280884 0.28993918973315225 -0.4164485210120118
Ni 3.6531682844039897 2.769828804450301 6.929030246043089 -0.10636190979670715 1.2058993189269427 -0.2850561506092381
Ni 5.127167505134406 8.58907525615381 10.074160859118592 0.3758150637613657 1.5727867411813752 0.09907154678288098
Ni 0.9552407349126839 1.7273780778999914 3.6733271371046223 1.4591005298091129 1.1929455869797518 -1.457570980538464
Ni 3.787169067891156 5.255510916319218 7.334797286445323 0.10146807203951555 -0.0734787859154412 0.24814230830202427
Ni 5.422149663271628 0.3147961178752362 3.870427356782701 0.295425152548388 -0.7304486083491097 -0.30438390440357255
Ni 1.5147379398844147 0.32944796032806184 12.785919838102599 1.3537832592268362 0.27663193110128487 1.508005483039932
Ni 2.7042803462959433 1.9630330078897642 8.990357748279163 1.046096515702276 -0.674380047490316 -1.373069618260274
Ni 8.959106874767118 9.407307966488377 7.377614761003442 0.5693810794794065 0.4033538926115828 0.4029905957348931
Ni 4.340322873686659 0.20450930991591335 0.31959642646666936 -0.18319521400667804 0.03182228671691939 -0.6030656162160453
Ni 1.3509748672252273 8.055506107963136 3.6691320357827433 -1.6631412198062325 2.289764825847876 2.3364077225173956
Ni 5.153706407762063 5.340869575160225 0.3946101759548 -0.131358946061677 -0.4583739576012041 -1.004541832188941
Ni 1.8171818149785635 7.217773318679425 10.616592910662009 -0.19717635877711848 -0.6815336278159617 2.0292316000806663
Ni -0.00807538209204865 4.895948255753789 2.692102899403267 -0.3161857821345071 1.21700699880433 -2.29470494346197
Ni 6.290415347256918 1.618412576495006 0.5946800462101945 0.48206538768087304 -0.08850225590746694 0.2121358083004282
Ni 9.423847792488615 9.251269744381572 11.18096184620108 -3.9472886994673306 -1.4744279041948025 -0.5027221446992761
Ni 8.944352598164633 8.547396774158889 -0.24374440852443552 -0.17430922437095786 0.7701407847324091 1.335361562186539
Ni 9.353722689298964 9.811875869505592 5.051034498102736 -1.2101958894197675 -1.3228045514571347 1.341857711433844
Ni 6.768961381111569 2.176424956178079 11.697521286971055 -0.5154442202516348 -0.5033142697573202 0.6049723463204549
P 1.1768462104306627 1.144800297555199 1.529445228344855 1.4780426181292545 -0.45426019254314665 0.45711694526565144
P -0.18007359652624164 7.574178376099354 1.6678422224018572 0.8881593049314381 -1.5213309965042445 0.13558249722472135
P 5.950258789356542 8.840057718079033 1.7421295352139547 1.0800625882350754 1.7925540978851322 -0.6493177052050495
P 5.536124100618732 3.1316938839759905 9.901750088797233 0.5099939957703411 -0.2999088993513545 0.06866002437055918
P 4.682030040274557 3.062386374457942 13.761806222867513 1.1555157242680683 0.5942351624086089 -1.9488506877287533
P 5.746959893979737 7.069140427759093 8.62942867254303 0.8781026920263844 -0.4701251845998613 -1.8667350520739208
P 3.963759903328938 0.31766051501436854 11.49850958967454 -0.46417822298780703 0.5139673785957923 0.7905100924173805
P 1.4756532033304404 4.430305165705006 10.89436237260489 -0.1635517287441377 -0.4138954155728549 0.018602702702851834
Ni 3.3612215602429476 7.800257122740125 12.316688733527172 0.9492942245695456 1.0747627732887168 0.5599150489705003
Ni 6.59901466895911 5.217478714147076 9.328150802634616 0.19705680248011867 0.21435132789450825 -0.984313678067524
Ni 8.975938027248043 2.000990029034632 0.4843697441798487 -0.8360962656876116 -0.11177845282658813 -0.38990548041616074
Ni 4.600092118174508 4.877228179962608 2.5632661127269714 -1.6102016914947237 0.32254592002458 0.7352547714885016
Ni 7.745732082709791 5.399999453111081 11.554105019580685 0.6511635001645367 0.5836339898539948 0.2658505242150647
Ni 8.380917786889436 2.6407993663916156 2.616069507232735 -1.0607461472946507 0.5646875306584791 0.5973716511550615
Ni 3.506546485963232 2.4156603825917675 1.5514253414311958 -1.1891915192539584 -0.539617989284361 -0.8146342391590938
Ni 8.582948002430994 5.744892415729707 0.19068821781446338 2.4272267994834973 -1.1041381411270403 0.1787279222639438
Ni 6.97897958080097 3.860320207428577 13.281860882142727 -0.0067812845878915465 -0.10457962108530376 0.9128074424974216
Ni 2.199449145780685 6.666630605363497 2.3753267012222063 0.37426186034163283 -3.182127370227384 -0.4366108548924997
Ni 7.935780322029586 4.341553963008267 6.708753595182175 -0.10432636742391711 0.012164146166359696 0.2120915853260541
Ni 6.805630927164372 9.223997826737996 12.819493805357402 -0.9397376912293623 -0.5146551486914362 -0.5495874417922471
Ni 5.567399407964639 2.488257062053045 2.737492504856992 0.5294032535348883 -0.6103001862912715 -0.40505082069803144
Ni 8.127031457785762 5.782746062962073 4.584706320942922 -0.2666498801879085 0.6353597003630607 1.4732248850256369
Ni 9.331328140799776 5.1787416898442435 8.791427810349806 -0.6174617370367173 0.3650891927034293 0.5837599739088979
Ni 5.643585981478241 3.2920550151510377 7.663004759823367 2.1642991053421827 0.46730648420414356 2.1326480540958044
Ni 7.825734093357539 3.414487318066446 10.03804201409057 1.0386099775172437 -0.07556652168240532 -0.2416433308412419
Ni 1.9473859565884015 0.3431017746438275 10.522347854397236 3.9109153030446193 -0.9701384150084066 -1.6097815732381697
Ni 7.293001334095287 6.766226671244484 2.712033389733555 -0.3992732947843059 -0.8415369770872088 -0.5594213971635333
Ni 0.21864804185759518 4.170827247697843 4.697175258218866 0.34701793702401523 -2.0671057494186207 1.0412965232104712
Ni 3.7183408374219784 0.9092506210036094 5.6046064983624495 -0.48426496643535305 -0.30516089177891315 -0.7229569279577549
Ni 2.319541439222195 8.561596590685232 1.0858433359670734 -1.0439846115655957 0.7916310933957011 -0.8388267772448973
Ni 1.5886596849513936 4.880761688244477 0.9814742146170408 0.8565141672223313 -1.5409634260231913 -0.6238193038236288
Ni 1.6723173730503311 3.9065283463167457 7.990908689803793 0.5364563037269278 0.35337781780377203 0.3616372295990869
P 2.0149924953643796 6.155719139267468 8.785609738601654 -1.4921644022426173 -3.610348201283976 -0.9194696850089454
P 7.322058801136616 0.36689187096178544 10.717893706336428 -0.545290614189106 -0.9717777503840425 -0.7942497619654708
P 3.2857867970020838 8.37998742167692 4.638252128093014 -0.1398618413263656 -0.29743472677924904 -0.004825189302785238
P 3.25689848727212 6.5623639181631255 0.41076939800446566 0.4702555395301385 -0.9904362460254942 -0.22939845203561784
P 8.813866527702517 2.4972223995554472 5.750513137281266 0.8728481284956645 -0.8844859698449089 0.6428994603835314
P 1.9049744595775608 0.1666481445808201 7.725793134513935 -0.5809674987654253 0.35996369855140586 0.5056673433705291
P 9.179415477564623 7.074064785045528 12.058216361759797 -1.3764555040133715 -0.38225490584943844 -3.4788840971030024
P 2.3202368637244777 4.500373883124201 3.645639844285358 -0.5625946526851924 0.6869455428601525 -2.3717863591270056
