# total energy = -340869.983082636 ev
CRYSTAL
PRIMVEC
9.25001927265449 0.00000000000000 0.00000000000000
0.00000000000000 9.25001927265449 0.00000000000000
0.00000000000000 0.00000000000000 13.53833821180261
PRIMCOORD
 96 1
Ni 2.469477623034571 5.8335893520249975 6.117541816096255 -2.443072251156186 2.6332408111569037 1.0662369952058928
Ni 2.8867274886368617 0.2592817378908051 3.1027570617992426 -0.35149936983413654 -1.4842767719644243 -0.22069269673150382
Ni 7.831778497351918 4.919308205310534 4.013697101582439 -0.09555582032013867 -1.065635614176468 0.8316549420868063
Ni 4.005221308999053 2.088173332002878 0.6024491248058962 -2.2835494410657833 0.3397836240591051 -1.4196616070872004
Ni 4.727046556455706 0.4567021224476465 4.674733997931117 -0.028754703535189184 -1.2586910088066774 0.14150631890832405
Ni 1.422171950355168 6.4950027241546895 1.6247899206946184 0.5089475567836976 -0.9468380497195694 -1.3464779838146745
Ni 7.674842671781986 8.878307168419399 6.0270109532861955 -0.49428738366836167 -0.5203002627923555 -1.4317851298236115
Ni 6.721600444241133 3.199091386648827 8.00528665730185 -0.3243071256900608 1.690135231896573 0.6618716306106601
Ni 1.0628734549754182 1.145503876395682 7.262329741006665 1.0195771292555085 0.2886312695550061 -0.1237392247328901
Ni 4.604696552635509 2.8801229749355213 5.134130650968679 0.057682442313132916 -1.6956067965341057 -0.4034461952150729
Ni 4.281463882075819 6.816413140934037 7.676684350602626 -0.44328878113330755 1.1307614001415234 -0.7861777835906137
Ni 0.29101115371480474 5.650771972762701 12.804005137443959 0.8737822102741598 -0.2138841584501026 0.8025107164226823
Ni 3.6394940502825643 5.638450947202219 9.729407909063466 3.631752892211997 2.7868595970580454 0.07529681296078646
Ni 1.7074702922185059 3.430277116253288 6.173170506500298 0.6660738416174657 -0.13472991941643891 -0.43150644378639885
Ni 3.523378559396124 1.8831836567432265 7.354755932748664 -0.4593900575705443 0.16630512311955875 -1.1119468385381817
Ni 9.22231538207882 3.458804175433865 8.04848794692473 -1.0100882159284668 0.6610815306091969 0.17745754019195245
Ni 4.651372149465986 3.6651536035143804 12.438429579042177 -0.38235106510767053 0.4109106219129181 0.6908911577714617
Ni 5.033397941994464 1.1448286249948447 2.250626794019377 1.8299068275019776 -0.6876001457250158 1.6554690479729552
Ni 3.5383080903680604 5.9653188753034 3.04983585201198 -1.1369996677417513 -1.0833160621753666 1.1967629038433132
Ni 3.597878213948772 7.414556381807196 1.3298095837455772 0.49207160696396546 2.703508289223899 0.11797121190086134
Ni 1.0680164656448088 5.6002021178534225 3.798573105298715 0.24854031507139132 -1.2292706466630314 -0.21162313033006777
Ni 9.131054692754704 8.135299377018672 11.594977679265948 0.4447316842274212 -1.5506927374958133 0.5807319857158515
Ni 5.944478582069341 6.176265562921123 3.3051280566263315 -0.012067472687495346 0.5374590339598293 0.21723019210420008
Ni 7.271005334004546 3.8981338368416147 13.10848246909491 -0.08790190331930667 -0.7182458956353307 -0.9966536876901158
P 8.551281989991994 7.331639209792056 0.3750096529732032 0.49984353759990047 0.5501646544519557 -0.860708664919653
P 3.9119441154916155 8.100639555115423 10.853387915806982 1.9202273675651056 0.6194502282216557 0.18402979409283143
P 2.588849120675733 9.607624931419588 0.8221953556786391 0.8017686960503353 -1.797584461220188 -0.9577719230232538
P 5.303063751427459 5.477028862325355 13.596147180775745 1.2593777504610568 -0.08584347812838118 -0.0053543223333778756
P 8.046563942933304 3.7705113220833724 10.289380945750944 -1.1364311968327911 -2.80105234361866 -0.4035531531065824
P 8.72006709014374 -0.07464395485200499 7.839482838334896 -0.2667452681151922 -0.328832267253924 0.7408937149418338
P -0.06205837874270119 2.8151693401864906 13.402941104961661 0.401662878062405 -0.6849138571421043 -0.16798893857988487
P 1.0479716740610507 0.3422155599404862 10.73797357637511 0.09906383347339713 1.0442962292687434 -0.5575105532940656
Ni 1.7639509093899075 5.599711866836377 8.703405030577601 -1.434513327388052 -1.357066043743166 -2.3727345819728876
Ni 0.250951170608695 5.478656865702715 6.0641738303821375 -1.3989552277777841 0.0021432715952479217 -0.3832342390435723
Ni 7.344635486753376 8.501942387634926 3.609807963697537 -0.39192636750093146 0.7664587078951316 -0.32744387154682963
Ni 7.209344706086996 6.01028321858381 12.166403164712008 -0.2555504278406373 1.9246674056143305 0.3010952063499718
Ni 3.163978313805289 5.544498502293943 0.07391690334370625 -0.22041424625913653 -0.07489006444067102 -0.6186071634950702
Ni 2.737922429934546 1.5729102630680998 9.726578328193382 -0.2370739663030046 -2.588201254418762 -0.23805612771061585
Ni 6.183887578733313 7.235827511026682 1.1085121246547465 0.2597642088116688 -1.0197326809967666 0.05039516462310031
Ni 5.934636561651658 4.759930374674561 10.652492299040626 0.2993473704209296 0.16252971523752655 -1.3702380623487498
Ni 8.291633951341282 1.5982460656282813 11.589778243479502 0.45533594210582873 0.9697008132503557 1.5797189495248343
Ni 3.119143470793533 8.97066861002707 6.288314745371836 -0.1456105708846847 0.27913515713911285 -0.07245368708503652
Ni 2.079940814924177 3.5358660853020187 13.248833935259896 -1.2976311375153007 0.4584624035499523 0.5420325122631245
Ni 0.3983678014306587 0.40926709904170727 13.394086986593424 -0.7894646818720016 -0.18287691143531085 -0.4936332950241305
Ni 5.58417183459793 4.864649841919475 6.157520399033497 4.174131989181263 -0.3996445620807956 0.3836898385237521
Ni 0.640322403375596 7.546868656294541 9.197392130374492 -2.7757346907894775 1.7114399069116204 -1.3347552960611078
Ni 7.889739117593647 1.774061180364087 6.660036941525073 2.1070748336123906 1.1178531767202877 -0.00248265721253766
Ni 4.640022375920406 4.105833767723805 1.7791949410142882 -0.9127385369326989 -0.05772435129466188 0.03927334367832591
Ni 3.8656662694862884 8.927942771390532 8.745374217644434 0.22738090738495678 -0.032276086424886344 0.4425321054729411
Ni 7.08632870088515 7.799893681205534 7.965632750038161 0.03551593351842271 -0.8677853692607765 0.7910924472834118
Ni 6.7026841549985 1.6504254238765415 4.668831560686263 0.8385786657898332 0.2522815272813784 -1.018758490008955
Ni 6.916304098162003 4.670593689341874 1.816290292970147 0.03795205376374109 -0.3529980658668502 -0.9242611928603178
Ni 5.789013509550548 7.330825208103375 9.802853061428506 -2.0420367222651348 -1.7696121443769783 1.416645960189328
Ni 8.731564863996352 1.4013131570827293 9.425201602974767 0.28829702614403896 0.36262324766144 -1.435657211184508
Ni 2.0396292312961117 7.594885505907503 4.547270583502934 -0.6291327456167424 0.6715901434500047 -0.2682395932725316
Ni 5.70649408836056 1.0598486987004347 7.10819574624925 0.10082658180077475 -1.188852647857301 -1.5047252696267635
P 5.584828585960388 8.173363205983676 6.387712676576999 -0.8708642652964164 1.059205542280408 -0.20014161205302952
P 7.822519228143176 7.114485759298145 10.270575656738584 -0.33755396339763805 0.20042443340077096 -0.6280731940039763
P 9.005837182985745 7.350832999610376 4.3502608997981085 0.8468447624533673 -0.2546384575493292 1.0200144739032433
P 2.0454474933663396 4.367072809675119 2.0005599252452027 0.7289972206145638 0.3967235317792587 -0.15582993461984773
P 5.7616519527878545 1.2851884161770997 13.319220106278951 1.438866462150425 -0.6316172026014929 -0.5181459354535142
P 7.925296191358283 3.927289897327081 5.9288441996351615 0.1772690783302302 -0.27155014570300334 1.3988541834235457
P 3.794672372206481 4.735797074609022 5.201063789824274 -0.5399288356565605 -0.4788340252277689 -3.1548430805901346
P 2.4638906114440817 5.005259383619848 11.41179029923607 -0.3983703233540623 0.3937125128670768 1.770969429735821
Ni 0.38106564053660263 3.1332867501343573 4.0953747710261785 0.483854875481128 -1.034320349002954 1.2529206819818035
Ni 0.356184013918628 0.40506481532389405 5.029059682994563 0.9921442298555365 0.05978534758874865 -1.263584589453553
Ni 6.936876140839566 6.674739847026865 5.548782186180625 1.3235278027764046 -0.28413929522192355 -0.28825717404503903
Ni 6.194488100724539 0.2605036654257449 9.462025929368371 0.5272507259682597 1.9194627214849391 0.6329438918327164
Ni 1.814613264491081 7.719548014525088 12.953942398495073 1.1887495466205333 0.42784879242915347 1.6448802167135157
Ni 1.1790629460153748 1.5855457892810272 1.6617224723127408 -1.5020240686455164 1.5518227373351983 1.067981231590509
Ni 3.7683560676122068 4.462801258267787 7.388697028160887 -0.8463757932367488 -1.751702353976093 2.685822956128994
Ni 4.463920510589723 0.9074315075045994 11.48273054640458 -0.3633187310665678 -0.78247153838362 0.20843084864501524
Ni 7.089297957044996 8.817590042459182 12.293298627961953 -1.5768925358196326 0.44715392051566866 0.2813861579568186
Ni 1.4850720808441185 3.4159858366054308 10.360483993257187 -3.3930956405822728 0.2058582028218326 0.816638156963
Ni 7.538377138678532 9.129935440432767 1.1695881513595172 0.13566605807746313 -0.36487784802357154 0.2147681037169527
Ni 9.131480193637424 3.708452943340671 1.9717100403949106 0.39064492968534653 1.4590192829492163 -1.1235124318885943
Ni 2.1284016654582376 7.133587048924569 10.710829395063369 -0.7174609378401902 -0.7247037354455326 1.1227598699932857
Ni 6.072471097595165 2.366672909761895 10.978874601134356 1.1434953027684243 0.7032239683052018 -0.9073232794543987
Ni 8.461260803239279 6.43269459489387 2.348048921125652 -1.1786358552252991 0.039451006906770766 -0.18416014902310865
Ni 2.8428083975248706 2.565039571281828 3.0013685264644874 0.8704572596659848 1.5490791131517903 0.2932201744772692
Ni 3.676901127885111 3.5767604201390264 10.179218767214897 3.0568290285374906 -2.1517886315799974 0.45849428522915225
Ni 4.455789743722108 6.817264142699475 5.117234565917044 -0.22851167855529034 1.4258451101900926 -0.34679193705613826
Ni 2.222363360385702 1.547269209874663 12.12692593281484 0.18008803583626404 -0.7548792305876484 0.2416140202652033
Ni 4.823209755950283 8.076450754934745 12.93546271015819 -0.6350383124678999 0.14994493659398045 -1.416491951109967
Ni 0.48214430022850796 8.424371726711348 2.364159679548094 -0.12179958450801605 2.0319592834244746 0.8492122342442794
Ni 7.523632608090388 2.131731672366476 1.2159150224665483 -0.6571793673413133 0.192110771328753 0.4903754502084652
Ni 8.02601965031331 5.53485998229843 7.929864775836004 -0.6038767992634309 -0.10394173039098872 0.5340476942854351
Ni 9.18416830294111 5.427467259507738 10.401708553779262 0.9571923963707 0.9868145901125069 -0.07269228545840385
P 6.055922813265057 3.340181929347056 3.3404770049592027 -0.39725883545743845 -0.08263936936878671 -0.0665828301265563
P 5.783121247326804 5.503992668262898 8.370131464187654 0.17418504008826774 -1.0480613527381304 0.8528529163206602
P 1.9550008057309047 2.9592291390445657 8.309737163897154 0.7084379084059735 1.3900293860430641 -0.19302814093669982
P 1.9739263449927271 7.638369846117585 7.4916423417252425 0.5779557085222949 -0.8346718745362592 0.05192085723900736
P 8.525687186894505 1.3445272892780726 3.3355217696793598 -0.20638167942547037 -0.22776194487345935 -1.187731389768664
P 5.0673455124201165 2.1196326472665428 8.817046141330836 -0.45019579266578597 -0.24934147081644797 2.430379743290182
P 5.2108688101651985 8.214858792068004 2.949598019064405 -1.1500657568970905 0.013466924138183258 -0.027767914141887663
P 2.376413179968493 1.5945923080484086 4.946691962119283 0.18022764673792188 -0.6335000214465025 0.5293598018914626
