# total energy = -340894.22442789975 ev
CRYSTAL
PRIMVEC
9.04218430712262 0.00000000000000 0.00000000000000
0.00000000000000 9.04218430712262 0.00000000000000
0.00000000000000 0.00000000000000 13.23415073147624
PRIMCOORD
 96 1
Ni 6.404859455756977 1.7926311241816781 11.23133420663434 0.6483491706441931 0.15997866668089866 1.2899970180088105
Ni 4.771262269251122 0.3602333892344022 6.120357977007569 -0.6533283690263394 -0.5094553496580517 -0.006876415404859126
Ni 2.7715379977764383 1.4296778459062882 4.820605469040579 0.5438783072226117 1.1082555057295238 0.03144999097916519
Ni 3.2111057037256545 4.378994229436898 4.733472268356843 0.35175905125342644 -0.033591205691884084 0.22945835873927578
Ni 5.088615812042137 4.551907920031324 2.84640095434907 -0.2643096620905061 -0.6758201223709522 -0.4839281519212247
Ni 7.189657758730467 6.108447611832075 2.485982200336276 -0.22232920389366226 0.33089017822421724 0.7496449787719025
Ni 5.221789102586231 4.66925738802978 11.532410913445696 -0.9145102841211412 -0.7789429564050714 0.3012510152015457
Ni 5.644574514452759 7.967864309340659 12.248034697997104 0.008898330930894354 -0.2533220527307508 1.3070732567648071
Ni 1.9042297629578329 6.470939738707563 0.27727134817369714 -0.3739790389938914 -0.04222831254159178 1.0269297129658377
Ni 2.527959636785346 1.6185600339953419 0.4762310506782446 0.8322547804543344 -0.12361555467083227 -0.8363112099118952
Ni 0.6767261160789347 0.06359368226484344 4.601673389828142 -0.21264540094699505 -0.2341521646705193 0.6977112660170887
Ni 8.688354597488674 2.2877540105425527 1.4289969694276103 -0.28269330680401633 0.2261082113201203 0.3121851456155462
Ni 6.7328104385614145 0.5869905747502652 4.682203083308975 0.22171856689285682 0.5308294444584536 0.30127852600537147
Ni 0.7155261289608403 7.331611010241312 2.4987000325708135 0.5837867133817752 -0.11475296207387978 -0.10774079242210477
Ni 7.458906880982741 3.6421104611316015 3.776669014312262 0.8649481569222974 0.8096028473827734 0.534159537272951
Ni 7.430424000400591 3.804887863112507 12.67159321662229 0.15181541414381594 -0.46258568168970654 0.4104768768096092
Ni 7.978868647648112 8.891505352421738 6.856666662390636 -0.34588485186083656 0.506328888213928 -0.02397270876551355
Ni 6.6109308362227495 0.8897934345467423 0.43350311293129584 2.0517310667347632 -0.6079306576178304 -1.0320922310033838
Ni 2.0204489579173144 6.528366651271764 9.38378085494283 -0.6709175428630122 -0.21924902230644178 -1.5964673726277667
Ni 0.055573264780282634 5.125245700689212 1.6794537200246837 0.6391389648998348 -1.9976132018444368 -1.148587886799983
Ni 6.306887388738694 2.090028566196565 7.0036980046109845 0.28734391820215033 0.02059582187348066 0.44611159529408323
Ni 3.3328767998525763 4.373261484583221 0.5802568600932726 0.20015986688547466 -0.43605935326440387 -0.12457406192935966
Ni 6.170522207132537 5.834975789506194 4.682600035200263 -0.5158725660383051 -0.6752354535120758 0.4300789673112529
Ni 5.36859800707251 2.943936283865092 9.346605722581753 0.18955046680074453 -0.4284542872236363 -0.7402547958062542
P 0.14117110256787546 5.316126211511173 12.521716298999019 0.5729364009308326 0.5625429735116506 -0.4901782465959945
P 3.9247510583496417 6.201554983690612 12.648923556334193 1.1529104254347369 0.11013680345810709 0.3738473985120336
P 2.4213794103022366 8.37322543203836 1.39082990944753 -0.1547958369283786 0.38913106414398146 -0.4222160196234083
P 6.410393272555794 7.706210621910292 5.792362687500004 -1.0629801788314919 0.39381124322847016 0.8848472098390697
P 4.665143194167914 1.0730179279119068 12.631096889963493 -0.7645648333065284 -0.1265730946372594 -1.7708259621794211
P 3.998092215302598 6.10585250493459 8.271132841629194 -0.1180869115431192 1.049536137511444 0.04359871052655717
P 4.52082993255169 1.135743560482818 3.4980377216180716 0.9833896235913581 -0.0743547607624913 2.6274969666945913
P 0.03695088619014399 5.523481582149221 3.850144899811465 0.2118010506688288 -0.0009654492370628535 -0.23058938701992548
Ni 1.5874639621470843 1.0046590145147483 2.594595109852677 -1.466533074827758 0.6490803923832629 -0.3486091927705351
Ni 1.7693655839474334 6.634648485672583 4.7753583787443645 0.3727983884222289 -0.7995508624634101 -0.6422134900601004
Ni 6.007021430406687 5.462709061389656 9.342926457785284 0.009386840531538673 0.8183461407930422 0.07697471488384164
Ni 8.8334364447714 2.0731106393491996 10.10706608226162 -0.34431185094676187 1.4631183927192544 0.49943807463136564
Ni 2.3208031942021576 5.433475679509628 6.9120120641262615 -0.4280951041120046 -1.0385942937879598 0.9120371399903003
Ni 0.7770572889841637 9.107468882524614 8.71184257545699 -0.8837676036216457 -0.9891026148157352 1.019650405695605
Ni 1.4858026839295901 1.0955962621384552 11.452198600634208 0.15200516155711888 0.7371483889667886 0.301605570327487
Ni 4.155471433249364 6.826993830353055 1.6285417012571308 0.03862851100547541 0.8981909781358273 -0.4748261896199565
Ni 5.682922418119075 7.829907703295627 8.110522851227826 -0.012312498818765892 0.18107842477399136 0.06384769058358036
Ni 5.088371673065719 2.8595003667615653 4.90771244738981 0.16243304175866222 -0.5079162873057058 -0.21954264228746062
Ni 0.7919470538903941 7.4299538068163775 6.819584664527971 0.10789094484672387 0.051167266902434456 0.5698788450514314
Ni 5.137524986984628 4.590771228203413 7.247801716510593 -1.4509614456417461 -1.6861171118761156 -0.5713970814681708
Ni 8.121753244143072 7.411082768157665 8.991533612152523 0.2660395002974193 -0.5615268735423103 -0.2520370153707401
Ni 4.636578933926958 0.24961944432980157 10.397569762957195 -0.368665597200778 -0.06967406745737033 -0.6008197576046621
Ni 8.175364354927696 7.347452917155575 4.631225056595945 0.23582055351187772 -0.22412897610656238 0.007376237859413102
Ni 6.931250215468033 5.86284380155514 7.114692625475112 1.6921072680212792 2.2517405240853026 -0.3095479651030153
Ni 2.3497381839998965 5.361527018940688 2.577364323428123 -0.5407922120981202 -0.42452667003445593 0.49561355867895285
Ni 2.5058786226959464 5.055087392614007 11.522551315672116 -1.1642389630736787 -0.6344608426978751 -0.030456259607328198
Ni 1.0140990549362607 3.298200023016849 4.033014939551607 -0.4648181705646511 0.3463121692062423 -0.9955655968322595
Ni 3.325679221140389 2.759593272300559 2.656372217289281 2.139763582094663 0.3624494410877371 0.9746836111769278
Ni 1.16963366728342 3.3742628774476553 8.398140266691076 0.20686710370232114 0.6958117350015306 -1.5550289029773219
Ni 3.5448617688582624 2.8798091127258534 7.276082956382589 0.08366318264761076 -0.6394901775916664 -0.7239763703612049
Ni 4.183484120247299 6.743724355025749 6.0180311940247275 0.2934590299609527 0.6680489630659656 -0.2500698643420403
Ni 1.0023622996995527 7.214975874803488 11.413475446318953 -1.0670664330857236 -0.05698953001116636 0.14472893961067976
P 0.1780234289490209 5.71929912560542 8.183336848835404 0.44465069447784067 -0.20638862140400585 -0.770720311384963
P 8.6667528191678 1.7749265272991863 7.911759364122843 -1.1043893379058978 -0.22280048710312594 -0.1723821825515741
P 1.7466516169562083 3.22580829541663 10.488236649269979 0.8345895992350981 -0.9846489499197557 0.5127810715971749
P 4.004159520975811 6.212459857970636 3.7512197865667196 0.25767518749312396 0.5438626234933278 0.8076999739331058
P 7.024375671695194 3.801759267340627 10.512918195567451 0.2608777535908217 0.5133773104202771 -0.9909761776893642
P 6.436217750950276 7.71492728758686 10.253674250256177 -0.6949239330799387 -0.0654173490635454 -0.22437837311320716
P 2.570647788921323 8.43256928767666 5.719522467557921 0.028216571643532053 0.5549505058763733 1.5742869798759855
P 6.899313220478779 3.9805322933690954 1.6574983922972182 -0.18336336415342616 -0.2935485043509654 -0.3354112060230223
Ni 5.197501795524754 2.83396523826506 0.4812982907665737 -0.3163307923528036 1.4332591432659767 0.16904437642759274
Ni 1.441993300938951 1.131638408805264 6.822019724763137 0.5091858980467489 0.6146908591597994 -0.45048632732301125
Ni 7.129708076743277 0.7423072704555103 9.169149238589082 -1.4989055776211928 -0.4678857537463813 -1.109455696685212
Ni 2.6861797778731082 1.5883320118410165 9.129896212273154 0.6086191990444229 -0.49318772284627965 0.6803115824834025
Ni 6.3694954729135524 1.8853677664834316 2.571898323011644 0.14133019834177596 0.4912475684007733 0.27769353959657983
Ni 4.068494662354222 6.781538769817669 10.52099105772102 1.0578384867295525 0.5063116618227473 -0.29773708851101627
Ni 8.19399125460999 7.025551155655727 0.20125008779072479 0.64561583087343 0.3305515639378759 0.35638138051678625
Ni 7.787915799351658 3.8612749244808513 8.23031823008262 -0.2519200301769016 -0.4492208303470263 0.479260057021594
Ni 3.0625787842201344 8.366669848412311 12.303220957288842 0.5080564124279959 0.38079323370224744 0.6129679629314218
Ni 0.31385331324392 4.9037302694188964 10.212145306148972 -0.971684676449604 -0.24201202703457034 0.7097851664624872
Ni 8.3895104059839 2.197711939165713 5.715895647430461 0.37173935103009526 0.8712982675100412 0.08488702775238284
Ni 3.748681645430399 2.6040767443220236 11.239274148678525 -0.049531016850592115 -0.010607600312517217 0.9581030811104273
Ni 0.8090295484922343 3.1996130874653645 12.735474440348248 0.834389310298834 0.6450075078654698 -0.6682736774822621
Ni 3.277366830362477 8.330284098741654 8.047872268786701 -0.5294292216768172 0.1568493770232976 -0.20063654941157705
Ni 5.716622639049129 7.906567341891011 3.3925877681739363 -0.8003407053545571 0.1605607644366138 -0.3637874431728702
Ni 3.0234894214402517 8.430127897912477 3.5082671447300036 1.4007868816698843 -1.118071463378681 -0.06415827984546368
Ni 3.4692148549057986 4.319107842739889 9.389153720860897 -0.330279798333728 0.15525812127677777 -0.2957138874334004
Ni 7.269708216442774 6.050903150871821 11.463262617358119 0.42426081796757903 -0.29857295414875035 -0.6022955708192401
Ni 0.6633780435978651 8.90139750205884 0.16856892103260965 -0.20986989508438697 -0.03318188606860737 0.4510470849224877
Ni 4.622726307561291 0.5484229460051725 1.518975745514267 -1.584976855489664 -1.960850797513423 -0.221370953745451
Ni 5.897014216069409 5.553809068330975 0.5050322161481692 -0.18357650860549674 0.48620306399833035 -0.8579177324380773
Ni 8.190229705936284 8.84139356696578 11.166155429459641 0.04778060981838868 -0.7256010504488214 0.22146762722431534
Ni -0.09188848541330755 4.971573778310282 6.107851731885928 0.7233839881928444 -0.9653962723377308 -0.9551247152083936
Ni 8.025625782724397 8.828345695003861 2.428109508085504 0.050300033806132724 0.5145373921666493 -0.006904440429317141
P 8.484154949175442 1.5525611307035614 3.571182663171462 -0.17304784116003102 0.5599839545352226 0.14058046465994498
P 1.640188938869152 3.3263573849637735 1.736889674773196 -1.432467757712933 0.5005032826710865 -1.6681846957674111
P 4.808054917215809 1.0606482197733733 8.296383141319877 -0.09258491061727281 -0.03308135593500109 -0.47607446020476074
P 8.413924303625743 1.4606382849898691 12.47171844506539 0.1151522543948275 0.8240097668367228 0.20918032521653007
P 6.56379392940537 7.865145095558686 1.2230485626684775 -2.1625453558758694 -0.5130273832800262 0.39471241488650083
P 1.7881823695002754 3.2619589482951805 6.029585297138337 0.2883739021285614 0.10111608801673554 0.7100376487929255
P 6.807688766847376 3.994647143079805 5.910147084563857 0.0900343762812772 -0.2535840481428859 0.062819249319066
P 2.236792259761285 8.626840617615544 10.156178706351126 1.4185375207850859 -0.9005476512934618 0.2442172622160052
