# total energy = -340892.3914904435 ev
CRYSTAL
PRIMVEC
9.06952016802764 0.00000000000000 0.00000000000000
0.00000000000000 9.06952016802764 0.00000000000000
0.00000000000000 0.00000000000000 13.27415952705588
PRIMCOORD
 96 1
Ni 6.3144084360805905 2.026538900610907 11.414383653933731 0.6064052221122396 0.12928278025893866 0.6176769383713169
Ni 4.651412175905082 0.18244065079508998 6.038256062738778 -0.6328194504397102 0.6791900672844495 -0.13257482074664909
Ni 2.7714911359188292 1.6593231045678762 4.570173764240278 0.036799428216536624 -1.059073130467602 0.6346523898833908
Ni 3.167284989541242 4.036634761427647 4.491551002148909 -0.5958243612725996 -0.2232874540418735 0.8931852973911198
Ni 5.055296041384304 4.514371728420327 2.323230108987396 0.2378494110164484 -0.01747810218010538 1.4417239862038782
Ni 7.458392343657653 6.1958698094342814 2.398268596767317 -0.5382226515987312 -0.47956319008430964 0.2987634728930016
Ni 5.048176468169511 4.539566855032681 11.379923105670127 0.49641034354863545 -0.26142668411575626 -0.09436977043183746
Ni 6.122606226722048 7.787407321381307 12.393445595584106 -1.6921175524339245 1.017748303576886 1.0918793783643452
Ni 1.9387912944285777 6.451720969165909 0.38473266700742875 -0.0022111487187058696 0.9914117225648861 0.1473056991989205
Ni 2.6966948043234114 1.319234242901212 0.4935016066894377 0.14067559547691258 1.0335194503682137 0.37585183053657206
Ni 0.4059571577555307 -0.02117460838799832 4.647296427720529 1.112367471015368 0.4560712776099565 0.7627056686106026
Ni 8.818756859844328 2.3296513291607384 1.5929922629580486 -1.7642660495737164 1.1963011337155462 -0.7861564434343751
Ni 6.968329898959361 0.5707947771460438 5.035618810751417 -1.135626955763941 0.9903894519479589 -0.8633507305281904
Ni 0.6612079152619114 7.574019654377913 2.5500062014426095 -0.6149621105433151 -0.7007341120038125 0.27481776071068154
Ni 7.6237387631212234 4.085183902088526 3.8673204269558323 -0.11436112595209981 -1.6710131663551415 0.011528569464889822
Ni 7.607876172608263 3.9497034120470143 12.802568015826214 0.6601898720328631 -1.036285186038809 -1.2141373905660189
Ni 7.894101154883004 9.070426970847269 7.094202139492909 0.10487992593454196 0.02813172523920961 -0.7754935644038902
Ni 7.098223564669264 0.8665028495524899 0.43503675979195466 -2.667860201002986 -0.6845443896178275 0.9987234257349509
Ni 1.957256837186947 6.581179297914908 9.332570563567971 0.11263463017929633 -0.23708219383312074 -0.19276306020077125
Ni 0.20087898499340265 4.728303566624853 1.292722221982123 -0.6317002492336025 0.20609731541583212 0.3497559047804686
Ni 6.262585198692908 1.7896974548387787 7.141696494975596 -0.11565824749696856 1.54996640085275 -0.7479974158661504
Ni 3.484645634040679 4.489802398689275 0.3716435357162311 -0.7563306183221943 -0.6541683484291315 0.673838316054233
Ni 5.897283071373853 5.507801603684557 4.525944435964375 0.3208513059309765 -0.001176793916920554 1.30022126683998
Ni 5.302005124936937 3.027188113810137 9.31688029393537 -0.3132848064376282 -0.37463749851349676 -0.48190546506424103
P 0.2919832205347064 5.392455448084881 12.425090964833862 -0.06771180152467693 1.101169802527336 0.10636576645144907
P 4.222052028692922 6.170039816420609 12.57822164778405 -0.7266495463179937 0.7305607084469418 1.399160658920371
P 2.3492868400015388 8.457517877493718 1.6024699113777419 1.081843334284582 -0.30496574504897156 -0.6931336739487354
P 6.288115897545958 7.769340837503767 5.903695222027177 -0.5498386385711046 -0.9334600857507667 0.7695229486427522
P 4.890702392082298 1.0420334330452217 12.808952957919482 -0.2003483287471969 0.17999650456372226 -0.3832162413214432
P 3.951372203730482 6.221445855887426 8.382631757650113 0.058966708342195216 0.6305643358569463 0.02636692002930298
P 4.900787698343255 0.9303332244931218 3.8773948497927657 -0.04285566171294555 0.13880203260328353 0.1043163401215881
P 0.055337676394985116 5.580257999115113 3.6997474403276356 1.774648421249305 0.9585003165488458 -0.8113661099307833
Ni 1.2825208258649259 1.153180400876172 2.582501384718131 1.6460878638683714 -1.7277468716017599 0.884575958455554
Ni 1.7749957628882302 6.70032558240248 4.881598407887381 0.5503232915170071 -0.34894626439497967 -1.727173001376161
Ni 6.193475456149305 5.702877909769903 9.242133844700055 -0.7824304007330395 0.15399082452857996 0.3306358961215661
Ni 8.549736757045336 2.3171081829746756 10.276787409305943 0.8019005936425092 0.2604998014261126 0.18124451803821043
Ni 2.31204739080416 5.6506374744613534 7.0445301922536965 -0.5013386340881882 -0.8486491626519578 -0.027366307828094804
Ni 0.7066543731243439 8.780791849045443 9.285181414517504 -0.34818676052113584 0.5629988301021466 -0.09907951720268098
Ni 1.454497064462272 1.139331243807395 11.673932456977044 -0.093163151718246 -0.2586820314910835 -1.1852839566694362
Ni 4.243374470257228 6.695473389192398 1.8854353081577104 -0.5599433311052743 1.1502272221756191 -0.7726116148704049
Ni 5.516036727861669 7.9618051218236845 8.247792482673933 -1.1399687776724046 -0.6338923717889148 -1.0979512955900381
Ni 5.241030741850238 3.0132754701012283 4.764295049867639 0.28549606636013414 -0.7440068066495187 -0.03865885002277858
Ni 0.7269927717666046 7.655509291747238 6.71191914984257 -0.8735875777648502 -0.7544287733137911 1.4297495874508215
Ni 5.1180117723146195 4.819869440735116 7.28513730273765 -0.6523307809997604 -1.2678590484591905 -0.7984056931153733
Ni 7.891470994077539 7.413407524364179 8.566013824623159 0.612302818543597 -1.054368783013397 1.3660132256341249
Ni 4.701448717849052 0.31017214293250084 10.653681290161083 -0.7043375130843548 -0.31408724773426555 -0.006736033172252915
Ni 7.969876994640457 7.227663754378226 4.669968413863639 0.8459006533725432 -0.36696918333496154 0.04567616188087618
Ni 7.189762230219471 5.9335067343291215 6.710870713328392 0.36588263513900215 0.36187994173751226 0.28982863229721695
Ni 2.045294668009879 5.264203365498389 2.639062539363658 1.0336698599031486 0.6361513430264205 0.09102296544679163
Ni 2.398625028904058 5.242110014732481 11.485718149737957 -0.015099317535283673 -0.6484458441230575 -0.6528977092468239
Ni 0.9979827743136895 3.3198433857782397 3.6609997299511225 -0.679618670181436 0.22943881835524998 0.5165297400063298
Ni 4.075796948869021 2.4296790654485845 2.408489945828556 -1.6938990698143794 -0.013729947991582805 0.5380467881424992
Ni 0.9130467193372025 3.5100674986535028 8.071485548267587 0.6034934477820831 -0.3483554248885162 0.1368405380015385
Ni 3.7319260973544988 2.6258618529762288 6.7317115633796965 -0.24115893500565563 0.13672946634497096 0.8770981620212701
Ni 4.046865180008905 6.858470802971087 5.900642421588834 0.959465765785909 0.3769507200277057 0.09385760668210931
Ni 0.7294533325477174 7.231019476785199 11.270531089962823 -0.41810636833040893 0.513642905376838 0.9443723617878961
P 0.15049145262470334 5.751109617230122 7.933925417285754 0.4659083183050363 -0.19192668034240495 0.3399864840985306
P 8.766452937895647 1.4999172207166498 8.2624071072323 -0.8269007152312727 0.6039233362306502 0.8473432993563407
P 1.848223067520388 3.103299525808288 10.344419727038474 -0.25159452851668285 0.6221486009894254 0.39554005299411876
P 3.935473335137446 5.847972091031391 3.9057488902276822 -0.8587204308450307 1.8891368168078886 -1.002330169249603
P 6.991829025328189 3.894216088571718 10.419498120706479 -0.1354747680022635 1.2709610844232822 0.1283499840320241
P 6.457579879098083 7.800830211009198 10.237310509519913 0.16891453571794782 -0.11048261683330005 -0.020738518098932027
P 2.435392863060457 8.666787982408556 5.863090073950804 0.3471758027581182 -0.5559671200663457 -1.777990084028028
P 7.012135680650385 3.8836773063098198 1.6010233229347361 0.09459371351718547 0.5876652225005751 0.48209007027122136
Ni 5.278542276648183 3.009702079213803 0.32355331276830535 0.904396592725907 -0.44786071677470607 0.06441076217590198
Ni 1.4444208277213348 1.0477472306570943 7.125913716238801 0.3420600787981077 1.1699357563481398 -0.5917851582062195
Ni 6.647323307412347 0.7242138708328304 9.237035867497463 1.6866470162376568 0.504327541513183 0.620420562554725
Ni 2.644880636455748 1.2514033026802673 9.347503528279 0.3566184362282568 1.338396749468437 0.4506413648436368
Ni 6.37583629516823 2.046736721692876 2.7343441958256425 1.5394158790304133 0.5188668727799387 -0.2608998650780087
Ni 4.190081970626492 6.815807780802439 10.590615475758039 0.39092106616486866 1.238737962723518 -1.12547984002761
Ni 8.245209483372566 7.026093671959387 0.26548571084764777 0.5429982186105036 -0.09090289492915958 -0.617781068049349
Ni 7.6144062270218305 4.033406012300938 8.245257551828665 0.07993174062963654 -0.8637862754037123 -0.3700367665166917
Ni 3.473109204576708 8.450443651879018 12.764617516259358 -0.14875657271283413 -1.7735569879573392 -0.6572457018028746
Ni 0.12612528014207333 4.98322056579454 10.188116525985695 -0.15098160538861094 -0.8474343164082503 -0.36491461479877796
Ni 8.592272805933721 2.3718699448484637 6.100246232067587 -0.38797381061108666 0.7120392526039866 0.02449978491357716
Ni 3.601869180284256 2.637987801241425 11.731211010656061 -0.26655089271619903 -0.10858797091374847 -0.47725228256294583
Ni 1.1114243307094076 3.4047431626746514 12.640743290985963 0.45014694170572156 -0.8315703527928001 0.09356372959077434
Ni 3.0015576502368804 8.455894433410343 7.963406799059013 0.9142665435414512 -1.0922994966208994 -0.016150641617933476
Ni 5.799268768530191 7.710887780982309 3.6238854401300036 -0.5336897967253841 0.880179114939439 -0.2260303068943333
Ni 3.304044281905411 8.474169516248317 3.661385184551923 -0.32762179188559065 -0.620178621747248 0.17687415688465666
Ni 3.203154941215775 4.174935872195021 8.881620423950952 -0.09129550238188794 -0.21230987198444728 0.6251544776952845
Ni 7.260749363406974 6.101020769077197 11.405781214195857 1.0223261527555554 -1.3332727979783103 -0.27796710497294064
Ni 0.5268021633426323 9.015638000413425 0.3629658189621998 -0.09290809828464644 -0.2980841874377899 0.27472880054130105
Ni 4.749099976028066 0.27370904464873486 1.62960228746612 0.2621363085882711 -1.1920788681040824 -0.06794834301551524
Ni 6.015658446659823 5.5590443917910335 0.38614116346635546 0.06499440259351387 0.8209331847939281 -0.2421758063059442
Ni 8.02193603954863 9.060468637866576 11.29450455222864 0.5496586613498147 -0.29023563792764856 0.17799875740740312
Ni 0.2912866813972591 4.915779614934406 5.76297617722278 -0.28567424380921125 -0.7277062697172821 0.47713529736910726
Ni 7.761740579727975 9.134639172580695 2.8032099682807368 0.6902982613824692 -0.9599555609381338 -0.9415978843665526
P 8.454579353007611 1.8032926653470278 3.945079770741407 0.18300032438705258 0.28525181155981194 -1.0032729927788462
P 2.146256564859666 3.0892327002590583 1.6532964085153534 -1.2218756397505408 0.9158595990601839 0.12316561161760725
P 4.639458548520244 1.041607165604336 8.39169764986095 -0.5161240199274789 0.23894701495600137 -0.6000522833110182
P 8.577888547183832 1.7036730574600303 12.685928546671851 2.017750338913945 1.088512004554009 -1.9010615932699326
P 6.565579723482495 7.967292181435087 1.3255856277704092 -0.5094270675232776 -0.982176320009547 0.9461824184134414
P 1.6819606265349143 3.089622689619869 5.948655553616599 0.6408924572558318 0.32523066594559474 0.08964048327696819
P 6.704316171210772 3.8012807169386096 6.1023304077679175 0.6389134791525899 0.11612927359611613 0.021469739838001736
P 2.5115224140986454 8.443251522504074 10.635960354996262 -0.3316216570736031 -0.02795843288613895 -0.23771082855605516
