# total energy = -340860.0909362867 ev
CRYSTAL
PRIMVEC
9.42247117622047 0.00000000000000 0.00000000000000

0.00000000000000 9.42247117622047 0.00000000000000

0.00000000000000 0.00000000000000 13.79073900438289

PRIMCOORD
 96 1
Ni 4.811726236172651 8.925181401909603 7.093956167889351 -2.1322114807790182 -1.109116311067922 1.8856208332348299
Ni 1.5614636536277662 8.741386679414848 0.07351412000943676 0.6535011471587777 0.7533522524201606 2.1670291026788355
Ni 7.966812437505626 5.698390195030381 2.4921380907910686 0.17064900191055127 2.574525556703882 -0.1359339670268691
Ni 0.8568333574045287 6.95437733357151 4.838480400791312 -1.7877726173360888 -1.6811903639984596 -0.69922538866877
Ni 4.426271785859136 7.020805755266784 10.47366654375821 -0.3641815932874954 -3.1288296872455086 1.227976096221324
Ni 5.197830836996374 5.210899804498693 9.007669483454157 1.038166976442554 -0.8565200807596024 0.22273415264156482
Ni 8.178761503833782 9.230243328265091 0.1292555749122599 -0.052580088089561064 0.14490788839070526 0.11314833659092126
Ni 0.5914796090218376 1.5629241366579458 0.1614286026964462 -1.0802903879751653 -0.35284199990496007 0.49163426231623075
Ni 9.223864315288111 4.0401106502084385 0.9530989762828177 1.3466355924384614 -0.6198124966570809 -0.8297970629424611
Ni 5.703261612621367 3.982558196348192 13.613997155250786 -0.7071469575086918 0.7949190201183535 -0.033035590298730204
Ni 6.731856254599085 9.220453380727305 6.1538686820347595 1.6394114802894602 1.5153781213549191 -1.3268612380250115
Ni 3.2018216582987282 9.49643756107547 1.8854977256688485 -0.2136260196927095 -1.1373295402773445 0.29075474365591214
Ni 4.589525521219749 8.400641854767159 4.767113661959798 0.3761757895348941 1.9839187350764798 -0.07591002106475314
Ni 3.778985706883455 3.1237941746024775 7.1513946098485315 0.9246162622068914 1.5344371948688993 -0.15945570429789313
Ni 1.8303338682482837 5.167763731516995 10.795377034410631 0.6986980554103902 -0.4098852659721974 0.47149378281261384
Ni 2.9422796901290362 7.234469711346506 5.694967953504179 -0.034533000779863106 -1.4519469494834671 -0.18224904804332484
Ni 0.4371743945242037 8.994097355991762 9.916616644363964 -1.5879367094489363 -0.7733608343316036 1.2922282213321745
Ni 8.255253124730553 7.8178149010138 7.188726440594158 0.767930921565284 -0.7424080947038311 -0.34008110069486597
Ni 5.409977775218942 0.6448927713004192 3.155652491849838 -0.2278056536272012 -0.945315956648088 0.8511824705967728
Ni 9.3418053868285 8.191152053412404 2.9421986568770393 -1.3083233271218244 0.5825034757939774 -0.016316734882152545
Ni 1.1253445758737568 8.769512755834763 6.106980581036175 0.4947954336530318 0.03938338689362895 2.4289072725097136
Ni 1.6353546724837007 4.743554657312323 6.747353392919967 0.13284041570320992 -0.8690565226637161 -1.2736458303442968
Ni 1.0661054996754322 6.91023305617543 7.596297315220176 0.06438196582049557 -0.402134675492501 0.6957060626616017
Ni 6.021788250267997 6.214195111405231 0.9850986305976149 0.09981973780281518 0.30309783860229733 -0.10303644496789996
P 6.922774365292652 0.28513339984690667 1.8166128657415235 0.29089769699167967 0.3731858536686347 -0.7593802037817954
P 5.993558526665296 8.9444786228503 12.26687587562644 0.5298951055696423 -1.2888148247752513 0.746784626504972
P 0.2597878946670318 0.2881608398314019 12.207231633168128 -0.7570412712359735 -0.03126410022060422 -0.7487304373774331
P 5.243991523221218 5.359369682605421 11.896015890896443 -0.44741745858970045 -0.33141365482785506 0.23654046239703777
P 8.106915161220098 7.322729998725177 1.060882623910086 -0.09272812106335643 -0.1819402585536544 0.4021197630941655
P 8.936036088688745 5.192375226193315 6.600647401414849 0.3551390234692529 1.6114412203287796 -0.16042321041748503
P 8.007366753388812 8.16429801059942 4.872433333378085 1.0353500758190493 -0.9933647325261991 -0.8158647691320852
P 3.897916137895902 6.911109345993538 3.519893190588212 -1.7249047741672745 0.8993526025440963 -0.8476438613158951
Ni 6.27644937837554 7.480179491849721 3.5111086207234594 1.674293122657994 0.6522315364177349 -0.9605142616550812
Ni 0.6120535748050475 2.265114955097225 10.55235642717718 0.49800879838400686 -1.0223824599147875 0.19840766008105828
Ni 7.0580904736566 4.84602403120397 4.478928323703373 -0.06762258424498031 -0.3251969844941819 2.2226340936376494
Ni 1.5815146722614601 2.8639318424132627 1.9260558105404995 1.1163480529296708 -0.14432990440004823 0.6408281796767996
Ni 0.29874887067664724 3.9969368873420916 8.741825766571019 1.6655372308422347 2.3944940851371666 0.3633812088733871
Ni 8.094025220669867 2.6258165736669823 9.054709286238456 -1.3775556790560854 -1.699882283981008 0.03163999550278422
Ni 3.3190277770884467 1.5907486940006614 9.944708799887694 0.31934386814751453 0.26473852209780857 0.1666059421894292
Ni 1.5023564920257158 3.2530799014224576 12.738808824021804 0.942244516811616 1.4103045913523324 -0.18747044434326424
Ni 7.145163529668802 0.15490448366356568 8.504073262964493 0.10387591015005981 2.5630345253451474 -1.0529557047159541
Ni 6.721218284656679 3.2192626524204235 11.077534817864436 -1.8056587535878903 3.009865258193442 -0.30615488026106624
Ni 9.504258212140305 1.0346532909351733 5.229241586863519 -1.4830285013796198 1.4873952629887481 -0.07654045555990042
Ni 6.667274637251651 1.8899686882354312 0.030117044576539697 0.25338093099314424 -1.0495222535543731 0.24751495913067045
Ni 6.031832604527169 7.448576523570862 8.511382273845204 -1.3308932420025401 -1.0912574285096304 -0.5640540108395382
Ni 1.6497710533622496 2.89610958143303 4.75317123138072 -1.5618991477345938 -0.0028498107439692854 0.17413233247346138
Ni 8.835903487645385 3.802400547722144 3.4005613623042446 1.4239000706485798 -1.7866349041872198 0.5673676485938035
Ni 1.9440913625925453 0.20853624727311618 8.438015144385902 1.4128823793818377 -1.2354382089263238 -0.5366730477234242
Ni 9.40282531007653 6.303058436938299 10.347218865252358 -1.4971549134786732 2.5472145275937548 -1.998852216457861
Ni 5.2244116281456465 5.450456711332827 3.2499940421167546 1.1357192583674312 -2.21564480680401 -0.45928618500282836
Ni 3.865955115712871 3.897058693020119 10.879127727090955 0.69381475917616 -0.24079923767339176 0.44276813274314714
Ni 7.354964272571919 1.1715712193967378 11.0443959867861 1.366619491759556 -2.9971884340567216 0.8013411215946135
Ni 2.934195209871654 5.358314365835227 8.619956466803002 -0.23557089939491688 0.8905031225732664 -0.11933646767950416
Ni 2.0104915168743323 9.019076327043418 3.9534465294446863 0.9062485583329812 -0.7204966393427205 -0.3267892686819663
Ni 6.895449198921547 6.140944820588344 10.78180679144247 0.4060118990597201 0.1618866823368889 -0.31494085398381244
Ni 3.162897429926646 1.078448936898242 13.681446972820071 -0.04282326581311335 1.5640902418486418 -0.7290756392609832
P 5.832811168633896 1.4607845492569853 9.549383368784397 -2.057020597268477 0.8372874577822355 0.5982959627415438
P 3.1567728236710533 7.635669110972474 7.724910277599157 0.030302250527967173 0.13819036716121363 1.863217268728649
P 7.801090014700451 7.92056694904032 9.398568237605334 2.7233898586391745 -2.1857405630454094 2.8212465591783475
P 8.233685088239705 2.7596439315872634 12.617616057683254 0.8377415146005186 -0.21850263105872045 0.3021532153008409
P 1.0434161891162521 0.7430890545198944 2.438519518641145 -0.26078519387701543 0.5277261229427814 -0.9705541623895865
P 3.3764483163524184 3.398986867372999 0.17852096538513093 0.1423918068370709 -0.5060206129448898 -0.02867011424118288
P 1.4601909335737508 4.827546565254405 3.0274673096616325 -0.14688506672173413 -0.00576904127329329 0.35561956265009725
P 7.488018987856879 4.77307525946428 9.204449313457884 0.4261359235031048 -0.9039947293017979 0.6877793516153574
Ni 5.007317892562793 1.2085544187093549 5.677550515560389 -1.1487799482061314 1.9297239942016313 -0.966132122062491
Ni 6.743266867176812 4.679510120821149 7.097707253659121 4.019419713105627 1.5348632266627245 1.3488593395626576
Ni 1.4287481473046544 6.9161786354789365 1.6132269412058027 -0.8010431307382204 -1.4023387995380365 0.09987553074141509
Ni 5.215903136685954 8.989216515929613 0.6130448187713373 0.4715112663141105 0.3644718708344045 -0.06230348602491205
Ni 3.6989889267142524 6.987007351207075 1.1896812089709672 0.640089244628246 1.9019601938248016 0.32106445038304704
Ni 4.171271448789746 8.876005524912774 9.569200710133263 -0.09402087173285097 2.0776992086637507 -1.44766580560961
Ni 3.416578621033294 4.207529117822854 4.5080267991472525 1.1179087125485714 1.1441984994830359 0.16780767580701422
Ni 0.7593484707578184 7.256197929847116 12.467793112717597 -0.0012935220004429335 -0.1949713807059997 -1.3937297177127868
Ni 3.89979120965723 7.945517652678488 12.631572621969076 0.6393418249392603 0.5817432005891853 0.4451916545829752
Ni 6.13197462804169 6.870752902004764 5.956523503761287 -0.20990049121200627 -0.4547309615319781 0.10740166391513117
Ni 4.705478451344862 2.2244852594447395 1.570516763920648 0.029316232465614028 0.6450069936448376 -1.2226413142719719
Ni 6.086690231634955 2.689616125907933 7.7558706333447365 -0.5525300693603388 -1.8223004759096293 -0.14008604152202972
Ni 8.924738545764967 3.0751365335195846 6.662127141255605 -0.8121520961671885 -1.209001354891034 -0.9670608045243474
Ni 8.171506201038694 5.679149508916658 13.459843642538868 -1.3478712646177755 0.8050149709017749 -1.1550467550514494
Ni 7.929659633712085 8.084112781006969 11.84070127393728 0.3379486277328954 0.05517433117929852 -1.1770775095992438
Ni 8.049080033224978 1.1679906803550066 3.4116082674951014 0.016635808784468124 -0.13498625840161915 0.09773405891838007
Ni 8.974376123848755 4.361822083107977 11.3690575954066 -0.1371215595770671 -0.8664095719591723 0.6064643574849491
Ni 4.805865459109607 1.1369153704612458 11.952806066839647 -0.2717517201908481 1.0032146287370851 -0.8892443104655008
Ni 3.2885178154644326 1.8679012607729728 3.396300520844585 -0.0923807650262667 -0.0901423626140512 1.494079359877143
Ni 3.192700706213476 5.664177202239523 12.83848820420225 -0.05373785584308809 -0.9402547400750968 0.5053320715182974
Ni 5.5899563968929025 2.88526431712505 3.8306255600892634 -0.23098662245834412 1.3008391029296371 -0.3805788036985962
Ni 1.8405478269883797 2.0630406385473172 7.083075098190952 -1.824291281087413 1.0780149616774273 0.26738315880950725
Ni 2.302201801592629 -0.11118610196402906 11.667682089463904 0.2529728969214482 0.896303017084495 -1.328331909033267
Ni 3.4577359750708765 4.846042876146294 1.844759671597995 -0.7169924828442039 -1.5133531205050903 0.09197144540298999
P 5.1490883936730185 4.710340446464686 6.003219386348157 -3.331198131746527 -0.023492426694985347 -2.5898454748904043
P 2.647507102282943 0.9235293772808164 5.544387441857062 1.531725452364691 0.4097014320961654 -0.797257438443543
P 0.8620628288996885 5.376612804832705 13.29995372938325 1.109008067624832 -1.3016117194296033 -0.06381426624248364
P 2.344178910621345 3.3419432269555256 9.295592877012265 -0.0031295467679171908 0.30012770023037993 -0.4489596062658397
P 2.1515082202915625 7.4117158163833565 10.605643328342184 -0.14809759897259656 -0.46010405291843337 -0.1282060022549921
P 7.314777433064069 3.8940811921327843 1.7560160114486898 -2.6996007266393764 -1.3241183851725518 -0.32864354828188563
P 7.038275016801967 2.1132812547855018 5.1952886542767445 0.8881919579415865 -0.16010156541200812 0.861654059552058
P 9.403343545990465 0.8532170129723803 7.6459716409414975 -0.8888874413467144 -0.03130832319497834 0.2024707744068384
