# total energy = -340854.1903272906 ev
CRYSTAL
PRIMVEC
9.44313699634375 0.00000000000000 0.00000000000000

0.00000000000000 9.44313699634375 0.00000000000000

0.00000000000000 0.00000000000000 13.82098552106194

PRIMCOORD
 96 1
Ni 2.6039545039683154 4.3352781498175 6.413297131889195 -0.9838598783595572 -0.08525109596002092 -0.5351843789930396
Ni 3.10519622229622 4.017488256319215 1.4767036181149267 0.3918651752456929 -1.5711322362970876 -0.01982963313141746
Ni 8.105261782222353 5.146708036262117 0.578174956444285 1.1438136053397916 -1.2356307845531043 1.9518205689903545
Ni 6.2199866719063275 1.8910259808220857 11.635749515304289 -1.2554915280327732 -0.2021308745689164 -0.6454908752597914
Ni 5.239826811402122 1.7770001000984714 7.2350644205390395 -0.13003354238203413 0.022459357444780673 0.3369762365172971
Ni 6.695920782752719 3.3225961250721254 13.528354388652831 -0.046273429145242885 0.7480686354237182 -0.7645257525384769
Ni 2.026091171048989 5.843441579247601 1.948924687445746 -1.109328169968412 1.0127089413807655 0.5712708403029516
Ni 5.795970928945522 8.510240160749305 2.5780557561030903 0.24251981990892424 -0.26764489711132616 0.13334615169503486
Ni 0.5075771190216917 2.538938504897335 5.4426899488955485 0.273131117036878 0.050223414931926405 0.9173420971429814
Ni 6.962509986786537 1.4058848112837263 2.682141790694227 0.17267760230480583 0.26684245581468885 2.4380105203625626
Ni 4.4380383679569935 3.623095634503749 10.84593591404099 1.150088639715226 0.16193116242157918 0.7691290556384431
Ni 2.583321249361185 7.965881078331624 7.302939801529946 0.4602462349232525 -0.8311229808427363 -0.14899799929967888
Ni 5.603906963062491 7.498625210498484 13.823612012669162 -2.1970775853247835 0.6587012033024785 -1.3816894987188013
Ni 7.537011562891155 2.691010785077301 6.4176088682981725 0.20081626952255094 -0.8571034640668982 -0.627848736697996
Ni 7.765507151783022 0.20173373829387786 6.221876243644034 1.7982696602126707 -1.8465117830485103 1.186541226115305
Ni 2.663134644299155 7.430965133033913 4.226636745879692 0.16565026314437922 0.27169361325940306 -0.12606427332164094
Ni 5.396422354262553 5.117623173932616 0.7271140037278454 0.5199207679657497 1.0296908206507427 0.07100255646080675
Ni 0.7386299094456464 0.10214074834442263 5.869067420450059 -0.017389913341673276 -0.519317587164112 -0.6823574092688378
Ni 8.629280347283622 7.408499909825509 8.572839661031283 1.7364078897108677 -1.5221804889887334 0.1636268049564472
Ni 0.8646589617624523 6.135593355465174 13.45414927285041 0.013942064002388893 0.057191104499011186 0.6401077565710072
Ni 9.409632869466423 3.9058703755611925 9.698779839452422 0.3919417941198992 0.9693066631357307 1.2375228593694945
Ni 8.71266324805294 9.34262436846313 3.4709610296187914 0.25917774018057943 -2.179158538952518 2.7917030411932755
Ni 8.294946077551153 4.12843567434172 4.471766420808383 -0.5577658638379813 0.2845486148452003 0.13362151684360857
Ni 0.0977714087990134 7.099189953460955 11.451474248917807 -0.49922750128245635 0.23367753902694596 -0.617489247840543
P 5.0695764922662185 5.463411968991607 12.035272593517034 2.0676572510467164 1.9228876880060886 -0.41552266676363275
P 4.837936338713401 8.400624225060714 5.07053308205647 0.22261485345488113 -0.9376736096114818 -1.99927002072157
P 0.3049462827014169 2.094686119088437 1.3182288909676227 0.9959273510470524 3.869733943710303 -1.3463972511754103
P 8.847586791223044 1.6188086670647661 9.581923850533952 1.0501030657585075 1.082372981535807 0.5001975785052096
P 5.428850087132523 2.465508670652463 9.41032221847618 1.6896899168290382 -0.47049799455824776 -0.6201531678259513
P 7.317401966029177 8.95207510345549 8.09908408191847 -0.4379503996395296 0.2576019110530273 2.0601555433530323
P 3.4026928141236943 5.466405443458636 4.7308539967140995 0.5967556148376174 -0.8324023617757923 -0.5643332326428538
P 7.217229167460556 7.101777373031826 0.9890392423381117 1.907147394452696 -0.7893402404789954 2.460897452263065
Ni 3.1669260096494516 0.7681501003963785 11.033099836072468 0.6124066911113131 -1.1618115845791088 -0.7387956947622243
Ni 2.7966133874899035 0.47783123709379227 8.440780221349668 1.4954114484250052 0.4878501126834502 0.646217469013171
Ni 4.7888131394153275 5.975834361669554 6.854918659696469 -0.71325769839212 0.4901540782262785 1.846556006022884
Ni 3.8937265012249136 3.512063228247164 8.17134013421933 0.4688751142428441 0.2710883755752363 1.0013858030584626
Ni 0.005375033648685825 0.2534254708885831 1.6370263671966085 0.014356782942304306 -1.999960361920375 -2.706765619818932
Ni 8.549466952345652 8.279695411102404 13.667503735684122 -1.2872577647007764 1.0776951164441633 -1.7511354257290292
Ni 4.085356082800426 1.9532468113055554 -0.07026260605483442 0.3171777137341312 1.294728362046209 -0.5517934483046304
Ni 6.30212307857581 7.795168045476842 9.888251664196021 2.866892124931604 -3.031081230149425 -1.250086812077434
Ni 6.882205548718329 6.038300713718142 2.8870795854129097 0.9561624124442888 0.06651855254752415 -1.0962949909335375
Ni 1.3708979882542445 2.4938191957381273 8.44055925194106 0.1683586632144778 -0.8043549687202729 -0.7369301023083953
Ni 7.5515917666043855 6.2811970867179605 12.60870520649967 -1.3668424064036395 0.11058006164311278 -2.057494451581102
Ni 2.3645520917028846 1.1099652233552868 1.6835753673157792 0.5261320389827842 0.09895173337556508 0.23480265377032467
Ni 5.461126729808574 8.820116705341055 7.009063708474268 -1.6449084988482896 -0.13788234900249158 1.3136141432071182
Ni 5.686732718741731 5.204585023670401 9.233219959046028 -0.004147960730102533 0.21496839265321688 -0.12882126724148785
Ni 7.1153377179361 7.163393842739618 6.6378322690729465 0.6615738968645832 -1.7965866160832928 0.29090875273527317
Ni 0.5549495606977235 0.6100738736355371 11.421012577196212 -0.6971070567741865 0.06856515066390771 -0.34153377398099244
Ni 9.560137588884473 6.137453653477807 3.7754370440916336 -0.11107654166355709 2.604015081522567 2.1616490693138446
Ni 0.9334512713677077 3.6704340808861486 -0.18679186242895238 -0.1649501517535611 -1.186809392175027 2.7651096069754635
Ni 1.8430170717041683 1.0252413971149332 13.145083893737263 0.19162123328684416 1.848712647354571 0.8464385281538842
Ni 4.794261829533549 4.4943950102889625 2.953959659751372 -1.3623164935088279 0.7445117713103953 1.834000537955377
Ni 0.5074137527495163 9.625672960497052 8.251681400522306 -1.5951460827131818 -0.004680179084488713 -0.550909245927464
Ni 4.947353968522471 3.8898264855943667 5.793232419180731 -2.076701363526856 0.6134706135994532 1.6971404595698125
Ni 3.8354812314689513 4.30598553847136 13.134607677416373 -2.3604063994248383 -2.0708215077073113 -0.6950182925659578
Ni 7.307203377939612 7.847851307469144 4.391410989799727 -0.016149356066352833 0.3238337855980681 0.02696058774924389
P 0.6009026988646242 7.520533288616811 6.573578331167548 -0.4347925707368383 1.4737756153227843 0.3395013169319959
P 3.425800170656256 5.580780720255689 8.7668309712005 -0.8374602359146739 -1.9654101347493311 -0.6351295866301255
P 8.23637974113311 1.4531665988434064 4.65200569038979 0.009564503759983528 2.721012616656249 -0.39964301941889885
P 2.63506964077861 2.286277928115469 4.6203145222151765 -0.06238190467133127 0.09899467079835855 -0.860618419198692
P 4.939846674512096 0.6562092643488531 1.3283254931762924 -0.4304224666936006 -1.395066177136023 0.08171428645135605
P 1.486954143458652 4.698017376006835 12.021134328621017 0.42196687972707975 1.4214567513144098 -3.110997287049778
P 4.5867394481851305 7.327836632546743 8.69013853308068 0.6117322907521078 1.8485383265602358 -0.4121954021626127
P 2.405497534255066 8.062286065189378 11.64658551514945 0.6630237419372323 -0.050210302305803846 4.100577869943196
Ni 1.5180315077204671 8.4520704360903 9.984874787521246 -1.1384430850564975 0.7165607946234239 -3.2255430182088576
Ni 1.2896775658853992 8.447235549884876 0.2733146062906598 3.0613081473547665 -1.29477078524837 -0.928997936214355
Ni 6.101550846147689 3.100295234130957 4.3364727066631765 2.7125539443659346 -1.0156335712267284 -2.1479903408798298
Ni 6.913773956110382 1.2119038885653421 0.5826349501060459 0.22372454157929209 -0.6269164546917138 -1.9426419878148802
Ni 1.4199173130439988 4.194783155746616 3.9941958142991023 2.5243571633796074 -0.25728155159913113 1.0133303770148483
Ni 6.071125058347151 0.8538371266229688 5.091900068417822 -2.460709504621975 0.015720496059050345 -1.9133046723033433
Ni 4.562904970094332 1.742806500587067 3.105022468573213 -1.146452071403903 0.5292423024769917 0.5771527530050254
Ni 6.409198810379128 8.842308077572982 11.924152366085233 -0.5073609290228681 -0.19035059410453667 0.683881559222848
Ni 3.900629434459611 9.092900607325573 13.282216186679728 -0.5314717060281428 -0.8662036265959533 0.028917197254982454
Ni 8.314965528245484 9.060047933285205 10.299702368904997 -0.8554505018445073 0.03541591760544869 -0.3043239976999146
Ni 7.52073159449633 3.31224644678864 8.667416456542613 -1.8251875676494373 -0.8167818816297159 -0.7257249776211954
Ni 3.4159415355030096 6.510429240305186 0.009353427317328373 -0.8112928334906867 -0.279091448385371 -1.5828358978872612
Ni 2.35119949581525 3.9538131827192706 10.049321365423891 -0.7749878284120653 -0.37193732597351425 0.6487844584093988
Ni 3.5720932509188015 7.749312171622277 1.7985247868497265 -0.3640304124216118 1.730964607208109 1.0747563455308133
Ni 6.724863998025421 3.806396369139449 2.104479596595556 1.6101397279085368 -1.350224081120668 -0.11205278953389733
Ni 5.366950323311132 0.27056665338874913 9.501195415609056 -1.0138073166512669 1.5698947643455607 -0.32916008290698795
Ni 7.152770313479654 3.991000256697705 10.784252398059648 -0.707687403393194 0.44842533102892446 1.8226452608435577
Ni 0.29371083815607885 5.502912611564432 6.631419434654777 -0.22962316645191422 1.0453398400419094 -1.5703436789575214
Ni 9.372511897447827 7.1466794900372745 1.7098631724303464 -0.5678625859523511 0.03534752626135848 0.8002987963730281
Ni 4.462892704856749 7.6721145256665375 11.113441102375447 -1.0991625422893199 -0.8636566918043836 0.8766109379722065
Ni 1.9867416186700821 6.196558248711687 10.185735035631527 -0.590036550946229 0.6465691959256348 0.844958601174248
Ni 9.010150396743294 2.6946369497313682 12.043234102422877 -1.022580949078839 -0.13414705032977542 -0.47017429267024186
Ni 3.0646757209144373 0.18299477699301323 5.40896756192643 0.7907839149040574 0.802921835818172 0.11202913538481352
Ni 5.64253883702028 6.302576349157569 4.824546914590998 -0.8604615819058535 -0.36449835319696583 -0.9393222009584984
P 8.04695985364367 5.841770143977367 10.100058396855768 -0.09792869142768941 0.5745554245914943 0.5753542663437059
P -0.08354626704149351 3.7018891706327626 7.409057054915587 -0.21548981237432566 -1.7110118182352663 0.5630070576322626
P 2.9023104212737065 1.9607824347272897 6.8819250875458655 0.6866431811283852 0.23100950527647957 0.08885166882708569
P 2.6717751147639257 2.6157300959569154 11.825802092980764 0.21326992190487137 0.2827413864331324 1.1253628548337715
P 7.801258868919222 0.8008327979685881 12.49951987786375 2.5418810311959836 0.39823893998252063 -0.406573427990145
P 6.898287211233635 4.698753940702192 6.457012246558662 -0.8285631905353602 1.6040654966899988 -0.0483105141799297
P 9.398112242180062 4.531298790153798 2.6085174278246837 -1.5239599494866594 -0.7898696306199042 -3.13284755015565
P 1.6956474738099465 8.962764734675295 2.9998721924286564 -0.2280077423356783 -0.7619268814630491 -0.08632633130207068
