# total energy = -340851.40198739833 ev
CRYSTAL
PRIMVEC
9.47830190464696 0.00000000000000 0.00000000000000

0.00000000000000 9.47830190464696 0.00000000000000

0.00000000000000 0.00000000000000 13.87245291888420

PRIMCOORD
 96 1
Ni 1.3476439355067906 7.350783379436676 6.860594034705243 -0.5320836285805288 1.2948494610051053 -1.8461641699011044
Ni 3.7339107262899076 6.83779871838606 8.882379356742957 0.07120901604465801 -1.11878545872657 0.2269232510222479
Ni 0.9861320187791844 4.470867663690732 12.703782393169703 1.4189751225431368 -1.7515647999569641 1.629071531816033
Ni 0.9388798397995527 8.992036676115724 12.795701070342325 0.6172316233037821 0.8270554956415821 0.48422228612287577
Ni 5.8410036098525815 5.900034474732357 0.9155404689453523 -1.4115448915173368 1.1317692725807478 0.9234374114074418
Ni 0.5188289820661688 3.9826024142660734 7.359142293973843 0.5677353163458674 0.44852457561095016 -0.5427956156813942
Ni 7.809978676615626 4.5169890812413085 11.534459440241937 0.8696401630813281 -1.3110656657536517 -0.7616633433890173
Ni 0.2867830880691077 1.1288183771446543 2.1760882873390632 -0.2852037319306959 -0.28002295906070485 -2.1794994672317047
Ni 5.077914993827233 2.0094853295273607 11.415308653582146 0.5526748224683191 0.10711729990549294 0.07428765496998173
Ni 9.185602559637685 3.1008644137569354 0.6607153717425164 1.8958877623784771 -1.2667938404194699 -0.005241708014913554
Ni 1.0154957983870114 0.007027213105630352 8.608079192412877 -0.6774144634412657 0.13463041772409717 -0.04630916747918476
Ni 4.044770597109113 4.1449183360814486 9.80134623186269 -0.11784471362532609 -0.8254398144150301 1.43528517255707
Ni 1.3620035630425742 2.55798518818628 5.7541131718929845 0.6482342423328836 0.004984340588468836 0.09956648414142853
Ni 2.6105518510994523 7.325239355536387 13.022654272672735 -0.22300309003223528 -1.5975883736060874 0.8041618788728602
Ni 7.358868371045933 4.376795516302843 0.3335670389297508 0.2418233080625319 1.6875499876679003 -0.9430880957588338
Ni 2.1603230276161134 0.1310640644483887 5.771758926733493 -3.635286873507184 0.9952406093926731 0.24785974406459896
Ni 4.480374400600561 8.504558125757383 13.906024436786932 0.4450756978304012 -1.6100204287218531 -0.3425830411811132
Ni 5.071213834310534 6.170924346001464 5.505352292312191 0.49874490521908305 -0.9931271625940962 0.322182108927258
Ni 3.4076960062245183 7.004749529881304 1.5930712962728415 -0.6241882571272733 -0.16666327778992587 -1.3245863259479058
Ni 2.8015680713823876 5.764542147587785 10.84745410223143 -0.05924541592487862 0.6174427108733238 1.012740051729017
Ni 8.511543634334195 7.908126493865157 8.204265613842233 -2.183503960405407 1.9622890726218463 0.4292700982567123
Ni 7.403994566886107 8.974615557032706 12.716891832671184 -1.6310867624738488 -1.5441683061137343 -3.4796112050770134
Ni 8.720217931250243 5.974647668106409 7.3270136936715025 -0.26134029504953704 -2.3376169123341484 -1.263258830683018
Ni 0.25065748781175734 7.627587711156164 0.87054602150303 -0.5812207524268119 0.5469703158843742 0.029668987819342456
P 8.756026956220666 5.734732887785778 12.986821551947303 -0.03643973088427272 0.9528526313447654 1.383762836308062
P 4.167163910884409 5.550891742119733 13.180980777174705 -0.42372088630370897 0.28134142076181223 0.29760621936010684
P 6.202856745452325 3.6879030483633772 10.1593938292079 0.20038715240493232 0.2609212052342474 -0.40320194041475077
P 3.293245509528421 1.525049314112244 10.382074212994988 -0.776084918130986 0.56433348975317 -0.5621297972336319
P 7.023203783882736 7.706883185720103 0.4478251260951706 0.4336198905849758 0.09149656264910049 1.3826924860620187
P 8.026330398154766 6.018930295068245 2.3532396474508146 1.774137028830525 -0.5765547144097102 -1.8134957331338057
P 9.465392556488377 -0.44079506949893904 6.635527014473592 -0.020848561314235063 1.0790212914547546 -0.9771806665671688
P 4.9243949362713995 0.7950987375526419 1.5085741295692086 -1.214995624801256 0.7028742982752669 2.237561918592075
Ni 8.933669292376216 8.465080997911482 3.1376155819465374 0.5524951023573452 -0.20163465165878822 -0.14748413375831373
Ni 0.6488523289545384 7.313486261051654 9.448597005337612 3.1217540113456494 -1.014077539593518 0.11387287346177163
Ni 0.3911003320929235 1.0731997009862526 4.281330058520392 -1.0444888048955236 -1.7442914062240022 3.1108715601051906
Ni 2.749039321677231 3.8993450094645397 4.255915887357555 -0.11547287095903984 -0.480727642706056 -2.2372456729032377
Ni 6.474997752585936 6.568093634867433 12.533164426629183 -0.3031598021884843 0.15605079238140224 -0.5438981047169535
Ni 7.397388190389447 2.9676089658852645 7.83980878868204 0.2623977897797739 0.9720649426071579 0.8951730172451099
Ni 6.587922242659419 4.728260432906402 3.4592484908232817 0.5681536348302086 2.095245187967314 0.15950455525795754
Ni 8.586052566386206 0.5841202654194662 0.10734177019323406 1.847520941039315 2.250763504884014 1.3436937362013182
Ni 3.362806767934438 3.608522269081405 12.255562969711173 -0.30091060114299145 1.0667463307421434 -0.10745102909582785
Ni 3.0625720736615127 8.567693095404811 7.714735011100065 0.6476498305843233 1.343259991098009 0.04155674039586391
Ni 0.07670315896589375 2.230699419994459 12.03205039100815 0.6084729032745456 -0.40960810105141066 0.6366537365841358
Ni 6.885995884075473 7.315344008244402 6.4430331269082615 0.2627232914399927 0.4897481010371114 -0.3453014685535408
Ni 0.44733794137217436 5.514457149217058 10.937236370132391 1.0722446348525534 -3.3893451724009047 -1.7423774770307412
Ni 3.098362142027928 4.080570143777532 7.856844140873502 -0.2894563365594628 -0.316861468045293 -1.573236427124284
Ni 5.758343338077289 2.380380765238746 6.162268760611577 0.3975491130043476 0.9860951954479791 0.42524272226487414
Ni 3.015265868360459 1.3034276566589817 12.59872584158959 -0.3200928304983971 -0.7252783770020799 0.17134448531567908
Ni 3.082637639003594 8.385444304475406 11.031042177233973 -0.40933504989568215 0.30478833893084284 -0.5572251608431629
Ni 3.729996187562331 6.38289709201484 3.7104926855290756 -0.34049916206889097 -0.7065319496325122 -0.322801744789128
Ni 0.36807564086524985 3.218423793510285 3.5503766776087855 0.11220936971641965 1.336751243445214 -0.9948312897693964
Ni 4.246203471294244 0.7765639179841767 5.502827272658374 2.101085448798175 -1.6776756659769816 -0.5990894051771167
Ni 5.434896282197014 4.9239304994732125 7.5461425576977605 0.19528582662262498 -0.19215679407534003 0.9737929810418585
Ni 7.178373065987234 9.414560422841904 1.996079219173161 -1.5250220722025865 -0.6557243800623417 -0.8828499769033827
Ni 1.8058819241833552 2.0991026749734556 8.137830299437075 0.4339993854115817 -0.2608376443815056 0.04929858912481187
Ni 2.513702561224444 0.04314807421197875 0.8420912110573692 1.0972825516577875 -2.7278270684749213 2.2390690992652216
P 1.6017761688331476 8.857056177279357 3.2314630935769366 0.4556961536587249 -0.18731077883694838 -0.22596140132961084
P 0.525115939785301 7.297430017457186 11.587160695043561 1.0362641029928863 4.4579673800095225 1.8904179975131572
P 4.3364369063705865 4.461806406975082 2.876675084290839 0.8280782804791416 0.08281420438375416 -0.42214454295552456
P 7.539752286486787 1.4178118052410522 3.456890289284732 2.1420508354669434 0.6545858955825243 0.4725062832375282
P 1.7713524699834478 5.848766339193708 8.087237966831298 0.5441819545059596 -1.9773369680939044 1.453863964000522
P 1.4265792345945836 1.5981554574676893 14.241737363290346 -1.7188989342928267 2.0277804694564368 -1.9978230038623983
P 5.180015263012356 8.357085224879985 11.642567057237079 0.8810165232390698 0.29978342951708375 -0.1177513825805714
P 7.5832008228722865 2.5287920180145216 12.823958732106307 -1.2060489571309294 -0.38201296504196147 0.46044600963888443
Ni 8.364857432523115 2.7626501633547127 5.742876644867459 -0.25161869688639893 0.7097442859222228 -1.0994985854725
Ni 4.3234611109273615 8.895623388132892 3.205493493916677 -1.0096678405615966 0.514400866588785 -1.5111594552878813
Ni 3.5572541335427554 2.225609571818409 2.8486667018695577 0.10751556378517613 -0.9015845771984087 -1.2956341616899298
Ni 7.02398100464705 2.3616516404792027 1.098653681017505 -0.8288236432855983 -2.3856916563541883 1.8047645239083951
Ni 8.937991398089956 4.447844868123459 9.257823429585974 -1.2176274059971481 -1.1000588288513442 0.17452339726429297
Ni 1.7827833022000519 3.500099972459736 10.087673413605414 -0.41681413188154665 -0.2854914383744438 0.9561356729714113
Ni 6.856651061071654 7.146099447664236 3.6272021066705284 0.9069281008985091 -0.05508794211307932 -0.1874511610695546
Ni 9.103349854848558 9.225307166731678 10.862810847138016 0.4696968388131911 0.9623999087135682 -0.8674714375647835
Ni 4.497890302703616 9.408427961445433 9.430618562096772 0.5483309436773267 0.22508928313730264 0.5612587074825882
Ni 5.880613433926535 2.7618634642883957 3.4116247624051006 -0.9790799404724106 -2.58654906352732 0.4305363665636456
Ni 5.153627670233727 2.421905206317471 8.751159848141706 -0.3603174823463988 -1.166846575899855 -1.0340925492628643
Ni 9.450208316678262 6.962116127468132 4.836672303395868 -0.29529274073558176 -0.7104107158616281 0.6535831653496228
Ni 4.9250773740156735 3.5770069149187114 0.9246197344348093 -0.5033754620125589 0.11872814467154393 -0.0630043687466786
Ni 0.4781045096765662 5.313564538246145 1.0843461841427422 -1.3564302099313803 -0.4201208276572765 -0.43371065052656915
Ni 5.455577937169344 5.777726465675095 10.226412059186293 1.681249499371169 1.5340443303058549 0.4170771557349462
Ni 7.8679290150669665 0.6362850483276766 7.985372759535869 -0.24605920052075042 0.2939172005442938 -0.22597271418352052
Ni 5.646878506512394 0.8719402797277915 13.534533763709707 1.4228258637477949 2.1217383491618365 -2.6655606063355317
Ni 5.717880466822992 4.252544455334798 12.272570834826825 -1.4669063990067768 -0.7637348812060654 0.8424625742252715
Ni 1.3810170368622323 6.249840688485249 2.854104403729148 0.38736137383806835 1.108110495511227 1.585231137592315
Ni 7.064387006089325 1.7343586572625478 10.109009071416006 1.968064284542727 -0.3687213901393779 -0.0010960612776561769
Ni 6.9719166917400806 8.732596593667228 10.112227902776503 -1.920798152466911 -0.009412037342519275 -0.11739451346178492
Ni 3.5837744225494372 8.03912610585992 5.37048458526967 -0.6377801368790952 -2.0661459566085125 0.6524994453671408
Ni 2.512223946111849 5.187171381025237 5.856477885704014 -0.9664704792385161 2.762992560632461 1.8543575043451743
Ni 8.018918365987782 6.678695940949979 10.451506566493753 -1.6333009965163485 0.36615440074315003 -0.35495570381385316
P 6.648858246241962 4.534419678626328 5.756152902484206 0.06441950392665034 -0.8969817883190746 -0.37175606320064364
P 9.718861308674466 1.8826277355082661 9.950724271442855 -0.6382660753765781 -0.6427192260519253 -1.735622931915727
P 3.555538560880065 2.647090705324169 5.808770748228199 -0.6204035932738605 1.6772696887878142 0.7835346895408118
P 5.585440152923648 8.204588823940563 4.724721234938177 -0.915831574035726 1.3232660644745855 2.385979362797936
P 5.591250352051988 0.41303691425055894 7.654778116114516 0.5176093462237537 0.8452954156883765 -0.7252074145548285
P 6.66196673791324 6.561885347054931 8.522361220411153 0.4809688121825846 0.42860701075141666 0.05967170482901982
P 0.251890614902454 4.7674058201821685 5.18191566256412 0.6733240954219758 -0.32081325360418944 0.6323749067031239
P 1.7426995630259072 3.5899921886639414 1.6131586617095321 -0.09847556507009492 -0.09844676871468852 0.7462706629830308
