# total energy = -340855.414599288 ev
CRYSTAL
PRIMVEC
9.44292322597874 0.00000000000000 0.00000000000000
0.00000000000000 9.44292322597874 0.00000000000000
0.00000000000000 0.00000000000000 13.82067264652683
PRIMCOORD
 96 1
Ni 7.34987104698478 4.8304991019068915 10.644143445102435 0.8171618906769539 0.8767068401201223 -0.6790764245247208
Ni 8.047958040177333 4.516021426168777 7.134742367626593 0.8120063146179436 1.0294085135236335 0.6364326217122652
Ni 3.009195264174891 0.9093506840307989 9.020117384461097 0.5214261488666826 0.9113905075452368 0.4576957005872569
Ni 9.262969542430808 4.474406463042997 4.204303916920717 0.3114220421972766 0.8155559796424148 1.0901230577948708
Ni 2.8086086867485625 2.3516467408482282 2.311922250973589 -0.3100866112153047 0.04315185279712568 -0.81606634361993
Ni 5.036524803172669 6.114613917106693 11.209326013853461 1.0310640468491856 1.8658927586782834 4.153972740624568
Ni 0.8578291500370228 5.5803144291142 6.290782983380163 -0.8708213278736229 0.14121886957489227 -0.009554733567970642
Ni 1.1547089938529216 1.6883663630588128 10.387272323153478 -2.2864398752397013 0.9853796574381932 -0.7645077548163479
Ni 4.436823628180141 7.761091472263086 13.590793506585333 -0.021125726235021684 0.87914964523366 -1.012064108707915
Ni 8.603721292904316 7.116017050658491 1.0118989428357348 0.7862636584362007 -0.7883125705454294 -0.41334597082728813
Ni 4.549997064318665 5.016005330771416 4.588836752277061 -1.2049151006368024 -0.11991702277332252 -0.8709959057782741
Ni 0.5553251010843611 4.164678577741068 9.743712546451397 -2.2711053017651595 1.4729338361477793 1.9522342594890056
Ni 3.709321928807237 7.506595245532223 9.6483361879174 0.998711341550093 0.5293821704889657 -1.9475939325035165
Ni 2.3695882951797422 8.655619599539055 7.8158113243895375 -1.1339886488295696 -1.2810948304231744 -1.207363562177295
Ni 1.7476018211228068 8.04218841402125 4.672797560794548 2.405400704747341 -2.3778644470002854 -1.835268348924207
Ni 0.08756989381512109 7.989978490916545 6.073936636267817 -0.5508902197640706 1.0985639894733725 1.3260778228917678
Ni 4.614898276382085 4.762377852987132 6.953788572100606 2.346984212481661 -1.3186231663859354 1.0316762265118877
Ni 6.304445004857445 6.573162274126866 0.4655663376407952 0.9814947205614901 -1.168205918141227 -0.8379330617860343
Ni 2.692356857603683 4.034819496074234 5.9418254173862115 0.34136948048898624 -0.9169741722806014 1.8155132777844667
Ni 7.482034201944713 8.543258254807114 8.593666468140002 0.16078702151480695 -1.233532764373495 1.8013439282626202
Ni 5.57594235561131 0.12506396519865282 4.604979429713757 -0.08809165073260958 0.9662501356975939 -1.562084781382839
Ni 7.175894627509087 1.3307439706150728 12.694744124360517 -0.7033836338115177 0.7762073026414632 -1.3259469537408584
Ni 8.57511867813055 2.136876892576671 5.089269195737987 -2.1928656041259655 0.7206686461442104 -0.8118155387633761
Ni 7.556944912740451 9.44906123254194 0.8073000672854794 0.6532201255832492 1.1459327085653233 -0.8692871506172836
P 3.3450233895675074 7.8063986184118255 11.593042980633887 -0.6910706207721194 -0.1422516817147808 2.800151686181261
P 0.7161078680800589 2.446510348645276 6.289953894711581 1.0998266582358802 1.5145571681155205 1.590395198291758
P 5.6423261066379125 8.508819913413937 10.328728087077414 1.4037408220918857 0.07897477603300593 -1.0616691733295522
P 7.756851599686849 4.282441274619127 2.701029238392137 -0.7153148380314648 -0.048391503929510214 0.5676193595932933
P 1.2085336568474643 5.167668122412705 1.032079414289355 -0.7182145281767631 -0.043980005125375865 0.8562328885364866
P 1.2931233640588875 3.5509546615999605 11.862339101103583 -0.964796433970203 -1.924794675220814 -0.14365833225432034
P 1.9156197559757708 0.28087692164452127 2.5161367995442165 1.0109631623342525 -0.6480349818378839 0.8819454628112424
P 4.699365225590188 8.242992178684226 6.005966474121375 -0.6733459497988468 0.034263292058244216 -0.29136358088450465
Ni 2.3774353644689468 6.338836131633958 13.515291668788986 1.2902417870297649 -1.2389071413115307 -1.121068855444108
Ni 7.815624354507556 2.503526719726162 0.7389295251897449 0.6645075255716104 -1.2884584698770971 1.7957432942463911
Ni 6.94975549954535 4.307757752073227 5.116440263334566 -0.48509131899139035 0.07109228796113562 -1.549644755847273
Ni 1.0780135705473644 6.518138359869111 2.7502721949858104 -0.3254247842342718 -0.4001798657589753 0.35596331914276114
Ni 2.702309698796007 7.8669938574356815 1.4467068463059818 -2.5338519902439196 0.9324979789478134 0.13650963702468102
Ni 8.229309382775613 0.3508253762290957 10.913977812202074 1.3878804580208615 -0.35871491374596937 -1.5541585845572266
Ni 3.1022552736154556 1.0720173142313059 0.5080273866971566 -0.1268399751454009 -1.671221939931838 -1.0081334061949412
Ni 5.111860445518364 1.1194491181298298 1.8895487889474145 -1.0939311186870515 -1.7775365414303772 -1.4272520178399486
Ni 4.608987006376018 5.21049177972503 9.410883493509143 -0.6489585220934179 -2.3021930243088997 -3.047260411012449
Ni 5.000991082672939 7.011304473825774 7.650516728625631 2.5669621425343276 -0.29969189824454195 1.4474704017693523
Ni 2.664386918693185 1.8595004626114613 11.913226070649424 0.6189673750479663 1.0870107374181346 1.6993343818973377
Ni 7.002154281116702 3.705204814234321 12.797307491842785 0.7437666656142545 2.1842500945428127 0.5504904132224906
Ni 4.195962982741229 5.862270676895611 1.4040002812429786 0.4887343150606164 -0.2654226926490268 -0.491940737813056
Ni 4.443263701892821 0.6909944134776053 11.30511691672175 0.7250572621302094 -1.324360840200661 0.49035616693475553
Ni 8.823656420238683 6.469611176864031 8.714777625631722 0.16746880441035675 -0.3767005516901125 -1.126554818259344
Ni 6.999293075346993 8.462171872152002 5.962017220347832 0.7322674067254034 -2.6148227136610322 -0.6858844485854898
Ni 2.8063518280721245 4.503651196603365 2.651772117413464 -0.8968059248628426 1.2702506886198188 0.39504383008399063
Ni 3.069110612718816 6.329279893221593 6.796260780777579 -1.6521633806384903 1.6499717723038103 -1.1929913526160227
Ni 6.189175239739132 4.017293430369344 1.194229516583581 -1.1406071825873518 0.7079848800289549 0.9784253376075472
Ni 5.037412437965912 2.071088045720008 7.881390538348222 -2.5739208332403476 2.465154427767206 -0.5760641479265369
Ni 1.4769959671869106 2.9644169217327643 4.463953146914056 0.465645808672269 -0.6372101233082381 -2.724167103124831
Ni 4.9190359510712485 2.869638300245708 5.469876607865063 -0.8552602402105722 -1.4890369123572291 0.4607925943450258
Ni 1.8337779394540692 3.3115954409708968 8.349344991299775 4.244500768712813 0.2243122957619621 -1.9416384862510303
Ni 0.7582941280674482 1.2708097362244832 1.0744856943903889 -1.0438563135178474 0.46681823171381537 -1.893222299731172
P 6.822389349638263 5.595999124769276 8.66546479140539 -0.8726228998587359 0.25577411381566917 -0.07621315412746874
P 4.970292138919384 2.621119443984239 3.3955458622727184 -0.8316387441368903 0.8061112892897472 -0.5494213485280279
P 7.945776166797693 2.6997412236496006 10.86596526851861 -0.4542565929987209 -1.008459164965476 0.3307629086177336
P 4.671612473916335 4.517371764205307 13.262898381084247 -0.3464818620148872 0.8482146462177005 -0.15608807337724087
P 9.074687094106563 0.278272563389452 13.030475931935145 0.6189750883574501 -0.38396288967948067 -0.021697025357459408
P 8.147552552563901 6.465475176444452 6.190984503849616 -0.24674131418943956 -0.8895261033719777 -0.4956264141947593
P 6.598941454824252 2.9051814636687707 6.852662417549526 1.6516003090461686 -0.045852539557740386 -1.084264285021249
P 2.4387293798193985 5.334694550315771 8.613388957812003 0.24356008824798056 0.9272706691106031 0.08584810611407151
Ni 5.490342255603323 9.459448448207551 7.677010738619277 -0.6417486346085399 -2.298308858763145 -0.06083847144361135
Ni 6.765712923797343 8.04488909009431 2.2057243023006903 -0.6491230726957401 0.3031294631711811 1.7904355088802324
Ni 2.454687920251114 3.6560071836726427 0.09879375248798308 0.7306496686163223 -0.44774861667687404 -0.41949502114781945
Ni 1.6372140473673327 9.112090513426104 11.367420380576432 -0.26092223367551187 -0.16117911474690305 -1.1286178714359596
Ni 6.0094103082606924 6.333057062554544 3.460074078864509 -2.2682814591631195 -0.664554576759462 -0.7894538832387242
Ni 1.5203673140525134 6.762351243091017 10.008585601632207 0.41160919064183954 -0.017145915651667246 -0.5623267437357864
Ni 0.4953360977384434 1.718621489415745 8.165280696828104 -2.196934117768384 -3.8798743745784154 0.5652945681148587
Ni 7.807012408428429 0.6650518702065689 7.104793191985629 0.7310672157697151 3.4754737858698723 -0.20032698859095824
Ni 6.928593908357494 1.777120399459814 2.9260578785719873 2.325927391811362 0.4715963698287491 1.2652190397331822
Ni 7.798712078819271 2.8556627737137914 8.697197735263838 -0.06428349256941833 -0.44338262639869447 1.0362797867221702
Ni 1.1043687695680255 0.6013536865756941 5.164578397898352 -0.7739910117164347 1.2467937431484593 0.025423582279427183
Ni 3.055503360196862 4.595899114637345 11.404335600759689 1.1580143223202055 0.051407922158330815 0.19628752841426195
Ni 0.5739210500028089 5.472617888508453 11.860846174924735 -0.2593649164907211 1.5655475431204586 0.6128921153881639
Ni 6.0543208516294715 1.2854934820063277 9.688554542682322 1.412097164476381 -0.8837411212590845 0.9963886069541873
Ni 6.880142268739074 8.108279434424551 12.19547221617714 -0.6563522434543276 -0.05558005125814944 0.514212918947695
Ni 4.742283312135836 2.3415616987292505 13.242388351606325 0.7881616467898619 -0.06651366745151771 0.41093556161358263
Ni 8.084247194543654 6.473010629263687 3.95510328159465 1.7256280254865444 0.9613323866810025 -0.06980853615270557
Ni 0.8482700787476587 7.895162097736159 13.0973129432817 -1.35371923875812 0.11689777633102447 0.6367668651232323
Ni 0.1954430170871836 3.182501236093986 2.313884490442057 0.41028841494788687 0.3268206361405339 -0.9837950865598927
Ni 8.901928811740747 7.230068678666927 10.882439392564272 -1.2064613620779998 1.2381039286839453 0.8998395694828438
Ni 5.7132424608640555 3.180829838664155 11.175465579368227 -2.826452014638687 -0.38555260276410375 -2.421745207543635
Ni 9.205499911029968 3.9554045108489526 13.537349393401085 1.5077285752294614 0.6829389928039206 0.5795204819062536
Ni 3.428357187975725 1.0687878344516333 4.011118702802304 -0.2342969177784997 -0.7525444118068847 1.7153400132969747
Ni 9.324707375177882 8.961985804134658 2.4872650614554774 -0.3181999843510584 -0.9805436695021307 0.659726045022567
P 8.242057329274319 0.20731371600831333 4.209154746636558 -1.174994658928286 -0.6149541401235151 0.7804611928218108
P 5.569511724821962 0.21933172453342814 13.527577856336741 -1.3087624715417716 0.01789410667160144 0.40523311191216665
P 2.2502486301051756 5.533043154912326 4.492907038435788 -0.33990343746642104 1.3435106736562346 -0.10753767527236319
P 7.81098787915136 5.970156075968006 12.543877371156148 0.17309669212009546 0.18559096793236424 0.4977221203815235
P 0.43674370275338426 8.79236257231519 9.116005549439707 -0.24383673894813487 -0.0029130598817369187 0.3933839258830644
P 3.852476646526055 2.7377017754457516 9.711012647243711 0.7193316725003418 0.6828443762075853 1.2210336034652196
P 2.998505874962641 1.4085064442571882 6.204418006582253 0.8705313074370297 0.07407733873138854 0.33469798200608164
P 4.522263198491478 7.9863335225102485 2.246024810498604 3.046427630698508 -0.48749041535118626 0.7015851471501982
