# total energy = -381176.33761071233 ev
CRYSTAL
PRIMVEC
9.13943067470593 0.00000000000000 0.00000000000000
0.00000000000000 9.13943067470593 0.00000000000000
0.00000000000000 0.00000000000000 13.37648062024587
PRIMCOORD
 96 1
Ni 7.899548094099368 2.145024380172458 4.627272731679765 0.8775056818723339 -0.07952704899205013 -0.044035026733027394
Ni 7.37080461107373 -0.1562120630947834 5.698447823057774 -1.0966765426426726 -0.7518705256683116 -3.6448120393888
Ni 2.191333875418874 3.596521342191415 8.537137626786974 -2.039362260756765 -0.5047864834274726 0.6454085999586304
Ni 9.0565177630828 8.822776823487953 7.22374111808782 0.04849871893133583 -1.147311591190721 0.044160753677614274
Ni 5.670367836242087 5.149612215629192 5.790852036929669 0.44720354280668145 0.22515561759886382 0.7854167370548732
Ni 3.54549590071505 8.071808083521994 2.210437113422438 -0.0016704457238874456 1.684091339695338 0.8775761300989532
Ni 1.3142318526631407 3.147135535744548 4.601963820245707 -0.5940310168176028 -1.4048116865585611 -0.1899646715200277
Ni 7.826131047461423 6.369927278643197 12.20685484139392 0.7803853452785527 0.041867329657747254 0.06568885755737719
Ni 4.649667078670547 5.530488849712306 3.7373755059745584 -1.487762930740812 -0.932766916338484 -0.4251987564008161
Ni 3.335252437393843 6.147007424971332 6.772351948436293 -0.8774771426272436 0.5983712960641694 0.22019030317378852
Ni 0.6925760034199006 6.246819147407905 7.79558524224876 -0.9933701318428375 -1.6952825804254672 0.1465258836101025
Ni 3.0794397727111544 1.177670479469545 4.2447455164161685 -0.09701363581258776 -0.366852198141123 -0.263469682687714
Ni 2.0540413477710224 4.9614130591037915 -0.0690127549941212 -0.515896477297705 0.37804163909903926 2.41398458976161
Ni 2.946963725030712 3.403441729683859 3.007675135139828 0.0017180111323712348 -0.18370274977071588 -1.8643812071297632
Ni 7.079503537067609 7.901668442016709 8.20723342548229 -1.049177982841077 0.3648958457457006 2.32456804956999
Ni 4.120009652577091 8.183071512598346 8.704597587217412 -0.8078066747142991 -0.841279352550448 -0.2699288080494964
Ni 5.913869687801246 2.690529579061906 6.46691308911407 1.4431923432192886 0.7458364036590897 -0.0974628075348644
Ni 0.39460862867710317 1.3418329333112906 2.990927128422036 0.7082638447219544 0.10768139993907906 -0.044659033470271475
Ni 3.7645771935020718 3.1978959337312447 0.5745841254782624 -0.41093479028263413 0.25365938146551154 0.6135657444164208
Ni 4.561864568145125 1.3336805611463403 8.177884885688469 0.21403919597072815 0.8144989991328101 0.05061602238465477
Ni 6.313180553562281 4.607397211783894 11.560195337701272 1.5471207038738386 0.30913376038373214 -1.6040179312815148
Ni 1.398744168144413 1.0404236489750849 8.14725316982743 1.8438218949211729 0.07176128900370222 1.2575502103340146
Ni 2.9819860233895565 1.6053592774863765 9.993782830106957 0.362113397904557 0.18515593727747465 -0.09025934780788972
Ni 6.046601639540679 3.2338778723112998 13.370461564935857 0.33836566066565593 0.168936904315451 0.20176937746443963
P 4.405406654365097 9.073809565925947 0.2956523569520104 -0.31895871689395394 -0.7034006030923822 1.1905778580785238
Ni 5.726383406868746 7.261862597389642 12.729246420098212 -1.1753451002891695 0.8234189273302593 0.6417794878464753
P 1.2191726341792302 3.087043779035413 1.2853503377769753 0.007170292496194103 0.23839062823189913 2.453759298556387
Ni 4.462692605856026 5.146852107564377 12.624548758021076 -0.9457653854806809 -0.09791455036030235 -0.05036276872326811
P 5.840041366782784 3.6072784520996506 8.375991185069033 1.699476563902157 1.2639653698317395 -0.163190488749977
P 5.446232438290023 4.157920011030245 2.2031602987164587 -0.6605667957563075 -0.9541991180703306 -0.9828499490378041
P 7.2808726132002874 7.7275988453197995 10.653323447397453 -1.7079804876081102 0.5556141076023011 -0.405661714809153
Ni 7.728000980269639 6.605185363730625 6.584104352928298 0.3196891673020752 -1.3972778400753614 -2.026089969127891
Ni 7.353174649295491 5.493218251406625 9.096542071851822 0.01879090745425796 -0.25167191872183753 0.5698834730371218
Ni 6.372239554604779 1.1172405638253171 0.8009513724019415 0.013139879816067693 -0.6474562265162785 1.1600249249923311
Ni 1.5593696623136972 2.7527965202724514 12.696327104738419 -0.44885959035286566 -0.24385705066310906 -2.3105809912622783
Ni 8.839291774723453 4.548575835939029 10.91986306186714 0.39379607371981856 0.09980662517669263 -1.5806376046843618
Ni 2.793503544513133 2.2613693327058852 6.538155865193671 -0.888085257160393 -0.9218173593055157 -0.49677132643247995
Ni 5.838716149334446 7.610047487936851 2.0048264275120085 -0.8261967471857126 1.0885631695069187 -0.5758080660516729
Ni 3.3843403195664306 7.396303622665895 4.803533963853306 2.0704985771502535 0.690781628776791 -2.9454568100103855
Ni 2.9073717113327695 7.325957424735825 0.026701760669415646 0.48879345043332595 0.5887972792224891 -0.9804382542725179
Ni 6.573636049029494 5.525270234795057 0.6797067710819337 0.07325407149914481 -0.808374374292311 0.6359631382750144
Ni 5.416574985739278 6.577163869271277 10.367026211687644 -0.1865150224085304 -0.16854455397303877 -0.4819751419599119
Ni 0.2947183071366989 8.732707734154337 12.109433994022764 -0.35744813121840374 0.6846472337442789 -0.7140377710912541
Ni 4.18306258482596 5.916977094231833 1.495583747724436 -0.053171698926972946 -1.1936485265840475 -0.3198241502180427
Ni 7.896925077494726 4.043649709260768 6.071277188428738 0.15242630825493747 1.7040567270736717 -0.372876549958332
Ni 4.381104908191776 3.6552604631601766 9.771251402238917 -0.6335781829826056 0.07551638517076027 1.1798974955465422
Ni -0.07263471137189004 7.167260350439641 9.870973558254843 1.165289001604748 -1.6686858037735455 -0.32515661817454966
Ni 7.2134144753645275 0.3638873463954172 2.930853650574257 -0.40102987246409644 0.19726686160839574 0.24349632488958065
Ni 6.952483729502048 4.553511128505254 3.7479562248707055 -0.1099984781080299 -0.8647190716306269 1.1846154698475018
Ni 4.33515185074181 1.5405881322700057 2.3319750904672154 1.9410602451500567 -0.78707792680738 -0.9366827064531222
Ni 2.2511057520542717 4.56426823841349 11.063941616793551 -0.049073874708515486 -2.1325151280623658 -1.2736044355834002
Ni 0.2228074386745219 4.57110453256078 2.7865219334180598 0.3937343672439477 -0.25943973559271444 -0.14519996570982735
Ni 2.9016047305748285 8.802103431293876 6.49020127242518 0.19867145526540622 1.0537758866244045 0.7505947442796815
Ni 2.5725029712836904 0.7657682200631605 12.078507074550819 -0.340527187093349 -0.405204058446444 1.4519842304793058
Ni 5.837390931886108 0.18659153066910486 9.937239914330165 0.5871918824085823 0.06898784002362313 -0.38372377708548105
Ni 9.221411371378801 1.2055640218993973 0.6428309961815508 -1.5467885173454006 0.9868305309521068 -0.7250891438094094
P 6.911529940633056 0.693262374663833 7.3567563921782755 -1.6469373563528602 2.1287242935613664 2.690982388842746
Ni 2.307569154784163 5.295322158931661 4.180471556228691 -0.32160489626754935 0.3633218163903614 0.7140280008992413
P 3.8410102522638194 3.0252246699280994 11.759906521108926 -0.5272363277905565 -0.3290353844036656 0.38241765667954786
Ni 1.3650745055259415 7.077118145660599 5.592265003495433 -2.3410048549697744 -0.20136957092285965 0.25216299942564313
P 9.199202554830787 6.065538539905899 0.8547113315372223 -0.5869579120209052 0.005139378109094375 -0.5452042251228868
P 1.825381931633252 7.912864244597498 8.002894034379198 1.0105240179143047 0.6346115093431264 1.8795491731194531
P 8.432605388405113 5.890765207046769 4.558409863348767 0.9922398748931363 0.44751747450267443 1.091306793690327
Ni 1.8336256981049845 6.452017644994747 2.122968192116769 0.0006476608863279169 -0.7500864371846953 0.7685153333138441
Ni 8.476310145908245 4.1026538737191975 13.010353373125875 -0.05430941207584195 -0.842033457107653 2.37841337752522
Ni 1.994415702026476 8.305238282473782 10.421214810121732 -0.36299117252382 -0.007375466528464717 -1.6529408822344631
Ni 7.442814185387231 3.1318087104972134 2.016424365042638 0.3372498018936579 -1.3432039410490932 -0.48793804441156613
Ni 8.860888249416028 8.187924550288466 4.114579002868107 0.06317791821006538 -1.0603196012801932 -0.5760078407673047
Ni 6.563893415926538 2.39322389910021 10.701010254847073 -0.06087626666008225 0.3658512676804344 1.170609642486713
Ni 0.6070318462150596 2.2659207691836265 10.110224660605574 -0.13545059963254735 1.0817502603501434 0.5456688234641313
Ni 7.721703912532364 6.49150912495523 2.5688864985643285 2.2475560536903094 0.21287448623866564 -1.4198202441522516
Ni 0.853973779481492 8.18370213331514 0.8999204393299837 0.9103484394339677 -0.12263827835922751 1.1367489851835262
Ni 5.692174517840261 2.310703979506784 3.942209340277342 0.34859839413725774 0.29087944215923456 0.39263444931154956
Ni 5.250319602272227 7.57738316269298 6.500527915148473 0.12518058516510697 1.643775670795427 -1.5135079009154
Ni 6.253454374080274 6.902820063196735 4.205017325201121 0.5900728035008032 2.5541169111405435 2.0376830732821296
Ni 8.629048311402245 0.24530871700423895 9.800332156713868 -0.7970226967249177 0.9192719671758426 -0.23850941319795052
Ni 4.0279847250783405 4.035067783853942 7.2835870241117115 0.5310595581913886 0.3508985030253441 0.9758488351296225
Ni 0.10226931534593857 2.3938088226636145 6.827944363422552 0.4982060019964774 -0.019120265769218683 0.12447070358227594
Ni 7.711431192450072 8.146001981767585 0.6638909862933166 -0.01197208476021164 -0.33326896286903895 0.42458503407621717
Ni 7.553446993746786 2.2921143775073345 8.691020049001885 0.9125235927084155 0.25868434548392866 -1.174476581641287
Ni 4.064003221381109 3.651275671384483 5.061179084386973 -0.856439605230654 -0.7723023111601022 -0.6167513412332539
Ni 1.3495557522343655 4.52977602703398 6.309351132108117 0.2505655730315362 0.3810135772431696 0.800218577954396
Ni 3.247486484591133 5.684095261120737 9.202175611630404 0.002704286305040504 1.388365625187396 -0.2311920536009309
Ni 4.837829677473234 0.8610376454526693 5.8896511104470965 0.30705476636751633 -1.1010697866143617 -0.8239503743536972
Ni 1.040432788405763 0.7308181232066735 5.293688942669467 -0.5974271869833453 -0.1837765404314448 0.38452184750674423
Ni 5.07704513604432 1.2498628423966103 12.189786040659323 -1.8316094120153812 1.6896063559762966 -0.9193629842277522
Ni 4.1283722316476394 8.428410389723823 11.257525725874544 0.3814120982331689 -0.5573475453536402 0.15674087646989135
Ni 5.461513566383966 6.019667737332036 7.955581943587384 -0.4690478923752825 -1.5191219046680675 1.341820173327689
P 1.7188710065095631 8.549187966136174 3.368678991156275 0.017520011161634343 0.402474575330423 0.1751026668065307
Ni 1.0161219028017634 6.430311497134033 11.847375442414597 0.22782622245249154 0.5668431435489012 0.5295546915110879
P -0.0928493041459226 4.271395182330719 8.793832246530108 1.7284184437474877 -1.3496867205599594 -0.971032901798218
Ni 2.51446758647715 1.1447319713053288 1.1515655236234155 -1.526173155087894 -0.8958841843795217 -0.17636842089283175
P 8.376132846244545 1.7293630729281315 11.954681498007288 1.662065984464183 1.4893894106006413 -0.6238925802637255
P 3.206002608742804 6.414180401987019 11.416144201066896 0.32963727965372264 1.1417112142848078 -1.2107296504360503
P 5.196625447037829 9.060959526392404 3.982793896146936 0.2421812056225829 -0.4260035116902986 -0.8446441552576227
Ni 6.993949326489021 0.19045933773211718 12.14113593721622 0.8961490080051341 -1.1586900082309914 -0.7026436703216996
