# total energy = -381171.3879364512 ev
CRYSTAL
PRIMVEC
9.19283787644173 0.00000000000000 0.00000000000000

0.00000000000000 9.19283787644173 0.00000000000000

0.00000000000000 0.00000000000000 13.45464745846353

PRIMCOORD
 96 1
Ni 3.7551088061449667 8.78009785245536 6.112594616117364 0.8968974561353843 3.3837262835522304 0.7456302011855546
Ni 5.447933131859126 5.782322610033251 3.1689863323824157 -2.0660238292083517 -0.7669019660801372 0.09111423960901727
Ni 2.347271647795098 7.436776030403113 2.4545713709070216 -0.9896124645726181 0.7944045423757802 0.016098705334075498
Ni 8.43035633500836 7.327179017102991 6.471187917166669 0.8137554360985663 -1.1107129661310806 -0.17602826394459362
Ni 2.8655822335934094 2.9818532472001813 1.3666826616931007 0.5436145120382637 -0.0867986429527989 2.3739777103513697
Ni 0.10929364964981936 9.001571702851814 0.7869905780331693 0.3023079957111503 0.19143585674891547 0.26552347989294917
Ni 2.6280209168930444 2.5916724358840963 12.680252174080165 -1.0883646803428675 -0.2197763555648215 -2.2499402376517703
Ni 8.830695232190626 4.97768270253901 6.858426101074822 1.6026249075887302 -1.6920242213891699 0.06833889358571456
Ni 7.391345025560872 0.11186580569086733 6.9047497304759835 -0.9504633051769825 3.0160636736946698 0.11826123233745442
Ni 2.4182127777763966 0.0757140514127212 10.31152076551944 -0.18019036574208325 0.6068225121553162 0.5119588328061957
Ni 6.18601689304462 7.528198803198761 6.751016983192033 -2.1940735083911376 -0.7164546080628629 -0.016501597199449002
Ni 6.0480507820222895 0.1430194140093359 1.2348877027449496 0.2774130322416835 -1.4125396513304382 -0.7981807215887609
Ni 6.802856315325963 7.189249677432213 4.35968222483242 1.8044554773084085 0.39439488364608205 1.508795325931079
Ni 8.778222513526218 7.335930598772318 2.143729346982876 -0.36434717233108216 -1.6850398196515368 0.0075937531868578885
Ni 8.744328520233351 2.7061600389406064 11.973775228121015 -0.8903712249810924 0.52367637835344 0.9751392106571077
Ni 6.909732248611251 5.041784361131675 5.843905431044618 -1.1388855719105546 0.9716715638234814 -1.9505792403840856
Ni 4.8610163969030555 8.50191338512815 10.666413949318846 -0.015250755511483412 1.192780007936165 -0.8227193301600735
Ni 8.092749363573452 2.936357892492724 2.5412331729605007 -1.1826516612529117 -1.1540252557654704 -0.5236239278489497
Ni 3.5142748391564926 2.291140179651285 9.955335987996778 -0.8400038282721339 0.9843036507651951 -0.2344604399395575
Ni 7.7347250991894105 0.19479715412941687 2.9388850036281213 -0.13346236555792498 -0.12261436709982754 -0.7880711439585847
Ni 3.0960926436337166 0.9167107134700102 4.326543882813943 -0.13139905527099305 -0.8784613609173839 -1.3806500017106933
Ni 2.7533284901436703 4.705611472407287 11.168783234935665 -1.104019356160989 0.17777198610857772 -0.4401034414267904
Ni 3.2654522960433914 6.924486753421409 7.1360360160340335 -0.47950405471160007 -1.9007623168619587 2.427072276183504
Ni 4.0720318923319905 7.016681724599644 5.059794969121742 1.5689344573148205 -3.481437202542159 -2.087362699895444
P 2.2600408090763553 7.601484106841485 11.83186906677991 0.19731982633351822 0.4474148874865392 0.03733833143914215
Ni 7.973775655627623 0.43440387725984975 10.786456784311044 1.1322546968575984 0.77130626579542 -2.3334699800453103
P 6.448803356909515 7.43809060622109 2.251998914491978 1.6606811883015142 -0.7802133384770628 -2.305782798542687
Ni 8.795137335240042 7.755234320517423 12.085448903500023 0.18611830119074396 -0.5223980258616487 0.653381590861778
P 2.057945460947696 8.426495343095421 8.197271011075637 -0.48033220703985013 0.42696716115514854 -0.3937104559845478
P 6.8011188689651405 4.7010242463012 9.89682173627241 -0.33785452535719235 -0.019549639997153426 0.1445271080125188
P 8.963347882913723 8.374408723622304 4.750352095124143 0.11485760597254412 0.9766026825765116 -0.956540621719314
Ni 2.543033130618961 0.18715606727695408 13.333259897747853 1.3125437929610748 -0.5333599241897911 0.6739198200244458
Ni 2.8039994125820424 1.4130219189186715 7.5477878214541905 0.07329983713541569 0.44028316153776437 2.5730533430337297
Ni 0.7914003823680181 6.48095071100367 8.094450038582723 1.2290132792365864 1.8490852002026412 0.5960159084581155
Ni 8.532828898945322 3.6955208309552847 4.821216924550971 0.9968038401147349 0.4939927352460783 -0.5962305955720828
Ni 9.15653537112896 0.1041998981761071 8.127737304574984 2.8362337766157992 -1.1922547315603145 1.138389863221059
Ni 4.649176640613171 3.972537807870724 12.15043491309751 2.0663279907123315 -2.289949688165173 -0.0045089436139470725
Ni 4.418418023949888 4.424981710201884 5.36621156088663 -0.35893011508056893 0.7409672484922465 0.4385008728263609
Ni 8.533086298406182 5.574628823630832 0.13942225654378165 1.0687978139545333 -0.3374169235991415 0.1994975507111274
Ni 5.421090045226316 1.5186476262511992 2.8917671130334415 -0.6856921300690255 0.5104567943393725 0.5008059015131697
Ni 4.990414783013818 8.317541828447455 3.4205345519292933 -2.346612430964539 1.318660190271458 -0.739406845983662
Ni 6.4877626038786405 3.9634920553889823 7.866919027301899 0.7441045085696476 0.31231935720056536 0.03614148291756356
Ni 2.2529990952541867 4.881773824854043 8.830151016187662 -0.80485324851293 -1.3257317524062588 -0.26522728880876906
Ni 5.54353864589379 5.4303196544658165 0.3821481095695955 0.018884495609328766 -0.5741419912031596 0.4030849552209122
Ni 3.102987272049678 5.288336273286452 2.6487084792760838 0.6404720818889614 -0.9752214859582689 0.3545849507379958
Ni 6.836143581318224 7.277620428049061 10.657857255812743 1.1891935761364874 0.2552382959168572 0.1813990413382037
Ni 1.0440673702858594 2.157356809867971 10.408717559792509 0.6271748505594231 -0.13030530798618206 -1.3604470444002568
Ni 6.101736955287909 3.553473099910705 3.9957478849702164 0.867730604763441 0.18850994135137214 -0.044345101774278466
Ni 6.314569538069692 0.4215890612440496 4.8375645481671095 -0.4925526603654421 -0.040696192167781524 0.7220058768983952
Ni 2.0723046737286714 5.277415181875569 6.020040204977711 -0.5686359737832659 0.5335836101648229 -0.3084053668581398
Ni 5.478949766893064 3.724901140845168 1.8897459446794806 -1.51280059043573 -0.5300018063508356 -0.3445391364662195
Ni 4.717369112065972 8.141342704649148 12.77150120223973 -1.3420461732955662 0.22901432922332174 1.264952416335357
Ni 7.603745544961922 5.2046998341818975 2.76019370147839 0.3410282950994836 -0.14155722675091748 -0.580619114287071
Ni 0.6552700810719109 6.100514307848811 10.732287987056306 1.038800753371811 1.2445885079670242 0.4320679727168236
Ni 0.6481070217896214 0.5954449306647198 12.26319793976624 0.044455916320529885 1.3845318532636026 -1.6818647643576647
Ni 1.0021020653273747 0.14399109697409207 2.9293593850086292 0.6503672295154864 0.00030776104840592156 0.6232911992343008
P 8.809496548021018 7.88408113635491 9.761655763670746 -0.16354530098623446 -1.4926099744204682 0.09954642953677048
Ni 4.19351524502123 7.11433724148332 1.2903232730606455 0.8374409526409642 0.07852483297978088 0.12454243736047582
P 1.5728485984385434 4.460337364718933 4.030433381605234 0.130599185077517 0.12638771809933072 0.2630991867221727
Ni 1.5042608349565598 7.004924084940957 0.3012134455203083 -0.18982891727311177 -0.5661857124705604 -0.2281697218348393
P 1.0616716548412808 3.0507719528461306 8.382298936381531 0.7131563969275654 0.4835923658483607 0.7274339898925021
P 5.259902825699027 5.6224131949723875 7.043158017000724 -1.6232474689350884 -0.7856435083536987 -0.8327957405594689
P 4.277905496832596 1.824594464000012 6.051806056299516 1.0941087819154962 0.791864549562746 -0.6684500551591261
Ni 1.0172334764909379 2.5015090818790977 3.239408067023045 1.919368104888604 0.939451270337195 -0.3743150821770715
Ni 7.76188074231041 6.155643756662839 8.605000949919816 -0.24427151249270834 0.5045239737947053 0.2308110161124283
Ni 3.2188905721409324 4.969813633306926 0.1489469558794851 -0.6187853409441472 1.102415502008979 0.6512717436076267
Ni 9.158419902895991 6.261912962647523 4.210241613558352 0.42998743603871104 -1.4844150973145014 0.6683184146772684
Ni 4.6989282792627485 1.7984592258845749 0.23512153752490283 0.06587397698498977 0.2321844994211872 1.2707479399712114
Ni 3.7697254183868045 3.6381207511829343 7.596050220365919 -0.09905097795759071 -0.3210320544832148 -1.4341186630527947
Ni 8.045415441288405 2.0130752192166197 8.716768392245282 -1.7944795970426193 0.6085425801702165 2.2366664033609993
Ni 4.9262395817180495 6.098381569458807 11.383573892187583 -0.6971903605166122 0.5737930925041731 0.3529576995472179
Ni 1.866192055442979 7.639772276644791 4.637386826021877 0.09632380883441476 0.2749977379319715 1.039374880707726
Ni 6.754483602359578 7.100382513569415 13.099848228070107 0.631385546206661 1.7455838997831807 0.7057207665851266
Ni 6.517611748500809 0.5137196825570691 12.376943680805194 -0.7937190862729814 0.5130942319622196 1.0315019057175525
Ni 7.0065604100850125 4.9980080671092635 11.971944934097525 0.14699588126798557 -0.6141352437666455 -0.631155689584042
Ni 8.937883721964106 4.241989079204381 10.101103141250821 -0.48194968803861515 -1.5267202858406157 -1.1439539875723976
Ni 9.129057978681884 2.238888089096186 6.851321875955016 -0.363091188436794 0.1790806776176722 -1.8371514248795329
Ni 0.8187830885848503 4.8001322315711725 1.8638046754434787 0.23177003759158793 0.6112666639695988 0.8060801789414956
Ni 7.076885619927818 3.3536943469298084 0.336386162563388 0.1585131378789657 -0.11286037303685724 -0.8652577177429164
Ni 5.390845608574965 2.160537531777201 8.6102610917593 0.09852647291268839 -1.8169219852065353 -0.34973353618296543
Ni 4.614308206504182 4.5249630150712115 9.49137897549475 -0.40837757107841927 -1.8994356276307351 1.7556389700263377
Ni 3.666545005932471 2.969350987672571 3.69429634494861 -0.29621730943238017 1.3884504715917185 -0.330801732275469
Ni 6.717914493241318 2.4500291897065862 5.813107585552413 -0.2442280608492826 -0.10952873756046297 1.6708568432829352
Ni 1.939146416921738 2.961665775198246 5.865284294836831 0.41848174939195665 -0.25134564573067036 -1.2039051713150493
Ni 1.5532586608993253 0.43475320509959176 6.033911278066836 -2.362483336558525 -0.9574333087369123 -0.6893510669778515
Ni 0.6035971393037525 2.7439334098221866 0.6853986879658731 -0.43982807627821674 -0.6176594548698201 -0.06478460057555295
Ni 4.133458435099262 8.742379638601106 8.550966368098244 1.3903142642733344 0.6968774572618837 -0.5664016851361084
Ni 6.523954806643494 2.6552960669065877 10.84295228883522 -0.35598131686489015 -0.08818163934325458 -0.16064432528935557
P 6.345696487158285 0.2511979724233471 9.258317552940538 -0.07393644227815008 0.5308615832479696 -0.9026919513299744
Ni 8.82674231189881 1.3538384285960592 4.6160603614056255 -0.76342043528944 -0.3427303653922549 1.177631839440817
P 7.957504332565954 1.3878519287814683 0.6152729627052359 -0.8469604620956253 0.4248115482647264 -0.06873047259717842
Ni 2.807106591788169 6.934773539018023 9.825673767438632 0.7717405251193612 -0.270965733954443 0.20399466725053253
P 3.500320111242587 0.2586175118827103 1.8596476741505485 0.5492287729012476 -0.007151523443116716 0.9111994745803534
P 4.347688329240013 1.5405081947487407 11.682374217762302 0.9214954571897227 -0.808666194501117 -0.5125620136078334
P 1.2777217308838458 4.496373289239692 12.76780108498983 -1.5970127036082753 -0.024291525557513002 0.3265694393616763
Ni 5.373002310234458 6.457260767766428 8.958898549375956 -0.31523858772988933 2.5510745247697937 -0.08813330260382242
