# total energy = -340892.19869602006 ev
CRYSTAL
PRIMVEC
9.09150076369648 0.00000000000000 0.00000000000000

0.00000000000000 9.09150076369648 0.00000000000000

0.00000000000000 0.00000000000000 13.30633035065356

PRIMCOORD
 96 1
Ni 6.289018529605998 1.9296165343654477 11.381650079022748 -0.7917953868877073 -0.9564987127377849 0.34912315629247614
Ni 4.288661026101741 0.6642077878730345 5.98485509106157 0.7204169351447206 -0.7240781860463917 0.6147793051085476
Ni 2.5724947517852548 1.7722881098766798 4.6293786626433935 0.7439026769714866 -0.7986039251691085 0.38860733043002754
Ni 3.487127025049833 4.378612336814937 4.941518984149187 -0.9794614921815455 0.16845482247270988 -0.5027663676736502
Ni 5.2131757609334555 4.53259508894243 2.472635523302173 0.3083272053220367 0.2905799086409447 0.1581963779694953
Ni 7.22478854265309 6.321875214153956 2.591501443737651 0.5295742318951138 -1.1866790372447498 0.4529954668981102
Ni 4.833169202899273 4.380930669565277 11.37462416706407 0.44058423771795086 -0.2893393513656243 0.1831569045695749
Ni 5.650186030123059 7.930379933844842 12.516893078509495 -0.18042613590197312 -0.4605557957438714 -0.13377578303328574
Ni 2.0466787010061513 6.403153232930586 0.37300064737766425 0.18348780554643238 -0.5871024080185696 -0.12937456864179653
Ni 2.387064497761972 1.3770987452030152 0.54552915235778 0.9850582695430327 -1.202979059956354 -0.5173167546839994
Ni 0.16280787213045422 9.078018285770076 4.865765870519152 1.7253061233707512 0.881462866747869 0.2565477587569001
Ni 8.781071680704942 2.3236149124105063 1.405600600780726 -0.14072778887108667 0.1290369827967197 -0.06976688428149275
Ni 6.810534300420746 0.7881058541018978 5.004218520669662 -0.8201214875259102 0.6868465553884429 -0.5591709717156241
Ni 0.8158731164002854 7.276964666787214 2.4346994171557257 -0.370833037165742 0.25140478110337994 -0.007765245767715659
Ni 7.618086875122555 3.8749068164233913 3.7283936415024845 0.5827292186515384 0.3357958430559507 0.24494385596938462
Ni 7.40910054205562 3.687821909221434 12.429283738449191 1.3611960067511395 0.6205452610580474 0.7980639935052385
Ni 7.875176339883802 8.707966921310884 7.212124081785546 0.5337257921696421 1.1236738971671227 0.1651445271525543
Ni 6.7693679839754894 0.9816911845057891 0.5210066467597704 1.2024915787969743 -1.2549472254935292 -1.212533022193376
Ni 1.9312530045421585 6.641032356117446 9.174714581061615 0.05988253528824525 0.3998026849252147 0.7115831389031746
Ni 9.55216733647003 4.859416366233515 1.611689472484785 -3.907871116901657 -0.6196705717625779 -1.789322735432028
Ni 6.497350274602249 1.9749194837573885 7.17268424137672 -0.2997790586417095 0.4261618916450338 0.13412853838701416
Ni 3.5063282751232383 4.16439839068351 13.554360621538173 -0.13912753426350233 0.7917125973659139 -0.4689018537157215
Ni 6.020064656063599 5.76370251138089 4.691093589607546 0.024625254747847915 -0.7888553304227769 0.24781680664180544
Ni 5.098895593593159 3.1222305416472795 9.082994064257374 0.6847845306530916 -1.0547418500820995 0.0762010699426107
P 0.33974030018611795 5.323728412871242 12.540724630032894 -0.5501615691281622 1.2501953126308403 -0.1636715421514536
P 4.217847324955077 6.006991077651877 12.573377664958862 -1.0398039978253448 1.6109172295045096 0.4551935029906935
P 2.416230032911349 8.321078097033535 1.3095134360549625 -0.06014787313448995 0.6262317699198634 1.2738841716073481
P 6.363759759176768 8.004075640802712 5.881956573800297 -0.5417358069583121 -1.4297251619707894 0.2286083520341547
P 4.749000086810454 0.8340533909134428 12.829152498678152 0.10724765483577015 1.3195616190398047 -0.9944510236118422
P 3.885034748517034 6.4094991006158315 8.112829993846315 0.55367626714964 0.1542466492931279 -0.25128393925479947
P 4.6087364096643855 1.0473409130948323 3.8249181074254692 0.8198988299921427 0.5618333490391356 0.153740913301303
P 0.3333189730427249 5.620447730411834 3.8154702196052597 -0.9320866024420076 -1.702501723881726 -1.024872573326493
Ni 1.5049525235090275 0.7140492145550525 2.834181788592961 -0.9580722278724918 -0.10895409600391558 -0.9979294690787457
Ni 1.8465293068934543 6.839081613503365 4.637521920072726 0.12484659886445594 -0.4090419441352955 0.8520605023263519
Ni 5.887992421302066 5.575335702540509 9.272782783851296 0.2938598649437971 0.6548180661979884 -0.06007382536344493
Ni 8.552465888519443 2.499771835432429 10.450326719105819 0.6566008691300241 0.4127944691991923 -1.2019902136805234
Ni 2.3238694744379944 5.262478970757354 6.95412819437642 -0.013152221111241865 -0.03957750518230604 -0.04590061918685643
Ni 0.5803959677727972 0.03813248256765325 9.324344322519059 -0.5718434249769699 0.44240432164582516 -0.6484077917962704
Ni 1.5026341907586875 1.202714664872529 11.658687206087999 -0.9500442153616927 -1.3493828161662953 -1.2910326583621767
Ni 4.361702144988927 6.8361177841833225 1.4898697233803442 0.017627483273776095 0.34025310749635596 -0.27360085758444497
Ni 5.63881256239492 7.89365026987867 8.044648282233862 -0.8273496298432331 0.7227774649570972 0.7835295473344892
Ni 5.399042407003861 3.1003291157823014 4.9684643747588275 0.12306148193957515 -1.2093371409638978 -0.7369403867210405
Ni 0.8930008649787576 7.594994462628971 7.1711677790129675 0.00013266892312235217 -0.022477612277225802 -0.5294176517125915
Ni 4.970232671699773 4.914474496178848 6.843232792851621 0.19158755183543136 0.11872685911996328 0.6972404970282573
Ni 8.410347545173101 7.062805269661678 9.318569401095464 -0.8023888461328375 0.26499460397267266 -0.32081171094229266
Ni 4.648211706927039 0.3412285788968265 10.379363917343056 -0.2610109367345763 -0.7688799157421146 0.3166627217709256
Ni 8.309477341780852 7.083033859346018 4.948916738498019 -1.0058168422466227 -0.7950113227218437 0.1857606607410091
Ni 7.082606558799876 6.24736127210773 7.098009379763117 1.083796858466527 -0.3942203057414307 -0.47224300227381255
Ni 2.344989031218544 4.978087728547984 2.5360669256516752 3.5160671339112026 1.5113947112271389 1.9685754198511904
Ni 2.3232057948663285 5.422589394546531 11.342902101838632 0.34032381283329133 -0.6961374937720656 1.0427242567959332
Ni 0.9799910738222063 3.212427322886983 3.486657903599176 -0.22635400878233924 -0.041947033855747114 0.7556233078425244
Ni 3.670175305815904 2.763852664448623 2.6373944315433056 0.5477413897224438 -0.6906823841947654 0.4405333298753574
Ni 1.1227912797421762 3.4035670395267896 8.323296423273074 0.5685040761910919 0.18223285009340873 -0.3430252709248544
Ni 3.837022531832539 2.866350246516602 7.090890734494425 -1.071892136609141 -0.3506892152280154 -0.3237083157637974
Ni 4.0713105121316175 7.0559684609234194 5.625769895086536 0.4672108391665438 0.4476668555963451 1.1510461185324887
Ni 0.7754177553318011 7.408800522523222 11.738685141526403 0.5217786471100949 -0.4555326314976671 -0.5933980112192943
P 0.35509220874386044 5.59535518770227 8.00265373004917 -0.48022370648644386 0.41524010252620747 0.630931746498694
P 8.868977403697249 1.7210484103436723 8.116968445093196 -1.3989760537133908 -0.8934079549248871 0.6936759196054505
P 2.0426966235761554 3.3074698741499464 10.518960278317065 -1.05726615916585 0.725406675049828 0.09594791355223475
P 4.025643902700408 6.042493388985516 3.639986976806083 0.3894007728656004 0.40351175834568576 -0.2743737311947275
P 6.645123531559223 3.8035658082197874 10.330263447991047 2.0140739185036214 0.8171809168403474 -0.019944047222094686
P 6.3976619663376235 7.603776852577319 10.308014726788569 -0.3619125947476606 0.4074882264949305 -0.7298294867078721
P 2.359071766239238 8.587768186831484 5.824712847018958 -0.14971456575072928 0.08481169442975717 -0.4087028156283219
P 7.192968289217048 4.154061354067288 1.461261497241147 0.018775223724974116 -0.5817617125319464 0.45614069739531127
Ni 5.445109042478266 2.9960677825238684 0.4130232529994184 0.18475664495652697 -0.6731466893038472 0.04756386582189228
Ni 1.8061994085385178 1.2272162600182808 6.975098650540869 -0.8773925533332373 0.5329860857901402 0.47701702662368817
Ni 7.083715721919647 0.746977721960766 9.395866251592196 -0.20569725176393605 -0.7778134707863185 -0.6767809436223248
Ni 2.667637309559017 1.6908100780784516 9.309281523692533 0.664506754240662 -0.7983486146251928 -0.2178410862153216
Ni 6.335903400168759 2.0352234097691766 2.5848346460677516 0.4982150008575419 0.527813026229633 1.185029931677101
Ni 4.184999731908101 6.979227101136671 10.511601617422455 -0.2485295164381139 0.0837624272296364 -0.20501102433018886
Ni 8.29555825377783 6.864519633250235 0.5192128936160759 0.4182608916304022 -0.03653820413534998 -0.8639521115576154
Ni 7.742140406018206 4.084393182044321 8.244575843722606 -0.25547432318706326 -0.6849146284730527 -0.052119346403058625
Ni 3.0801005260979615 8.392891863288188 12.564848927887903 0.5956549255742709 -0.19133146996056727 -0.8321501365556699
Ni 0.25546299523561633 4.916456443392864 10.128832152239927 0.027519802686823573 -0.5941112352362349 0.6050746762262741
Ni 8.581431410647221 2.112719364137409 5.9901508903834255 0.9237042919155833 1.355944014323581 -0.4667670667609058
Ni 3.631881903680874 2.271175134747911 11.65937906931271 0.5597235017849843 0.6277353510485834 0.08678141656161828
Ni 0.9374973982336191 3.257021135202349 12.617075964427528 0.2927581472391861 0.5906235337979505 0.13248097548126214
Ni 3.1519597498575234 8.557311658542702 8.157659276037108 0.5228168585666222 0.05531677029443376 -0.025519227317027018
Ni 5.806505298002855 7.939244147302025 3.7968017314893836 -0.5573555157734401 0.7811829014791837 -0.9855205538914317
Ni 3.3719377076113655 8.18368733419769 3.34098023761849 -0.3009501961316753 0.7267423631421162 0.29687242651787576
Ni 3.4890816977609043 4.65163920279715 9.34672577963587 -1.0764134215182621 0.03226117402655089 -0.6061234292057626
Ni 7.539963607186584 6.033710999037169 11.42593296200454 -0.18397605803676056 -0.3709582498896966 0.298296303448596
Ni 0.4102421628491084 8.9475097891774 0.41898455019313613 -0.06863019957388825 0.47777935871100946 -0.08204467320758128
Ni 4.709206587013439 0.5261251618124821 1.6527130523646272 -0.968781900980512 -1.3796650120896046 0.44940389289210986
Ni 6.156764464824831 5.624711644372263 0.25440474452134343 -0.2526201415677198 -0.01741665281455065 -0.2789325542100035
Ni 7.917915485998895 8.571585315084011 11.534087275983348 -0.38392123780826787 1.0614578286496945 0.11961723214471659
Ni -0.002939282267392008 4.811785992590253 6.032678204525645 -0.19148625037087666 -0.6264243455466436 -1.0435133283561318
Ni 7.962081997768121 8.827747446745123 2.56323869463576 0.12181809645077729 0.3906243608600563 0.19952557573558544
P 8.400892384152106 1.628587845359519 3.6655350037148313 0.40452400166028396 0.429619511176331 -0.7683232719076961
P 2.0501152883772438 3.16958817026109 1.367864507655876 -2.743445234628153 0.9694064219383886 1.2182606687057729
P 4.874580989871035 1.1044264477590897 8.376867183657797 -0.4811017382160231 -0.5301401317009128 -1.0655690226045909
P 8.43898577326554 1.483805692225533 12.335939479569616 0.07859271010323884 -0.05481797628114431 1.4578136926768894
P 6.457611323811125 7.881213096535668 1.2827544212154482 -0.300613895838179 0.08843489300464125 0.3765419146250612
P 1.7335855901974724 3.2338468991999294 5.932255302981696 0.18637746838940158 0.8138654793138694 0.35470193593183424
P 6.9222142984802675 4.175362740867471 5.986345188072475 0.5650991642746009 -0.2873027805515697 0.9117579181869845
P 2.2450188864234852 8.547856497521707 10.448103847115787 1.4998527720258106 -0.2394735768834328 0.08656441545480575
