# total energy = -340897.1652987553 ev
CRYSTAL
PRIMVEC
9.00422401567342 0.00000000000000 0.00000000000000
0.00000000000000 9.00422401567342 0.00000000000000
0.00000000000000 0.00000000000000 13.17859200785634
PRIMCOORD
 96 1
Ni 6.467121657370159 1.7830614149755593 11.369368648827361 -0.22127196627374152 0.31555560474967587 -0.15207535267342195
Ni 4.496061053992758 0.25645109845828507 6.13044382541211 -0.3284707701494472 0.021988588455949226 -0.6456520834280042
Ni 2.6672401737430884 1.6701034275958424 4.794161189567415 0.7115641127397809 -1.2141852130848187 0.3087339538421522
Ni 3.2689474281591555 4.3424399920011005 4.824524332591978 0.3497883006803008 0.18911852146964847 -0.16640796724601017
Ni 5.106556430822744 4.602851148079919 2.6573571377169443 0.09350639399027766 0.03473200416454664 -0.21897777092292606
Ni 7.261186144499889 6.206629463277277 2.6470914221799484 -0.1225644876984986 -0.8027048347113594 -1.024584609772429
Ni 5.067280006673655 4.717114747908425 11.434932003893655 0.3087797194784231 -0.23266760970519285 0.3571653098706623
Ni 5.62671243042031 7.874968063011308 12.327689987083298 -0.015988919229088593 0.3799805079929649 0.15049283867765048
Ni 1.86715186090136 6.616933932700867 0.4003854165023063 0.704367852101658 -0.7480514090325375 -0.3021755838983441
Ni 2.725857670581825 1.641370949498698 0.38285959532766456 0.4194667390130454 -0.7867033170767805 -0.1422632516790066
Ni 0.6376908339270727 0.020095626642810012 4.555443909853199 -0.16434671384160726 -0.23044489102226118 0.21700599190853595
Ni 8.76401810684639 2.2442577572305678 1.2162851463100595 -0.024213364021409913 -0.2783581697637722 0.8382562494534078
Ni 6.550176617560713 0.7458054493329711 4.76881880172523 1.465796710882366 0.13941318382472118 0.9795306548565841
Ni 0.8119054561368372 7.531970166378742 2.329619599554776 0.6452332507230306 -0.7188573039670845 1.2783488922469208
Ni 7.609145368437853 3.9239686916047414 3.655306064849575 0.09660251641709813 0.1463235377913093 0.3502729536262032
Ni 7.658155358498259 3.6543912357130446 12.593949386510312 -0.13925531809061822 0.2047179185698023 -0.23345153905906893
Ni 7.903700541108453 8.869322504009066 6.68497254888559 0.3195978931398496 0.6821154684613607 0.6388060070404482
Ni 6.866612054028261 0.8862920500898107 0.47305490497952757 -0.40784612405498144 -0.8108554888429518 -0.5136678450775025
Ni 1.7777669313901248 6.248328023624465 9.151754389775876 0.5347017829296663 0.4153686576842717 0.06261561794869216
Ni 0.046146646896855145 4.655931047291034 1.4737222072727751 -0.108660990243529 0.6867840775816236 -0.06391222527292864
Ni 6.061850549042246 2.079102284570643 6.9126983726257585 1.002558226100009 -0.28433881282723933 0.37308172399060263
Ni 3.3302661921333185 4.473613524097371 0.57971443782181 0.5250766011350763 -0.07692586392377718 -0.7538924411943468
Ni 5.950648385300557 5.611585334461926 4.850222387273661 -0.22559810445292114 0.7642262190201872 0.023313992135592106
Ni 5.297058793436746 2.6834657850032118 9.325975314942289 0.5150775809408354 0.4674504659811756 0.18098355106733993
P 0.30042412573350097 5.405802804085199 12.477780492928954 0.047499331132544 -0.4525403816385625 -0.07031632902705955
P 3.93562015718221 6.28373263154611 12.592632068570603 0.9980649662153457 -0.026257133924316074 0.38947816307075506
P 2.7058322768845366 8.41894923874333 1.4215355270611079 -1.613244077865473 1.0832134751592313 -0.8823151874458354
P 6.258592838739083 7.774102748174514 5.899290994099465 -0.9624528734386909 -0.581512829745934 -0.5986710866927754
P 4.683042765106922 1.1843165501846753 12.55528344873383 0.8627380366448562 -1.5658825578623743 0.09438571127143745
P 3.7911293781082915 6.129319197861395 8.282415492227996 1.117449770634282 -0.45471270669953306 -0.6830066128170624
P 4.728559116338845 1.1150380523847916 3.824809677175157 -1.3173144748768408 0.04691903314904177 -0.4801614857899408
P 0.26642057503276273 5.739301244624852 3.4904945535382277 0.34935661245952093 -0.6996118254739113 -0.3996738726568343
Ni 1.5879038686648395 0.9693136946523616 2.4609966271085817 -0.7657861073081391 0.9316492577942729 0.31311948450435756
Ni 1.9989736971101328 6.540893262838634 4.7021614334690875 -1.6891625835706585 0.0932809082430329 -0.669141424799196
Ni 5.9943819002230985 5.577603393898271 9.279165056752497 -0.3687278178972811 0.3257374303786842 -0.006357309676595503
Ni 8.694892680850845 1.9425622350986598 10.095644658571988 0.11634190382755447 1.2029690326540248 0.09127313378438474
Ni 2.3304011661792923 5.110995513148627 6.939186998155743 -0.7983259889173735 0.020776313315402927 0.4242225085304759
Ni 0.5897226325585622 -0.12074664095352731 8.875083406386551 0.09088849675145637 -0.22126142475078026 1.12331677093802
Ni 1.7478278873058237 1.3050902038095566 11.292787725538044 -0.45026135579639875 -1.607440840920135 0.022080119728491002
Ni 4.130615627464804 6.816467531770976 1.6082624186421641 0.8380369343537503 -0.04335496994686727 0.11911278170447229
Ni 5.446582933606342 7.774372874888057 8.079965425074004 -0.04157345256641227 -0.09172976170582911 0.07372586892924077
Ni 5.208223121576381 3.070458319048078 4.719860135740396 0.3472189972912278 -0.281196924764148 0.19347808398992483
Ni 0.6957293591764501 7.370560450813274 6.832902041022905 0.09447235744797278 -0.44337311331699775 -0.06949177624323516
Ni 5.017711754738594 4.635104277676902 7.169100848275606 0.48254489842045284 0.2005293344097514 -0.39142345972258397
Ni 8.388929156644965 6.907473221563467 9.401211907620544 -0.778780462685278 0.19780730749289804 -1.0345872295110956
Ni 4.316165666997194 0.4224439639301923 10.467293995287637 1.1512975724216625 -0.09195396190149326 -0.6881236223286537
Ni 8.023735848382985 7.191466439734551 4.599380920233276 0.06724000409458099 0.8268662624489114 1.1970045875404738
Ni 7.214814392008415 6.1982825478288115 7.093482476508878 0.3586912595968855 -0.42948375692941515 -0.3025082846474145
Ni 2.345690338165802 5.055565511529692 2.6180987220154246 -0.44289257413615335 1.1408684066685384 0.43934033800852085
Ni 2.521380752653887 5.150569076682613 11.467628141300848 -1.512396413018776 -0.8944927033486336 -0.3965376410206978
Ni 0.9974879108748513 3.268632280326689 3.7590743414345735 -0.07674562959217104 -0.12455169333185646 -0.454604720366759
Ni 3.4623671592794185 2.7458650558315445 2.7478946078726283 1.0105057630818597 -0.2432361292496585 -0.02034745330810044
Ni 0.8925328775950224 3.36928149379265 8.177908869292647 -0.02400587599629414 -0.41320764547721095 -0.39530479705486116
Ni 3.5835820198697528 2.8311890804158573 7.152694252117409 -0.4235835893948963 -0.960961633605145 -0.509000264398504
Ni 3.843651015444751 6.777281149859734 6.042871446148745 1.87548760145557 0.3390691144905838 0.4636789147538853
Ni 0.9316580307845279 7.184037955112132 11.338622826291946 -0.2669185604682629 0.02840117685051238 0.2441342155838957
P 0.20292729101458237 5.486201518259252 7.813968948981504 -0.39223824231439547 -0.20548564997376226 0.7322337252739906
P 8.165921546168008 1.627279339275561 8.000090756724225 0.8033825775046745 0.3640823487054697 -0.9231458483089521
P 1.8459469138882687 3.2334617822234475 10.23421786177457 -0.349444801297953 0.008806799658352576 0.5119426348562796
P 3.9838737924446974 6.245068494614385 3.8117760632467284 0.5298693945380294 -0.37487866799002534 -0.4441231041091448
P 6.908661779103054 3.8731758652349537 10.456488026323555 0.046147702200656004 -0.18078506190328864 -0.353095767786979
P 6.452921996461606 7.548447895904839 10.235745878550842 -1.206416110662361 0.03925714572840981 -0.6479941012976195
P 2.3153911251301107 8.461512204573852 5.80312678450069 0.6238732969900159 0.5249845556419023 -0.21187458421924157
P 6.889095600818787 3.822040878361346 1.4684376283335039 -0.10124515739543209 0.8673475103924094 0.5083484897471181
Ni 5.06128319363301 2.904303377548045 0.6037971347565083 0.7225666344978717 0.2814386084613088 0.09479425956376576
Ni 1.255089749132828 1.0078517724511011 6.972911417919154 0.2667362692541277 1.1578999082295285 -0.831736188946703
Ni 6.73490727272869 0.5665790761646134 9.189708993873364 -0.4227310115866139 -0.49435397524023894 0.06692787217080086
Ni 2.6190855849422334 1.5251894500040402 9.030696202679394 -0.2168571250354975 -0.08816878382744815 -0.08557556917897519
Ni 6.436120114879257 2.024518679987475 2.654840457169106 -0.037017714874929795 -0.05037562423907454 -0.35152096710069136
Ni 3.9827122475764645 6.779883370533528 10.377627233571939 0.897158937326887 0.7489731495158585 -0.3013839412349842
Ni 8.324855100192668 7.062345870661204 0.46054983898726365 -0.3272962902253718 -0.2991008016277623 -0.6178515162759681
Ni 7.349076372862855 3.873968236928012 8.13510549068707 0.8426800895527164 -0.39778334050234077 0.25690925586137686
Ni 3.083469422417045 8.408207199768121 12.208357009263976 0.3812004964429951 -0.2714712128359518 1.986981947382836
Ni 0.12176321781882583 4.78453837560865 10.2282345550696 0.1124058019979419 -1.5919882538104906 0.1942689553223364
Ni 8.539461769878454 2.484625511164529 5.745866224186315 -0.04404376848377576 -0.26943772734569077 0.9337066545439339
Ni 3.772094449027325 2.7715000809467347 11.518273298400565 -0.7361361456521902 0.6392346099374345 -0.6267740155765786
Ni 1.1282202360056688 3.223377051584525 12.446810465221297 -0.35434043882735744 1.2188239974084105 0.4176533399533904
Ni 3.010373133732426 8.20666565879401 7.929426508883868 -0.5347645178468016 0.5018657102362518 0.6747461725804831
Ni 5.700763166826113 7.901872683680148 3.499957092313623 -0.6231850126737396 -0.4168622115106627 0.05918833743469806
Ni 3.1859825102064487 8.434445507876887 3.5223208829278128 0.5669706702657009 -0.12158644005594543 1.100556594423369
Ni 3.557253669523137 4.175366619675024 9.330521547531209 -0.36531390711972567 0.9017195601143762 -0.32608658618798675
Ni 7.3360742737176725 5.886547316176904 11.444631353754591 0.10070882527598785 0.6058508922706662 0.3924506154355177
Ni 0.7509279522441166 -0.08917062898515822 0.23304011661792925 0.15374759816952233 0.7771133593955003 -0.3697146072905826
Ni 4.680143405048233 0.5175924970860475 1.5880731480719927 -0.2721181023913314 -0.8132283599505027 0.16163471422708292
Ni 6.10678162572816 5.699016347411871 0.3922410960889979 -0.4208294236885268 -0.372516595515752 0.4619598751802496
Ni 8.046993758419 8.606993448264094 11.22976806369094 0.1222567266500927 0.254248164089446 0.5460866277278401
Ni 9.130913213403687 4.995642402242167 5.5335853455041315 -0.46665959464876405 -0.37288374904718363 0.829680591969255
Ni 7.993193521305105 8.903070334754318 2.519720373787979 -0.2903127710224871 0.2905832510750544 0.1114670922337564
P 8.387740599105378 1.6376251924042413 3.7311495422109218 0.06091509031781767 0.5245505534282773 -0.6837527469544675
P 1.7916514444662126 3.188197549257498 1.5266868524194444 -0.8386012914976524 -0.011470976754077019 0.1145704137494285
P 4.607902517623166 0.9770123059883248 8.256334758035461 0.024564319602925436 -0.3999314971935951 -0.7234215262989993
P 8.528611680217827 1.4351562163803027 12.287652706024396 0.582682424574003 0.4813110260133517 0.282620544584552
P 6.486093556884632 7.815540186031944 1.3439398277512487 -1.129862028255706 0.06974811522841537 -0.3177114747504141
P 1.7483861491804784 3.2152012163879697 5.940474512846165 -0.6486073094015862 -0.1956306115565534 0.5976053644324224
P 6.856077112200101 3.9521609162748 5.951663161321098 -0.19565400859532112 0.6935676761623604 -0.4267007948676393
P 2.3680838427184803 8.332355618605366 10.205158530354037 -1.0737561864010734 0.9015262131566473 -1.4721949010992257
