# total energy = -340887.9362879803 ev
CRYSTAL
PRIMVEC
9.07224059553723 0.00000000000000 0.00000000000000

0.00000000000000 9.07224059553723 0.00000000000000

0.00000000000000 0.00000000000000 13.27814114770057

PRIMCOORD
 96 1
Ni 6.341632206300381 2.0865971748598744 11.193924583940149 0.7510110058814937 -0.04349200974536381 -0.5177466431325664
Ni 4.5590185945064015 0.6289521256759971 6.150488263584182 0.8889044106275789 -0.1649141563093031 0.5405014203305789
Ni 2.968863493079806 1.4900429273008262 4.521419600899982 0.0356102930044419 0.20039975081042258 -0.2733712580721421
Ni 3.970184823628915 4.5084317813731625 5.084372991249278 -0.6103150986896069 -0.6769094987803891 -1.3322839517024796
Ni 3.432309827745941 2.6026987934975514 2.463081548032347 2.603171502575349 0.6622544678713755 0.18417968940713442
Ni 5.204190979006093 4.399628400830313 2.8986715681852817 -1.0571810556512116 -0.06330030272054259 -0.08681818333682467
Ni 5.322465778650646 4.5247527420666165 11.499985690084864 -0.6265984092306629 0.859638828894242 -0.303629028515419
Ni 5.680138861107236 8.284071479315354 12.58822180647694 -0.6818712136610386 -1.5024315884965802 -0.3245380107539443
Ni 2.055334234031836 6.457883896309227 0.5215159317793411 -0.009937313718369983 0.6745782795440511 -0.40841202386078057
Ni 2.803821293560459 1.685967033546419 0.2532924191666895 0.7816472427101119 -0.9530773457610618 -1.2256775299951344
Ni 8.612023901832114 8.830292936475692 6.502823239719466 -2.844843372661681 0.16852552780964525 0.24953276089164766
Ni 8.489167620725528 2.587384851501693 1.3085563846169688 0.6559370102937799 0.8648692240552459 -0.7359870216688357
Ni 7.183046225463825 1.0441967392413056 4.628481111263208 -0.5978483336811639 -1.0283091098118677 0.4022963978813458
Ni 0.4851634640202148 7.803805210727227 2.4072473509829924 1.4346066584328065 -1.654285054967183 -0.0805115243925065
Ni 7.934028151135138 3.9741131037735875 3.801186220019287 -0.5722620005716273 -0.0628210490912789 -0.9852588155896129
Ni 7.7891807590108035 4.096053088587766 12.346918353155939 -0.3347545462756299 -0.45108693702148767 1.1692132763598186
Ni 8.256618879505243 6.7128501438516475 8.985530765666292 -0.09678275074870428 1.8736155812438375 0.8248091228095665
Ni 6.969803212067703 0.9576929258938465 0.023105182153467105 0.8864276669523121 0.800512197935415 0.773073642108488
Ni 1.9247484040031704 6.668142142574639 8.922538570847545 -0.4583281919649332 0.06212093770046075 -0.1856580737248738
Ni 9.238353242774105 4.99593769789535 1.0162832696128354 -0.13419281596604632 -0.5182930025543396 1.5363446963042573
Ni 6.451524255705495 2.2852610977421666 7.078484117363548 0.9246764260208656 -0.7243481518783267 -0.17077807128924782
Ni 3.473361716093844 4.328492962921825 13.559903220026836 0.5772221727903801 -0.678827027518076 -0.3947155002102944
Ni 6.084180164855788 5.764782865148326 4.931302520318636 0.6093051693678538 1.0012791022772691 -0.3712127891026639
Ni 5.557618252899849 3.4133579173020148 9.127208316953332 -1.3860117802432388 -1.1661238388012176 -0.13980142040207538
P 0.3622817806401767 5.631284845913102 12.217814927228059 0.2559702889868753 0.23037521412659034 -0.40647161230495804
P 4.00139333101384 6.1942264423497235 12.7377205363153 0.6133932233942985 0.8551363130381983 -1.2739175959484448
P 2.5326248077297726 8.539690928175135 1.247394967934931 -0.2276670711668079 -0.2515914431928893 -0.30699588810512285
P 6.35612964664954 7.980532456034884 5.608726719862923 0.35272115805637966 0.3996252788070859 1.4628749092498805
P 4.722092117833154 1.2973394664394335 12.531073041776398 0.6575999998184997 -1.2135159549319359 0.47277470640756636
P 4.244946699983519 6.378619730895828 8.034629319024875 0.19835263847340676 1.0679205535559029 -0.14719282777014003
P 4.917036422102708 1.0324300432883267 3.593303993545767 -0.3003241325119021 0.6876636519730995 0.7822257409214013
P 0.4040222520434619 5.876770602113301 3.5602148107012797 0.07802809584902046 -0.23456945471359603 -1.049735912227076
Ni 0.7906820501819035 9.402651518570902 4.78026332404017 -0.43520471857359244 0.007909741765379926 -2.554988000891587
Ni 2.250577922238513 6.121793674047037 4.722942186769772 -0.520727065917129 0.5988289524268784 -1.1988578386991289
Ni 6.194698198856704 5.689583063487383 9.319369257831697 -1.562065498109129 1.5680960205739252 -0.44296636479688234
Ni 8.768347678212823 2.4156564107199356 9.911069856713146 -0.1632971895311704 -0.44197983251389683 0.5809685272066898
Ni 2.781920904947898 5.2427933624139 6.870986553888028 -2.2206782554628592 0.03163279641393262 0.7685963230634246
Ni 0.3990570148074824 8.902335598436066 8.682071578102388 0.7035517839582657 -0.5976691277908223 1.4401867236237453
Ni 1.826713772956223 1.356263668609517 11.257912003543815 -1.1734792507250242 -1.2662359110334709 0.26077568079531865
Ni 4.532582085634404 7.025788008309671 1.5806963834616183 -0.5766927826494713 0.3656016135634736 -0.3503441731837708
Ni 5.92172355388432 7.828499849419601 7.805595163781601 -0.6416475902543013 0.25368843493123405 0.29852513162995037
Ni 5.52555695490615 2.8111335194186706 4.870568406165038 -0.08364492781516562 -0.08425890725008069 -0.17598429808053562
Ni 1.0802679675443467 7.235928315448339 6.509489522052735 0.7131903354892943 -0.4023467915033071 0.23573082201154885
Ni 5.437293126898029 4.711840486046826 6.963229466587727 -1.6297415612998642 0.547084215754419 1.9027148126026392
Ni 0.5165452511990503 7.495521405655386 10.884516728268018 0.26515401236867236 -0.5152357037852545 0.7547784433437259
Ni 4.578052155114999 0.2316369810481384 10.524520245014545 -0.30579646848038305 0.5074493749716165 -0.9609503207512354
Ni 8.127321307630258 7.411757408944626 4.51227115356075 0.9591631469438257 0.37676920014451887 -0.248729548264062
Ni 7.676113425424083 6.476609000740181 6.858398820168092 -0.8565262514071894 -0.4545610116130171 -1.8427011510531686
Ni 2.6649706524190995 5.0465517277501455 2.5519523089311806 0.13983793006696563 0.9563791564407851 -0.49957742842270736
Ni 2.295131695426701 5.392285741683898 11.155749503060779 0.0760311200236497 -0.18268253603631765 1.685190743407104
Ni 1.4066055312487462 3.403260513604508 3.5990131545042945 -1.162891705017165 -0.4093530476178111 0.7240858993558755
Ni 1.6222980495849646 1.123279459844326 2.26194453238461 -1.5953592271652526 0.06688776296148481 1.0938627273429613
Ni 0.9466429369418584 3.197828699295136 7.985447795948009 0.8635170809027257 2.294041341736043 0.7868814945258578
Ni 3.623933691985588 3.0866211750147845 7.505455509023553 0.2454678467936547 -1.1991334609580186 -0.8818739861433587
Ni 4.114134063941882 7.035740256158875 5.840509763983415 1.0599365069091617 1.2190564251341909 0.3241842269589514
Ni 0.6877039552762221 0.21259162652686722 0.0625159021915056 -0.11090633463427996 -0.22789409957594947 -0.09921604278054524
P 0.44400361601013755 5.4199016418233485 7.662191165123819 1.4955616008496244 0.7509405576548744 0.9182324701677347
P 8.609973575474848 1.5138394141818317 7.685401585267305 -1.6907134729975462 0.9238886400122476 1.1689389396525094
P 2.0835670465265705 3.335082626105174 10.111623527295523 -1.3252689538372273 -0.09851721694130774 -0.3783154615857162
P 4.347472090087309 6.295327490692049 3.626233504957123 -0.9495852734474032 -0.46951634737126885 0.2702728216524765
P 7.171823863941978 3.985780005080859 10.337510522302797 0.253404328031912 0.6369429856897804 -0.44208421930224506
P 6.191740648447552 7.850953644703813 10.22642547326945 0.53869624880104 -0.09338863746549078 -0.22894259544512183
P 2.6148555957928417 8.667037968338562 5.57136179006189 -0.0766749242552357 -0.4433011224284817 0.9385408427077837
P 6.940200491254618 4.319928767872009 1.671213756014627 0.9173135578978912 -1.5121030501480732 -1.3996337419020477
Ni 5.6306679335578185 3.091266162160448 0.09688608539725797 0.05344526430333375 0.3058761726783829 1.172555453359174
Ni 1.5289809836078314 1.36123525641386 6.887530691698245 1.835983886933993 -1.825195538069237 -1.3478928618843304
Ni 6.956076912162646 0.6539642927865313 9.09151630830398 -0.26041006992578375 0.14826009269238982 -0.20099084742720222
Ni 2.6988917597191677 1.4187169723414426 9.061614203553773 0.6295762609120642 0.6946886771406809 0.12576268292082213
Ni 6.281038711874824 2.2532995943941754 2.466733124841194 1.041342288846742 0.3612932159961068 -0.23281004882032807
Ni 4.009649069886015 6.83653199884545 10.52550276866274 0.8603721075158407 0.7142676277138731 -0.2876179977991434
Ni 8.488732153180623 7.25106081263382 -0.0673949531425558 -0.4239687406484569 0.8105734388261588 1.0208966193978806
Ni 7.727489523482463 4.240492229888752 8.137070337291838 0.24904193729815824 -0.44656873743616 -0.14787596988009372
Ni 2.958085671343384 8.37083838763786 12.30636725248468 0.30217455545707955 -0.13869507471177403 0.2249483866840642
Ni 0.3126003771107215 4.990585075989215 9.92345890836572 -0.16227800423803665 -1.695999403986834 0.6330354231052581
Ni 8.799256801660626 2.6871794972093017 5.810660278228218 -0.049219142037128134 -0.8970879748796355 -0.729081295687938
Ni 3.848825462207944 2.6017824972051455 11.109103671208938 0.4410148974974663 1.2524900222022881 -0.262411930847161
Ni 1.016172588278505 3.4183022883848007 12.151690087758144 0.9270351560610293 0.8216579787750946 0.7324131882746483
Ni 2.8756099327863054 8.579645075420254 7.835245060245383 1.2708708387023209 -1.2589645741830382 -1.0031578073572205
Ni 5.883565710261937 8.140049661078237 3.49557691145241 -0.7992395018705784 0.36896178828495807 -0.36597519485280844
Ni 3.026109330753898 8.235761798552353 3.4138097148798545 0.6740866846196133 -0.33833120788329474 -0.1295596880694091
Ni 3.3850071656805345 4.825406792862085 9.128031169168395 1.3876068926445004 -1.6844793191623766 1.298661378552028
Ni 7.171823863941978 6.331190057463157 11.425733937558144 0.7899125680426976 0.21357254074695478 -0.8635206804471516
Ni 8.080971230819332 0.34678457938583696 2.0759445500426126 -0.6002356029664179 0.17308692192808256 0.06279945182472411
Ni 4.886635344123962 0.555584009375815 1.4238817988688375 -0.5542069428421293 -0.6536279025446291 -0.21623646073236308
Ni 6.170457172190274 5.766660818935733 0.20544088654989107 -0.1735512631590108 0.32363375377212006 0.8583519917620185
Ni 7.918786787063431 9.139102931497629 11.247753815834832 -0.040233907819382325 -1.3090733179139713 -0.4671036241647181
Ni 0.17182369930720523 5.0015987759791285 5.5599960871398455 0.4216076966154481 0.12003529351874168 0.1653335032349088
Ni 6.925494389373525 6.151142372125593 2.755453550458136 1.203028939357683 0.19291526950791935 -1.317828181288466
P 8.71852293328317 1.8580311472273745 3.3762324946506803 0.8219343723649328 0.7302670884659229 1.3737226784632406
P 1.850873149457983 3.278753084723488 1.2080550113729396 -2.216196822652738 1.2131927672645622 0.6292384179566711
P 4.947482861284048 1.411422890964268 8.388505668824315 -1.1230930849629883 -0.6470247954058147 -0.06017101306294154
P 8.73969754265422 1.7668097688101012 12.130192506624622 -0.4487420909383949 0.3945828312871721 0.8070289160080102
P 6.805060396485478 7.913425092916777 1.3135297868694151 -1.3168339356959968 -0.7978441641849484 -0.8968370352110941
P 2.213563180921509 3.1165777132081045 5.714313991141832 -0.357704470203584 1.1697632353260177 0.697053834938748
P 7.109914894641185 4.139708709964586 5.988680317809814 1.3248511495735182 -0.6290586978456972 -1.684002636636274
P 2.2401811346038842 8.516593003814082 10.07615741743509 0.7764384448156628 0.5851913070387857 0.2868577225943511
