# total energy = -340873.99711101427 ev
CRYSTAL
PRIMVEC
9.15499473453641 0.00000000000000 0.00000000000000

0.00000000000000 9.15499473453641 0.00000000000000

0.00000000000000 0.00000000000000 13.39926019504156

PRIMCOORD
 96 1
Ni 5.6994145715664555 1.6095854174864812 0.5814959761419977 -0.7137156118651451 2.1052434368306066 -1.0228378022846514
Ni 6.910876728522068 2.068955593485225 2.6965076021599943 0.567444524578326 -1.4247032832761657 -0.8748093659870934
Ni 9.249108185184667 0.39219265487465155 6.473825514439488 -0.912348500583132 1.972915699097757 0.6752771053832887
Ni 9.298270507466055 5.4702925157496365 1.964331396974249 -0.6411487962410118 -0.036385737717885724 0.8119543783340853
Ni -0.05053831800557757 1.7463152653957073 8.919083438258617 0.4542720196176886 -0.8831939905063627 -0.7309420030457605
Ni 9.127905208521108 7.94222351703 8.21668110728582 0.3145652158119486 -0.5122748213847177 0.273681076003077
Ni 2.1366293153295506 0.1759324513060857 7.872654711254158 0.19611217917866225 0.44475353860429206 -0.36265487223032383
Ni 5.771226351077669 8.089554848961917 5.794724476328998 0.2600956240091585 1.3064824172583434 0.2294195350815404
Ni 2.0418934287433657 2.6119932673107127 12.381197624755703 -0.06235002299213132 -0.9784932147310051 0.6602826888569855
Ni 3.800714417088119 4.064369113434808 5.585870663584576 0.22524637754045723 -0.12800468487746341 -0.3519572833071616
Ni 7.327850123424889 2.986478331169226 7.671143204370009 -0.6513187947954783 1.023416814716573 2.0827174878139485
Ni 1.946919512291386 2.4905339507916833 6.303895993248841 -0.3191003846781407 -0.6198194386356164 -0.3958030768475183
Ni 4.012094092908415 3.5840248442616396 2.3014704903890992 0.719577984183193 -0.7709673943987625 -1.080457509680649
Ni 1.9454547131172664 9.157008937111899 2.746835355284292 -0.38239091720667046 -0.38214280575160636 -0.22598839791280434
Ni 0.7044713598062409 1.0845098435336349 0.7498471762225306 1.2687350233062407 1.1811663349566366 -1.90743535800676
Ni 7.687128740857072 8.569990668083468 10.467060317981113 -1.501337841211769 1.376904675735648 -2.4051510506303804
Ni 7.191230135453721 0.4325909005973862 8.094104881396525 -0.6680708174428366 -0.6616772552116669 -0.3608730977395527
Ni 4.951414873302283 5.885077866886115 0.3490946011741177 -0.12649390465989183 0.14120061474244713 -0.3242387343459706
Ni 2.1081481263877624 5.712259029324517 5.778833236288769 -0.17150929302831755 -1.182752448496834 -0.6368676523671548
Ni 2.5116179039041673 2.099102991487574 3.4843708944483476 -0.8723711888592461 1.6457549060089849 0.74338177147101
Ni 7.282954028738123 7.839330530042937 3.7951399407311097 0.8519679426125456 1.285259246213509 1.3163140586367847
Ni 4.149400705492451 1.4489518780545907 5.242018212454838 -0.6698646761184658 -0.8633173061870938 0.7336028377073753
Ni 6.215802055417805 8.715472691058059 1.7311573404420209 -0.30483256190521696 0.7185598273313238 -0.2894805049291789
Ni 8.925332637735206 8.595203523868001 12.315635044721077 1.1815193474206813 0.4363989959920097 0.3860542249908706
P 4.8537127683885055 3.7190243981464364 12.963489169949145 -0.33298819840382654 0.2643883378472414 -0.7004985989542388
P 3.758692990780563 7.4135042551315316 1.612025223610874 0.6211271017034464 0.34688089722551874 0.5679872844556735
P 0.6750636853868223 8.407480354709737 10.24546275242185 -1.3648132917887528 -0.24390410185096056 0.854680199337386
P 7.998096450527824 7.5826427847681535 6.210838217216507 -1.337046663198446 0.04253221693525578 -0.0393533049866419
P 4.429625942496368 -0.21031128792267265 7.457894078603742 0.5811161085281477 -0.2415643979741904 0.4100176777850036
P 1.7717478410563587 6.7291592359776935 7.568625572171313 -2.9546796141602343 0.567862328842035 0.969619309280143
P 7.60945776464938 4.18717421419506 2.9884640495496417 0.05363835415074633 0.4703496419058416 0.7819511471037759
P 8.624774157195542 3.970237456507948 12.051241540290942 0.590270521333906 1.4571068964178517 -2.2995411885083494
Ni 8.81727623365937 1.7425617175120258 11.5337215835781 -0.7489024441789232 0.4355304773441273 0.3872641861385718
Ni 3.712927171584164 3.404824975297783 10.673971440820859 -1.707420758449898 1.4261811533732727 -0.17096061961369913
Ni 0.5392566609572914 3.977579762368222 7.6902908760742035 2.0983155993625213 -1.7634242703987113 -0.01176588228667651
Ni 3.3426076303770533 4.2851143489746315 8.138361957443582 -1.1858603979981965 -0.9759730194123128 1.0475952117349894
Ni 2.5781655613833885 6.906637965911959 3.6087158653403923 -0.37936267190330797 -0.10487401239727098 0.44236241266429627
Ni 4.199359512324767 6.984299787124813 11.510943040921058 0.6705940980853226 0.44387267866123553 1.1780162193634292
Ni 4.841335215367196 7.757649666096093 3.5785803688313336 -0.3977062074075022 0.18489445608597188 -0.5876629085077298
Ni 8.238854504784056 3.0025728120948654 0.3156614755243217 -0.7491389856697614 -1.3772114083427895 1.7675076964394656
Ni 1.2013733526438641 7.877122348735223 0.892447206822041 -0.5799544841198786 -1.6456536045444305 1.9427620583325125
Ni -0.4369166356584582 1.4138607828395882 4.374603508019017 0.35916948478488464 -0.08846754601478958 -0.05520724129976298
Ni 3.7857185355430696 6.646398082639937 7.496980413566156 0.2247884640674322 2.254015179052092 0.5847670750171735
Ni 8.084409741862821 3.5872931774188936 10.018091131618103 -0.5571158889588084 1.4304437853043688 -0.5019585270603742
Ni 3.0946262851934434 8.278468167449153 5.693184597579028 0.9597552720018696 0.16673192624433222 0.3857161249251615
Ni 2.026595432368654 8.958052589287103 12.60137433511607 1.4975020124054468 2.0181519452277374 -2.106447998661669
Ni 8.224554402846715 6.375089810608473 11.056453392670583 1.7239604079761344 -2.4172948850817657 -0.5902679502307446
Ni 4.022347687127252 1.2719217428673992 9.181601999745881 0.5414570993756288 0.9248697729785942 -1.0457121357796637
Ni 4.345857739726403 0.9873570383101528 2.337902792347905 0.027702093900958742 -0.9835809136665575 1.377410925948105
Ni 6.047011415585035 5.662336842471553 4.212419112461527 -0.941790974213965 -0.05024321242626831 -0.14004541809208138
Ni 7.811883855517872 7.48335686574736 0.44252498549636854 0.2607653963826735 1.7618422706235721 0.3474102873664275
Ni 2.563728134523472 7.776545575442235 9.629257444349603 1.8743971966048685 -0.5432417020798773 -1.4676736161901047
Ni 6.635073354025025 6.490177250720082 2.004221540483461 -0.7011596295770054 -2.4549042107941075 1.0247429897271643
Ni 2.8291863648532956 4.897491953705005 12.625828241828513 0.5261649491032486 -0.1560068265173442 -0.1118931240275815
Ni 6.539476897924045 7.224682486592677 7.933795428781909 0.2822114820715914 0.45762319547810865 -0.11675713698810214
Ni 0.8340978472204708 7.731576240796764 5.3347143661910605 -0.0368891597168655 -0.9515380262983999 -0.2032855569986499
P 2.7535935724738865 4.373844558946926 3.706583675660742 -1.895896504129225 0.9173721790499684 0.6966542855074841
P 1.0083494414742542 5.935741608320976 0.06319967586687385 0.4349146981369993 -0.8980469963587954 -0.9422902824478869
P 2.921029273070595 5.490442659388618 10.215461834336912 -0.1876743328239542 -0.4974531829908529 0.5529967245841121
P 8.70836841506358 2.790909331434583 6.151492794176535 2.0106363535769827 -0.6109972123582961 -1.2280696843763945
P 3.865302905671955 0.29355216298995407 11.040414757213457 -0.614279996874626 -0.43264338560431936 2.2678004057616428
P 4.336959084743627 6.374714455820104 5.461659355617169 0.4827500724527234 -0.8079992503410794 -1.6742026198267166
P 6.608368234081857 7.176856793557672 11.9304734258822 -2.184285061545806 -0.23654971836841843 1.1267383950250596
P 6.881672294988059 1.7140255986012085 9.722007612555371 0.7971941893057755 -0.09627650053624709 0.40119802261084453
Ni 1.7626477761871409 6.911307013279465 11.56510215938516 -1.6942626238013854 -1.6520764773516385 0.8588584990847918
Ni 9.18081192369134 2.5878698559119306 2.3788247037753876 0.34230536203969436 0.8289596546428305 1.469465932203837
Ni 5.685828559226496 3.597555926632569 9.278572620572083 -0.7871843704782573 0.29312915742535967 -0.8482989784013907
Ni 6.081342646228464 3.903781348977109 1.4304111825081718 0.8144190378244942 0.9381142966933262 -0.22590046618468837
Ni 1.7448138462422347 3.5206631249861284 1.1839898484449998 -0.14141375919451774 -0.007316074045439013 -0.36225532279906
Ni 7.452101713369583 5.410803359290704 13.379349317479633 0.5198981422579305 -1.7037160559048012 -0.5208227109547288
Ni 6.808157686436931 1.6372518118876649 5.982220601615275 -1.26669022496207 -1.9612842855064156 -1.9386966300138868
Ni 0.4561613503079382 5.672709451623287 9.168671485036342 0.670677144717432 1.2068352004776506 0.3575509753448552
Ni 5.575318616534011 3.0171658738670315 4.240222831785285 -0.9787400406344886 0.8542395122555416 -0.5110093244087328
Ni 1.6641674967121125 1.125130555630939 10.458511383801158 1.9236294512681191 0.08374648639003641 0.05110761730909263
Ni 8.547753185621366 0.11549758388036259 2.194423882243923 -0.2653321898177495 -1.0181090293504143 1.0498431272289015
Ni 1.2905063823890417 3.6657514831826745 10.250970397316538 0.44445991862327316 0.21320564432583927 0.04230236031263682
Ni 5.418969614686421 2.173002109821908 11.22598100958783 0.9633375900364892 -1.1356464961479666 0.9763250034350927
Ni 7.102774575326573 4.085700251407925 5.520294351057691 0.512827094343762 -0.0904588654132055 -0.34540894066568256
Ni 5.328353475777447 5.102353273200469 7.1332570461400024 2.745797279800097 -1.4350283193512574 -0.396236307730195
Ni 5.2865517693460085 8.352193340881561 9.822863613190925 0.41328683545457856 1.043216108830687 -0.8430667834681739
Ni 2.736171617296702 5.543514164465939 1.7260662478124713 -0.2776632005792767 0.09401135865115422 -0.790551230067961
Ni 4.9368401215197935 6.148695943253451 9.428201856208398 0.006774599719672204 -1.973779589759949 0.32552325748534905
Ni 5.934203569188151 9.230615095611405 12.228017166621628 1.1000009790302152 -1.0684198617898246 -1.2570760989110739
Ni 4.118255413052733 8.891047182065968 0.06808661211153036 -0.694250818272314 -0.14570107371596197 0.9593791196093735
Ni 8.157960970393303 5.412350553418367 7.122926549964524 -0.6640071888964242 1.8765546092675036 -0.28442160234903274
Ni 6.305658329755204 4.583658730649882 11.420805708242124 -0.4889968246933836 0.7362487599706546 0.209524081709194
Ni 0.5820837268106132 4.055964828173297 4.272675457487905 1.0019113365446295 -1.63583918955717 0.3605689362355726
Ni 8.481635812899542 5.848091687739594 4.585508039607207 -0.36805110354523063 1.3818244816347687 -0.055233980772640356
P 1.7200495852047752 0.6265248182539179 4.889363233788125 0.017830086202885422 0.7680988146017159 0.453641070901909
P 5.032125307796273 2.7299370658118547 6.876325778002522 0.621404266624233 0.8449763417860608 0.5984227181273952
P 7.065065151587833 5.4509113916770655 8.984686300270532 0.07344639001560899 -0.9055409907429952 0.8899883877203769
P 2.1826423193865825 2.2919804227397718 8.605594443009412 -0.7302537187294843 1.1230020679110788 -0.5408881142460362
P 0.379240168177499 7.3706497242936955 3.280836133704946 -0.41637935833697326 0.20956007715345198 -1.750037050458528
P 7.591294254890298 0.8355479984028491 0.13003022268659664 1.3384461146491335 -0.12242410546589239 0.2583228483794519
P 3.118648991649005 1.8650372384581007 0.949252118794399 -1.8352449518854395 -0.003460704855090814 -1.1333818684835062
P 5.760991066848508 0.6750151639141796 3.9540953696091496 1.2938703849212878 -0.8240467907222453 0.8776676613714949
