# total energy = -340889.8490931612 ev
CRYSTAL
PRIMVEC
9.07500584596772 0.00000000000000 0.00000000000000

0.00000000000000 9.07500584596772 0.00000000000000

0.00000000000000 0.00000000000000 13.28218837122490

PRIMCOORD
 96 1
Ni 6.403814283193215 2.128914732303054 11.341103059450784 0.23103238809461502 0.26502931386535 0.6979274957929528
Ni 4.76948737783372 0.5421054658547364 5.778893942594329 -0.28016771216868525 -0.5653202791464715 -0.16567288885219855
Ni 2.6008785692911953 1.5890154004066661 4.710315616218672 1.33410429274067 -0.38669700078119207 0.4229377282807813
Ni 3.6902513644128785 4.533183296626686 4.6006713937391845 -0.5237604534268141 0.16192550599462435 -0.2939778785789002
Ni 3.648479111799646 2.7570231225093766 2.5821904094375276 0.9627873739599743 0.5136002250643606 0.1742804280155515
Ni 5.293541749255916 4.768752302347804 2.574659061958987 -0.9054648860894213 -0.25024058559194967 0.3311614296077329
Ni 4.845762803255015 4.809762254457124 11.275648671182655 0.8852385317402173 -0.6485939396651474 -0.15440991434386955
Ni 5.916386635982839 7.633441296028892 12.112067471591004 -0.3559898015053224 1.1814108468672753 0.5602786029575061
Ni 2.0476389785763294 6.655092124298539 0.13824591888642376 0.48118169952433903 -0.4617305327782628 -0.3159464124301914
Ni 2.6120952767059147 1.5956492297919092 0.2525438044421804 0.8358964909719797 -0.4882499192250301 -0.40885296805294097
Ni 8.356256448840409 9.027108117301852 6.7809561049999765 -1.5947473046128664 0.6100955264796332 1.3017575009788482
Ni 8.877669993516905 2.551682961770809 1.2569799884171569 -0.39526443073522893 -0.23765297873492622 0.4570786358285483
Ni 7.1794641209306995 0.9619597108962239 4.688771551977131 -1.6800652492550807 -0.6699328103522398 0.025678121492394484
Ni 0.9204506334569608 7.457731029876944 2.0769494329517846 -0.03312686446095585 -1.0055229651552875 1.4292780471310416
Ni 7.510302539628945 3.765564839198284 3.858980228449824 0.9608166233868484 -0.29214262514237427 -0.8638999181634412
Ni 7.7525325997533026 3.898549977107108 12.677570117912271 0.7706627186741501 -1.820153861880272 -0.16190930804470824
Ni 8.426016019954448 7.479020993950516 8.997434662686437 -0.17536363377740122 -0.8082221649851629 -0.7428207567612175
Ni 6.881486298954704 0.6871531017373841 0.31650626172408114 -0.17681090774688907 1.1911463289874842 -1.1784242534351252
Ni 2.2182581663628587 6.893510681903332 8.806343168866844 -0.25461814583435505 -0.20586077392499386 0.6619947864520858
Ni 0.17812694024947268 5.068336400385616 1.0340805985711936 0.589224853678211 -0.28882667339526386 0.5468672146476066
Ni 6.6095718942077335 1.88280056961114 6.903524043522589 1.1855930032694226 1.3399556093151244 -0.46210977049455254
Ni 3.292484776472271 4.206846080903927 13.309151512914399 1.1519094949740485 1.2642358498843065 0.3583019945782668
Ni 6.222695313465883 5.79781260760037 4.659285949985895 0.24364030666661265 -0.9159837833428741 -1.964096301033914
Ni 5.113838480464423 3.2559941773504355 9.007104081578333 1.796424893694448 -1.758244783080301 0.4970996563061762
P 0.4200457276680656 5.746947198976174 12.137901291168257 -0.5509282720908576 -0.42790561380901787 0.602865327279781
P 4.042189172058716 6.412344788832241 12.509138914072093 0.0768764987430805 -0.6222203347676252 0.281976740352966
P 2.485462642996366 8.6463662406153 1.145539822250474 0.47583689027265796 -0.5741000822216307 0.7505741754543912
P 6.646443643581526 8.123618670056954 5.779531915516055 0.5051886039618977 0.15856584549377206 -1.1354858022003864
P 4.66634085964949 1.23784896827074 12.6098442556426 0.7888504453267705 0.21047153322412784 -0.21005552873263178
P 4.182933440096655 6.432291652017965 7.8274331617657555 -0.44086191685936976 0.0107873204234911 1.1574808184142389
P 4.8254257148113355 1.1633340940132435 3.6072168745235547 0.07492246034050322 -0.19526860023144435 1.000569477804754
P 0.3511083520975325 5.6605349918540355 3.2914720058027864 0.5511478443008314 -0.43282567681845463 0.6745633671457156
Ni 0.44571347463553646 0.15501471497131014 4.79384741643674 1.2669285662251213 -0.28749587039898233 -1.004507893627212
Ni 1.9621251970480877 6.5587700106255316 4.585157670983955 -0.24580209020462182 -0.06969772160645417 0.14314411162206317
Ni 6.0534283015731996 5.669510172787012 8.9635912428145 -0.2876110558206079 0.6617775282349571 0.9292679020462898
Ni 8.808763472966769 2.494428748923343 10.225917317265647 -0.19187834360297276 1.1355644779571217 0.10962181149490154
Ni 2.476469312051392 5.309241509634124 6.671112232388512 -0.7576812188128177 0.493430434984705 0.4057668729284495
Ni 0.5199715262232623 0.39714676503087876 9.224772637966495 0.5652277194326653 -0.07272956645424249 -0.606628136756323
Ni 1.3771321603428455 0.968030889909531 11.349829585219391 0.19603581741477205 1.4070385190065509 0.24263757643371117
Ni 4.35184652675538 6.971646483554416 1.6489966525568212 0.558549021860909 0.5910549649084142 -1.543841776012251
Ni 5.980537853389518 8.230603915778747 7.91800444413722 -0.20789554496683552 -0.39584112917430536 -1.401392119354051
Ni 5.338871404220742 2.80913180695543 4.853285075727557 0.056618776935308944 0.6697502620277884 0.3337621004553736
Ni 0.989738304259054 7.576087258115438 6.865563293428921 0.5975868524896611 0.08179064821524624 -0.6588770667587105
Ni 4.725174123540777 4.581489553559174 6.868299407737609 2.1694143150815606 0.1268767419206073 -0.5242589903297874
Ni 0.8605528713619961 7.679342676371655 11.170732526828626 1.4034891110923957 -1.3567611109082376 -0.6036207173885669
Ni 4.787855189975624 0.5551344519674496 10.343743565153801 -0.5898126078608811 -0.3321896137619311 0.05933643297678813
Ni 8.297804335201079 7.166695587490157 4.541830869843099 0.46396482142542034 0.14973616301728404 0.42199207653806037
Ni 6.98326249123309 6.14613856285862 6.831865981153567 1.6072063563118257 0.2144433733876823 0.7715062976213681
Ni 2.774374533979396 5.301291804379032 2.2587426756248385 -1.3693392046835644 -0.6344621282494557 0.7062869235012417
Ni 2.4586913752994213 5.548703692928798 10.967010439659674 -0.8070883084910359 0.4873240649766511 2.8523733624901393
Ni 1.3380370344993069 3.2643522578754816 3.62057891335643 -1.0663447244283504 2.187292480913562 0.11886904112478237
Ni 1.6566695701289456 1.1649494450810594 2.52082612637313 -0.49753725806422705 -0.6603302542654692 -0.656404693958818
Ni 1.2757461933224155 3.6429796581642737 8.054226636685874 -0.6375304827621343 -0.21185915760027388 -0.12489442138325588
Ni 3.5316656345809765 2.616859654855371 7.175237890636982 -0.24496673878752004 0.7253233713074025 -2.2268591874625905
Ni 4.7817930859683155 6.997510250651463 5.8263652989749115 -1.9780738462599288 1.3277665234481004 0.7788195434533297
Ni 0.5698414066893713 -0.14265637180192045 0.22012879051447953 -0.20616827786308364 1.6032926230797162 -0.45076117825095274
P 0.3454573458619774 5.833622581272284 7.735905373762 -0.5322368663289414 -1.488232928398695 0.5992395576017358
P 8.661784675807542 1.9328673777074268 7.909038338210244 -0.12942213405028033 -0.9209722376964009 1.0027978529146406
P 1.8074961698317336 3.571005785586487 10.1816476230015 0.2963543492308767 -0.5303545617045641 0.3200961729325068
P 4.2482371832652035 6.529203641080906 3.7362398648132307 -0.5184210434917716 -1.5333717297188623 0.02472578488145419
P 6.929157305467264 3.90423093086246 10.158457352671745 -0.0979906550138764 1.0088448304396689 1.0826558028835482
P 6.52452093798544 7.784785171073622 9.853218618395978 -0.06075311081865666 -0.13961861496730793 3.3868769133660703
P 2.3975349098724004 8.690561519830258 5.673234555248986 1.459336814189635 -0.6433692009310984 -0.5675044312819839
P 7.0926616885506055 4.170709407016051 1.6425152832723608 1.0728182479678363 -0.9333780675599216 -1.0110073853086263
Ni 5.530009180570931 3.1518312584943216 0.5260980627731632 -0.8151680001753768 -1.4412282775143823 -0.37464675448487733
Ni 1.5481778734113263 1.0690357066780047 7.001559518328202 -0.11803523236957736 0.8888031091630241 0.40733858829094366
Ni 6.965883854745073 0.9030012119221521 9.245253111504958 0.5366339669553725 0.26480819899347946 -0.21299969896262025
Ni 2.8864327080546084 1.8262179072075972 9.137109895017698 -0.8875854347058392 -0.9556939574483024 1.5763088954020208
Ni 6.629391707309472 1.7616220145069688 2.44012391302554 -0.2134614690903872 0.906608255665245 -0.027199700343243483
Ni 4.275652776388075 7.126674811034724 10.37740094740276 0.1596361957398154 0.4220226726656796 -1.2265517050699717
Ni 8.224414761687454 7.145559898518568 0.14714033226600876 -0.9043996780497005 0.006501291453627513 0.07063874536348479
Ni 7.824869472571048 4.0119058770401725 8.120397950427924 -0.09008785522703194 0.10250962593015249 -0.5692088155676004
Ni 3.1039515268437854 8.569246839636103 12.220942133561781 1.111473498446189 -0.27936604220299627 -0.08858967341495065
Ni 0.3049555940885993 5.327146496470081 9.98815306759338 -0.8951969285045099 -0.7788609382142263 -0.8462171561716975
Ni 8.784760082099508 2.3352349936895096 5.76170678873289 0.8054543724320385 1.5214071011578185 -0.35803074319475114
Ni 3.4550998089677134 2.7352521831178604 11.408151926272934 0.789613291634724 -0.21354631549470962 -0.5060188131726769
Ni 1.3095505906685576 3.358968270420684 12.423521677475463 -1.932656337357078 0.26372627878321037 -0.605972248339879
Ni 3.684171110393573 8.725228042746302 7.844752810714779 -1.9993805781575051 -0.6600949983262115 0.0028084159830725824
Ni 6.214845433276779 7.966421416142895 3.360938454223059 -1.4427179746860315 0.849873264867046 0.7049406938859925
Ni 3.0680961781418774 8.368199156735045 3.513457542544654 0.584040224153478 0.7756506588070448 -0.138636967780329
Ni 3.5352048869205723 4.738360107257272 9.229845566319916 -0.5396856092975029 0.2812804856168898 -1.9677868625116237
Ni 7.25815349794772 5.824774450423293 11.582001816195094 1.5016959958821365 0.23851506962490535 -3.7801639086599543
Ni 8.366856055847197 9.000019224394944 2.6249191676830512 -0.9002044090214304 -0.8399827452262114 -1.180710992586773
Ni 4.4629790502186975 0.4206719030819941 1.6817374591998848 0.6576917882013577 0.13343562608504764 -1.57207248872317
Ni 6.085526597791537 5.429512564138399 0.0764678155484737 -1.7808653486932942 1.2332643412034565 2.207297206170263
Ni 8.108699360194658 8.885175023478048 11.38425652797706 -1.902366428124285 0.8882536644174573 -0.4032698175382087
Ni 0.108677734340598 4.8566800354717685 5.635539702831088 0.1562410540153374 0.4198326069928963 0.05847125676301542
Ni 7.434435489477603 6.208129928837546 2.4091500100504746 0.3465921623405063 -0.28771467127800776 -0.5120719613452922
P 8.768425071301372 1.7865692059981215 3.442304958009774 -0.30401058022455385 0.6478791729863099 0.30607337629085346
P 1.8949066276137585 3.247545346765399 1.413145414149136 -0.08399768316889404 1.2910159461916282 0.07468309063618751
P 4.9943751014940565 1.3079080145827453 8.015322993468914 -0.24582085925769923 -0.4793029944443874 1.4489760397806013
P 8.588567527407896 1.6885682162153055 12.485177268232427 -0.051556531921053146 0.2863861822745713 -0.7114836372108327
P 6.333256111551267 7.998528787367231 1.1809713681722307 0.43280382244158366 -1.6652469532953258 0.28965148328940443
P 1.8594415041698058 3.2834551455033014 5.845278518977353 0.3282900215972088 0.5901188262473901 -0.15180204440737727
P 6.90115183695446 4.182352639712722 5.893731791007024 -0.17008773009044253 -1.3017369321535581 1.017634403706841
P 2.59347336439604 8.743414354768227 9.944414261180171 0.04597569539916598 0.3787111543622381 0.28438380713256184
