# total energy = -340892.4467920029 ev
CRYSTAL
PRIMVEC
9.06036057048268 0.00000000000000 0.00000000000000

0.00000000000000 9.06036057048268 0.00000000000000

0.00000000000000 0.00000000000000 13.26075353018676

PRIMCOORD
 96 1
Ni 6.6620015254540546 1.9691606282942853 11.513344369035435 -0.7646401666291541 -0.20061880879976418 -0.1598647668108537
Ni 4.570562271979361 0.23193707423353596 6.100066189361754 0.45326466139909677 -0.9159814693500289 -1.0383942619620115
Ni 2.670133538366357 1.4015471642825599 4.704344836874616 0.6788157146641665 0.021379494117040602 2.01624572934396
Ni 3.411017336399284 4.4720399120051635 4.9959226400732195 0.7547090235583712 -0.6978102534887983 0.053690290434604306
Ni 4.964207754212112 4.461557074917602 2.616399258405076 0.771998149656122 0.8737140760403858 -0.1491617785710528
Ni 7.164271669607962 6.150399209994885 2.6637142729588055 1.2512306958738901 -1.5421296784171505 -0.8695771710538766
Ni 5.065067687192871 4.489200234774257 11.416885053144936 -0.40702902747032477 0.19762861582318866 0.25662180652794514
Ni 5.62113825193964 7.942456971780467 12.572572993264187 0.020057947092139646 -0.052815601139134846 -0.5653817285120263
Ni 1.9508405793824013 6.643038190947342 0.29295225988501983 -0.5215742444087728 -0.3416263336947987 -0.24868763928253299
Ni 2.854385029302101 1.5294341526066166 0.6228254887690147 0.19301939918595143 0.03596459102006709 -0.21093561734473998
Ni 0.4461258083021414 -0.052916129408984824 4.803362798567646 0.2041733589202419 0.3793786127429079 0.27685304597315546
Ni 8.687889070779649 2.5645803386514965 1.5080661984257129 0.33079967539294 -0.25788010441507847 0.6244715926956471
Ni 6.8014042319615955 0.8698843046612718 4.868089107876058 0.5475151326442506 -1.7178018445739063 -0.8901398256965767
Ni 1.0450038582585939 7.5110569673836105 2.9926606269646174 0.7174154293142354 -0.2595076127161724 -1.3878380348187003
Ni 7.66887032640794 3.907633815607091 3.7979463734003946 0.3964810767511494 -0.05299454991916034 0.19107898763012898
Ni 7.68760715190239 3.720972268780863 12.617050302912277 0.6938139878452115 1.278252990099005 -0.13478339836219366
Ni 7.795960003008829 8.793895288519035 7.25290283403463 -0.031223991011288154 0.701476903707108 -1.7661118445332036
Ni 7.000958671765871 0.7028719616308904 0.4592977603832971 0.8458836840916787 0.11230527186433562 -0.14784923040721634
Ni 1.8218844685204603 6.561902662754502 9.23802419336906 0.632047348160376 0.0383055804484179 -1.4284046433871527
Ni -0.013778996234022348 5.032975890335357 0.9385944544773765 0.19240850507482993 -0.142292048034413 1.5847701387954964
Ni 6.283532147042967 1.8833680748093053 6.863447768528756 0.7542125435379269 0.15966473498490566 1.4614410050168314
Ni 3.503940393590324 4.508580345863535 0.5579605559450977 0.42655732731123963 -0.4786468489176274 -0.9910353130620739
Ni 5.919196930997131 5.6741232400883534 4.8275902025193655 -0.2125700676243694 -0.362243238614202 0.38714668672410096
Ni 5.221893466923731 2.887962725280064 9.54127083484344 -0.0020260292910932853 -1.1863404229584087 -0.3196598567260366
P 0.3533232539056259 5.702273780132479 12.183914333445431 0.11817278638870617 -0.6245093879121181 1.0909262704224567
P 4.009526629683772 6.18368697443715 12.37742823091066 0.06228574541309918 0.35397405662687426 1.2555984859242826
P 2.2534294386851657 8.568718149247497 1.399195094699214 1.400148476754937 -0.3769720601839443 0.3154599597120761
P 6.312643085299092 7.68629339963126 6.044729131629696 -0.1349510342883095 -0.4327526574886741 -1.2593700371515733
P 4.914285167909204 1.2473670098149385 12.706228713112575 -0.7484946672175432 -1.6749816640845863 0.22757913943869193
P 3.917754238275031 6.017248152225821 8.48725372996885 0.3320212065048669 1.201645171636279 -0.6634461741866315
P 4.779983444357841 0.8261916222316629 3.764025289759839 0.1566696569123237 0.04957344005275333 -0.034002582197689826
P 0.24009411678317452 5.540935940877327 3.4246160314595446 -0.5557004966685204 -0.12834972692170799 0.8502874695863291
Ni 1.5491766781155163 1.1882390972536356 2.7892673124204976 -1.11498999623988 -0.7236146161464119 -1.7641583203512585
Ni 1.85789034110989 6.524555856812472 4.8731148898401635 0.5501924223660977 -0.7127319077956371 -0.19418076648390428
Ni 5.935677726729435 5.571569019695863 9.191598000179454 -0.7671302800408596 0.7798014477506248 0.6700719070332652
Ni 8.623152795074697 2.435597046708083 10.10689554972749 1.0531958457512185 0.24042797037690208 0.5322615489192898
Ni 2.273443775008782 5.363488780669984 7.179425122528401 0.1336747386790472 -0.926722509916617 -0.3081886228616434
Ni 0.4019927923526918 -0.0405016234648387 8.879744922275107 1.1873040724232586 0.5369836369853074 2.2039974523730685
Ni 1.5499468087572126 1.1401467037698174 11.683346631027696 -0.20667889895091504 0.13320422680053187 -1.1537645459049162
Ni 4.273572715459753 6.883663244855263 1.2872534348024691 -0.45472376244312657 0.21193371959195118 0.9140778245694129
Ni 5.579225024310374 7.900761192802975 8.127144266055806 -0.4449083190146015 -0.30497808634414575 0.6941834553694883
Ni 5.15832597772206 2.6659114103777624 4.841713492452029 -0.6199227969827001 1.1578754827494961 0.10126624044135463
Ni 0.8644082227807859 7.398246418915822 6.907725750246054 -0.8826995673684477 0.17314708574205664 0.21287937133467208
Ni 5.062612329499932 4.291312901300243 7.158910654305706 0.14998633135487716 1.6748880759295155 -0.29345131665146884
Ni 7.929473475197515 7.294206299402883 8.96536985909101 -0.24705910254017452 -1.0673166014233169 1.3889505511565885
Ni 4.77234556046431 0.5110523515773939 10.697224243525064 -0.5739561004445985 0.2994473863339036 -0.9710753250003793
Ni 8.207608421536296 7.028121632516528 4.908626972782858 -0.45425247923366285 -0.23949106038492946 -0.2125343292904275
Ni 7.191334966393224 5.894398724334508 7.103851749640707 0.21229213137263436 0.30580675289302817 -1.1273166361260325
Ni 2.200544114501849 5.27050230095551 2.4310541819581237 0.06425289644179903 0.04057200788509142 0.705735936093778
Ni 2.4450379423392326 5.265066084661183 11.099847636967898 -0.09359561126997429 -0.5329660311854821 1.2219147205185925
Ni 1.0698564270841615 3.310103041255583 3.9349562387023815 0.34619852644651344 0.5250704304874892 -0.6408934856970963
Ni 3.7035854369995054 2.582809783958475 2.829513433719503 -0.5590231332838502 -0.23863462592190515 -0.43444830002354207
Ni 0.9909859890139586 3.4106639823401528 8.188157639635191 -0.1982667636278198 -0.31107391482923846 -0.4151403437235496
Ni 3.840523725453617 2.4397013900103013 6.914634275120095 -1.905811449250092 -0.08685340745013428 -0.5392315524792197
Ni 3.9359474421400478 6.70638823149724 6.18147352836931 1.3709643989918132 0.5641596831794671 0.08211306455167149
Ni 0.6257565153877063 7.3554543363189735 10.920747867007078 -0.15903969980639707 1.0498073888949597 1.0233684779771408
P 9.198530988026821 5.541996003054721 8.122171940218594 -0.08076194984041576 0.7301333911015361 -0.8881891297281092
P 8.352981905607107 1.860327578081847 7.955298220703718 0.9138867916045293 -0.9204631592704663 -0.5175512392923087
P 1.8265958559755442 3.1961327666450052 10.442776703652767 -0.28389581175254974 -0.3976771539417796 -0.5274962663201626
P 3.9513500549739757 6.042662463401802 3.697416237541492 0.30080647146495937 1.7634885479777433 -0.3290418121615688
P 6.879078702447046 3.977090539127617 10.416069479034784 1.3047474368451077 0.21119298477118467 0.6158000330635781
P 6.472929922737341 8.177174670648553 10.46632820471189 0.11581919855486504 -0.8760512088139946 -0.351474173023156
P 2.562949473763198 8.455137470138013 5.704099442771325 -1.2923832588528 0.18993896048841483 0.40271214526252586
P 6.934654953696055 4.025445683065661 1.7169754604364773 0.6456770231286686 1.1457195641132527 -0.9478423226143675
Ni 5.601857804815759 2.8836952954890167 0.4795050823853619 -1.1155540962734658 1.2329714925533861 -0.06718498248692946
Ni 1.163984512220444 0.8729122771372123 6.944139339057559 0.9538826152711766 1.1074332669385445 -0.6580360589146538
Ni 6.836413464897065 1.0436719852664837 9.2490569943384 -0.7673326258596527 -1.2986986595478667 -0.16940921596617922
Ni 2.8162862134393545 1.6552372580178476 8.984359468643147 -0.6814140715189619 -0.9506818489456915 1.180088785621742
Ni 6.250978271800436 2.1278709630071795 2.7180963686951607 1.1773983832737722 -0.27299587701059436 -0.3426671162544873
Ni 4.013676274788442 7.26080981063473 10.472826295255711 0.8124477730307362 -0.9067949177547545 -0.8701525839413724
Ni 7.992270833757488 7.030323300115731 0.09941661755461403 0.33865362421972 1.1362381069853786 0.5111921298435003
Ni 7.18812759877957 3.820455026967058 8.215832510753565 1.7678231707973557 -1.121008691630134 0.1086044259739807
Ni 3.1701567131186095 8.525382445021215 12.545123725122028 0.33756964712692183 -0.040678708666284785 -0.3324467240780597
Ni 0.07258254788976397 4.917999915710327 10.192175286808705 -0.3460992818644878 -0.9957394034059627 -0.01738888490040876
Ni 8.673247528226925 2.3552135284359594 5.72377854575679 -0.08079820239498987 0.23801139051560946 0.19239076446301706
Ni 3.5209738713125502 2.7043092181366966 11.805571800081212 0.23094137104270546 0.216194294640518 -0.5508259421850384
Ni 1.2865530689365503 3.4077374859017064 12.673076854077665 -0.6006068702629076 0.413123827514153 0.2398844391686062
Ni 2.9782039157659024 8.350943324496733 8.016510016177847 0.6255337154115743 0.09656652097284013 0.00023525593925765936
Ni 5.879566914211484 7.820721968229491 3.54974414001423 -1.3711618597146 1.1195899569057362 1.0896900840225103
Ni 3.337655597507333 8.292087222750148 3.3629938016551946 -0.025967627708355277 -0.6205588879048022 0.4339680179530139
Ni 3.3667121736005146 4.033482222820775 9.038795020506397 -0.9723781029722028 0.4768393633952433 0.12827053694434037
Ni 7.249348454614189 6.160193459685165 11.287977868229643 -0.16505788097601898 -0.11251327411008365 -0.5974770663846742
Ni 0.4525351073131536 -0.13177841315474623 0.4154764208347224 -0.29935174129630376 0.4312380206163605 -0.6451882564177082
Ni 4.932668639344522 0.3336006611898054 1.5227983445833406 -1.3875894091430039 -0.12372868320992886 0.3762164129648424
Ni 6.005804916926261 5.560243569082681 0.1268196778582704 0.06090686278770156 -0.39014613567205714 1.0889097542130604
Ni 8.252022308660953 9.092071752262905 11.38517922764432 -0.3989151401139388 -0.09965930096555095 -0.3009689651847527
Ni 0.23728087485086 4.881966862039426 5.960774925288248 -0.8349258995285943 -0.3400070529238209 -0.6384648216509455
Ni 8.269010484580726 8.586277127878175 2.502409957037468 -1.9358743300737435 0.4467284029424758 -0.25025087000459484
P 8.472542422640352 1.4140323410385323 3.464796012126969 -0.10542474269441843 1.1604319306227628 0.8884053595039733
P 1.9330369710184785 3.236406069025482 1.6349710436725944 -0.6972798349066249 0.014565556519000721 -0.022798743062070415
P 4.728511536411049 0.9113001184996067 8.180970055658042 0.2593530894161792 0.631735473346912 1.164173657053382
P 8.678819649928611 1.7411566565496954 12.645295070705506 0.11643986285799948 0.0713735666469803 -0.057311175016643234
P 6.413702346210642 7.802891178784097 1.435967473786144 0.3496690014936171 -0.49237448291636493 -0.6414025641230309
P 1.9343144818476452 3.3491622553303264 6.008540239758357 -0.8452810175106733 -1.2053617012559175 0.7544084615988169
P 6.805390790577436 3.7455167853497517 5.844889290469967 0.3065703705319301 1.5113756850637454 0.15117700922886865
P 2.4521865667662732 8.736552266974371 10.189642916051598 -1.2715683789899779 0.3144965673575423 0.3734769025464923
