# total energy = -340893.55441015825 ev
CRYSTAL
PRIMVEC
9.02867182290926 0.00000000000000 0.00000000000000
0.00000000000000 9.02867182290926 0.00000000000000
0.00000000000000 0.00000000000000 13.21437384496573
PRIMCOORD
 96 1
Ni 6.506557455690789 2.065218381076536 11.252779427295977 -0.46947263861752697 -0.5356299511708904 0.312104670086598
Ni 4.515617957280671 0.2481729067252206 6.072599764183336 0.05985733847726466 0.6853139207940004 -0.21231861373519564
Ni 2.722153567862887 1.6620430431077824 4.754729689015736 0.45887300872480974 -1.2904479895033003 0.7288910340540027
Ni 3.591777175577015 4.279581391151075 5.02200365374133 0.20396664222607455 -0.07142858825463183 -0.215040640652049
Ni 4.985542265658181 4.417548524495618 2.453327574459723 0.3587398534466338 0.7710131600350334 0.4716663038347361
Ni 7.190921747319802 5.848547856963597 2.7203108159542664 -0.6499334844121775 1.2750396253680298 -1.3370124675264006
Ni 5.0494381757870554 4.771409257246918 11.319538329243684 0.43531193357541803 -0.49232923150072627 -0.33630389304062086
Ni 5.502749728104493 7.766842662297987 12.296291641865846 0.49468179089330283 0.23234750736161275 0.5931185323056625
Ni 1.8431762561931957 6.713918960273218 0.30787138734739494 -0.20583891954812292 -0.41550286926929086 0.2979962557096739
Ni 2.81123044356325 1.8020235702574308 0.42354041001717646 1.10782073218495 -2.352952257139638 -0.7633769836460144
Ni 0.545423867467473 8.982634574413863 4.744158017238162 -0.02006154663656545 -0.0209999992904348 0.010367202166936984
Ni 8.521260418204227 2.2396342623637464 1.5026860834687206 0.1926923548638359 0.4261706333957822 -0.4725229954080765
Ni 6.746033945765434 0.6684467432953678 5.016915997197934 0.28300441028653195 0.4519312872996539 -1.3053195072984938
Ni 0.7190668944510191 7.665649309079897 2.5787322139010134 -0.2483150864344627 -1.0728861250912944 0.19926512298534713
Ni 8.058044412953148 3.7881417579414185 3.6602759025751417 -1.4114962976675884 -1.1681773788961365 0.3027461116898334
Ni 7.527790519796617 3.95454017869529 12.575947527059258 1.1242673077767478 -0.3992812652041059 0.21340361926925827
Ni 7.767953188925916 8.72538965829236 7.0594489375807 0.9190397965603785 -0.09077588243299205 -0.613680158507098
Ni 6.983930418280016 0.4935983886302891 0.21461062514798965 -1.7492443793539036 0.8971944185505129 -0.9859568700979019
Ni 1.9764936235752721 6.209613469788777 9.365554990129807 -0.7052430556177597 2.041878599420716 -1.0649072206508756
Ni -0.011138672364842714 4.976071188969586 1.531295235711954 1.1436092026384692 -1.0757665319628829 -1.5427413438592203
Ni 6.416108221881115 2.1509817342366566 7.196626965012388 -0.40610908675921675 -0.5077435091732675 -0.731266990485347
Ni 3.368299491881962 4.31260827249224 0.5022767479373224 0.19762218806528548 0.3009381119468172 -0.6343937369053655
Ni 6.017140244958011 5.393701430444956 4.674664330610784 -0.5505094393858841 -0.3152704694090893 0.8080123629672019
Ni 5.023896063344695 3.0422109535006507 9.37081419143687 1.945878235363991 -1.1064431351111332 -0.15027018114388316
P 0.1981630937813414 5.466743385078642 12.500982465338183 1.0984382625287856 0.30461607501903665 -0.3918664607972735
P 3.8632332210672975 6.21551822112752 12.610027151529012 -0.29055959692597055 0.8358664090649928 0.023213719112301953
P 2.3537386162154785 8.709490167302256 1.490105532221925 0.3661718842446468 -0.38555054588157467 -1.7232268722442194
P 6.2248719250830815 7.810415032268588 5.865702333329975 -0.14853751472349258 -0.8863230230536477 0.19893396489817353
P 4.9077963730314 1.0808854985019658 12.537387875656346 -0.5550929449915085 0.3200678907977327 0.08226835918261315
P 3.913938241737604 5.991128641583518 8.251478288460433 0.8434683897819667 0.7557991712987564 -0.3043121706253727
P 4.622372972310177 0.8335269779705596 3.868137595573727 0.6730099066156666 0.40429645903051015 -0.2867929307946867
P 0.25704267387381546 5.6123307173985655 3.5789681989343936 0.8375715646815574 1.017038679104371 0.7247469299786421
Ni 1.449038618667992 1.1767970787335653 2.7694285961270944 -0.665430551606512 0.5983234735453695 -0.8658554992279153
Ni 2.0394866665269684 6.447293254180837 4.746510889101886 -0.3668732811870456 -0.16211962428330143 0.4165966165541019
Ni 6.003082603009352 5.7576291322217905 9.216590031700063 0.17646278037885094 -0.8955519978510834 0.08165875062307226
Ni 8.804796826525147 2.09900367084653 10.24483927663974 -0.861717822910458 0.6304193256386497 -1.407058316500893
Ni 2.185814349932177 5.17304972101447 6.99019270502092 1.2841770688929237 0.3850890328641239 0.1136432739494688
Ni 0.6822813770512635 0.059191972135777614 8.824321329231617 -0.5736413974176573 -0.7536114196188183 0.11583565361509729
Ni 1.528202012762943 1.176526218580412 11.566964564813377 0.25092758435664525 -1.1945900645617105 -0.339343451197893
Ni 3.9349569896223033 6.950090956479391 1.6707990489920528 1.8073248284364036 1.2335523047575208 -1.0984444331763727
Ni 5.56173404078952 7.826395781304636 8.045901752287284 -0.13884548424670926 0.24242443198164051 0.09854189953165608
Ni 5.419758177178308 2.7747094662464074 4.922446295848286 -0.23914087613436233 0.017503041880769857 0.5074054091075585
Ni 0.6700899615578314 7.421035504767112 6.620705147167026 0.10281610142697777 -0.5957875944973933 0.7476202350323898
Ni 5.0708902999168 4.3848466753382365 7.2178100347233345 0.10972799805546263 0.19069383637656837 -0.5539320919141879
Ni 8.363646895084296 7.210694538499996 9.381756038757088 -0.0210053986070735 -0.7756182629072126 -1.0503509201032555
Ni 4.71556692233847 0.35924182112728115 10.38360364170173 -0.2526054862797005 0.1223397732822022 -0.2501449405543498
Ni 7.924952762365367 6.949431863440052 4.8781913582917396 1.1456048929122593 0.8376219583035187 -0.9626001976498324
Ni 7.1119028119731995 6.065226950814501 6.969445720156552 0.35274764041894086 0.10454696807515543 0.44293345467641776
Ni 2.461568043185826 5.52192662694775 2.475514632471691 -2.095489442767636 -1.6564121286125149 0.6499126584765711
Ni 2.5399007994777727 5.10764602269971 11.367995210642816 -1.3748963870563677 -0.21903099275836474 1.0125569891839334
Ni 1.4047529836274202 3.495323875039109 3.7880451511534607 -0.12004814903454808 0.561886056653942 -0.796723420316944
Ni 3.6709044549848793 2.560775088614124 2.7878759782911913 -0.5440248601028049 0.25636135377770686 -0.4395861354707397
Ni 0.9990676749061121 3.306416975558195 8.266475815140533 0.08109207948632485 0.12222227386773143 -0.28927610222785666
Ni 3.4106259051480583 2.532786206121612 7.140941728992769 1.114560622011945 0.7615725834474238 0.200114615469836
Ni 4.306658377794638 6.715742751971118 6.049395174862688 -0.5352861946782265 -0.06034224853348318 0.23527727941389803
Ni 0.9928740060706723 7.489039460552145 11.389230646650038 -0.13730153679835708 -0.6359988766089563 -0.08984745708145173
P 0.3235036296530517 5.675666849877589 7.93248267462303 -1.3767812627839062 -0.1505036373109279 1.1249368230399466
P 8.548933297184726 1.6708369694134944 7.930262524234349 -0.6873715746539775 0.6154333937527788 -0.1853073752536744
P 1.6334763256218763 3.1735781277800226 10.616784438949912 1.8509309951621284 -0.143161852233876 -1.4682246035975681
P 4.075614667154835 6.008075458499145 3.818081736403812 -0.054399914907119214 0.6178684855568326 -0.39787050089950826
P 6.999784765911258 3.9761367615733834 10.360465864552193 -0.817801581143482 0.6855761733164516 -0.4810549441384876
P 6.355498748277169 7.70689228173338 10.208209052394459 0.0011374560385528799 0.28310905418519633 -0.2241873401483236
P 2.4876609046062645 8.394579124574406 5.975117195063446 -1.036819461275724 0.06243949738214407 -2.031580302818501
P 7.014032009967124 3.8911498741856354 1.5200491221530272 -0.048267833867452356 0.8785451788804418 1.6295312450612711
Ni 5.499427176892478 3.128570198997709 0.32094400120575256 -1.6509611328002727 -2.1512553847843465 -0.7730885545068233
Ni 1.3920406137727566 1.2268339776927597 6.758161257689285 0.7125632434282567 -1.239849193509826 1.1714982157392533
Ni 6.948754713057168 0.6163612387111567 8.969942970504274 -0.7544603978826749 0.11043248032165498 2.247362449622265
Ni 2.5492635321051065 1.5208707312842589 9.246044267621135 0.7201261433771792 0.46993389452466156 0.2586213534564772
Ni 6.033491169536701 2.1285815995708752 2.706277551419392 1.8857254771334946 -0.1622479223310496 -0.5602276951149125
Ni 4.1532702730638995 6.947580985726837 10.36922638477235 -0.5034464244598104 0.1680367610986848 -0.34955870116799803
Ni 8.12522675960695 7.15623359037263 0.08643147487123232 -0.09678146519712365 -0.08954792356316191 1.3497522836905722
Ni 7.592417752339005 4.017406820242181 8.239439457519943 0.8022893444404957 -0.060753882149605046 0.10408596927833688
Ni 3.1362265126601763 8.531101670435465 12.342727003655279 0.2456208274317512 -0.0008528349185985312 0.29937282434222634
Ni 0.16176942073648082 4.79837789982922 10.196778753931387 -0.5315416400341297 -0.19988038797184285 0.23612934300154817
Ni 8.711584819153309 2.2830621735859995 5.691074278256128 -1.2469559797579364 0.7860044912375431 -0.6580507142026731
Ni 3.724751453431764 2.7810927371890544 11.466191044832676 -0.293573701161946 -0.7652415476585789 0.1228110564916659
Ni 0.9265584119069619 3.189026185181535 12.662686879637906 -0.1450215311504341 1.4596700291593376 1.128129104724999
Ni 3.2241116036866653 8.359195759900809 7.945406315397152 -0.5604722070255509 -0.3455963740861403 1.4023421419721462
Ni 5.571214146149887 7.695913416858898 3.607748895941291 -0.09604484414141523 0.41807397243057676 -0.22906497995559905
Ni 2.937460303604481 8.373704835438055 3.549459790982691 1.1849692536424947 -0.10113639973170968 0.693159127870032
Ni 3.1613803922163504 4.21943237980749 9.225734270470522 -0.4111949859225564 -0.9125315631282155 -0.17548987494262036
Ni 7.39335359711484 6.05105193613281 11.405867780123895 -0.9146576083322828 -0.047063272036389915 -1.0887485460448474
Ni 0.3831145321590398 -0.0037387729806933356 0.3343642189273236 1.5188966760311389 0.8370036079932295 0.2716360205485902
Ni 4.7126145466691 0.4346185902811483 1.4964617171492567 -0.276676154075659 -0.895123137843781 -0.20382343177999093
Ni 5.690175925414835 5.493224479385267 0.28837758212494874 1.0964500284541634 1.5373386847864103 1.072487604101295
Ni 8.036529088121 8.72509171212389 11.241758127664168 -0.3213768394171433 0.6998098004173302 0.07597172754062399
Ni 0.10448069261019403 4.8358739736974155 5.827644676077576 -0.5231850405393184 -0.2791598397294612 -0.5043370545948798
Ni 7.69222069010424 8.86863856462339 2.2341809446135925 0.5700716777885279 -0.16188076879961796 1.9226755719952822
P 8.334520399948538 1.4184946220640666 3.543539690901936 0.12783936294419274 0.661219598848958 1.0550028170529702
P 1.9015737052130568 3.1884573788599133 1.5671191995680154 -1.7325669186982227 1.5048304277460598 1.744218644004538
P 4.633035833672647 1.141729717571979 8.265247012912393 1.0630719672143498 -0.24298673224301376 -0.028851634124369665
P 8.380349937862086 1.6700243889540343 12.337019077361159 0.8244252571075867 -0.4176343137899969 0.6905700269866172
P 6.337531691451329 7.59219203554471 1.2500150924668003 -1.5157943829567313 -1.226632437709236 0.5521868270883071
P 1.8637255131457628 3.2794573616476654 5.904288167881024 -1.4271910826950258 0.27773853390190234 0.36717512869818053
P 6.987045310041279 3.9721370599784853 6.002761182294276 0.07246988503495261 -0.21517870889181007 -0.3021467875429377
P 2.356095099547913 8.440724665999966 10.004298306163204 0.5140116015701663 0.08765713429835226 1.7675999990429556
