# total energy = -340862.0089117666 ev
CRYSTAL
PRIMVEC
9.34861046564054 0.00000000000000 0.00000000000000

0.00000000000000 9.34861046564054 0.00000000000000

0.00000000000000 0.00000000000000 13.68263638849159

PRIMCOORD
 96 1
Ni 7.260869217828711 3.05978141968162 8.448042682495085 -0.19064524252682008 -0.11314165172270191 -1.8606947594171115
Ni 7.582162253018715 5.266810663184045 9.319010625639706 2.4022271921153657 1.5948527198424791 -1.8265055151299123
Ni 6.486346211763282 5.2135235850711785 3.7489329174441184 0.6688123235945514 0.37767242868507855 -2.529789133028456
Ni 5.836141024074154 5.338205999245092 12.772070313875698 -0.366858111678394 0.1399304897807719 0.5903769650047832
Ni 4.79793111884179 6.272206946631117 5.622632790130169 1.696679460772994 0.5691373388997166 1.9897883064833797
Ni 7.62037002288666 3.6892887843984883 13.320251313921116 -1.0291981972850404 1.1555869438256356 -1.2249805039281096
Ni 2.2390575820313168 3.195280175851427 11.339334100627898 -2.578388124983082 -0.9572011381214481 -0.22018696073967883
Ni 4.693011666620612 0.5490607042647893 13.587952506305887 0.2676587810683971 -0.8476487464119014 -0.7524099431115493
Ni 4.218728625585507 5.422278050730885 2.302431810544848 -0.7687806711600889 -0.5502183905080266 0.3745223130918711
Ni 3.6220816257049084 3.0125802868058544 1.8108416874552957 0.07673020297320333 0.5392312953689036 -0.00042628890414120134
Ni 3.846093023203246 2.824121653880014 9.681422587912452 0.9269389968027971 -1.5081682338700413 -0.38692685740381105
Ni 1.48311026442383 2.815474189449417 5.156574656344835 0.2619437329614908 -0.849757051004156 -0.9245442713183755
Ni 9.392361690953598 6.624116680210532 3.8754972068503344 -0.5433049512176449 -1.6421810726147976 0.3352242868231969
Ni 1.7123849294620879 3.4852460182771825 7.373969638831742 -0.4646615903821288 -2.3067695879359884 0.8243478669024319
Ni 3.8694458514709558 6.778948362264096 0.06319567005880203 0.7580414303657138 -0.24372823839472865 1.1338266693304087
Ni 5.043930447519331 3.165860099567007 3.6670288086626024 0.4533466795899418 0.40758592841505936 1.1033837794595192
Ni 5.73954183492674 9.374225387174832 8.529208251071179 0.8373170254685901 -0.47841956339816955 -0.28366698357119535
Ni 0.1259687829367792 2.8007127339511335 3.2752537966276263 -0.6528920528198691 0.29465459293095064 -1.1765383492663222
Ni 8.106927789108115 4.794883471918141 6.988310487586491 0.32441974000852514 1.6217004361629426 -0.3036539682160835
Ni 2.963836633247874 0.5399869432092894 1.4731137955420601 -0.8667618130922685 0.22132107434412204 0.7076040996507685
Ni 3.446991505358261 9.043546347348807 3.887168011818072 -0.49321754764295056 0.5019868091951484 -0.6982095458097459
Ni 3.591549064807255 2.3491842101312423 5.728058002162907 0.6481995324402062 -1.075577041659896 0.45255452270594965
Ni 1.4452109986923276 8.785786467045654 8.481249880769598 -0.3107484131690197 0.4458202893059096 0.07329418070846086
Ni 0.11209638026806276 3.1348320623290062 0.744308297914413 1.4669465082160928 -0.8433660598761475 0.9259514360785474
P 6.10273534101181 1.9371255185556544 0.6740693849345174 1.4762055649205157 -0.02404752786750697 -0.2818525560702759
P 0.8266190712394221 8.494708140006665 4.679283232548903 -0.06575596334988675 2.194202320659518 -3.768705016090735
P 6.320081179440941 7.478392679851551 12.905243135828929 -0.556595240568648 0.5507696350258063 -0.04585742465374683
P 1.6684932045954366 8.781635684118967 10.827329417455 0.24001762231236082 1.829029824213663 -1.4095466301403852
P 0.48210595804648126 7.730375119054048 0.14443789723849512 -0.9646069436672161 1.9068699724215932 1.7297615880389436
P 3.9560513763196576 1.2418693783356651 8.196391184093502 -0.8448732405492934 -0.280203193392311 -0.5223720577197197
P 5.973331878689299 8.309979602548726 6.338056687124348 -0.37940355244357243 -0.9679329227166557 0.6534327558146876
P 0.4544901635297427 5.104958174873858 8.266405730428712 -0.1931240430846158 0.15349383028750338 0.5987052823648206
Ni 0.5391829627324989 5.579446885333258 10.479982740511883 -0.13309572624712562 -1.4535297205895548 -0.7165962758470498
Ni 4.551090415246676 7.150321902269999 7.976798874634454 -1.5425932483171305 0.6129574214084604 -0.2915175899638657
Ni 5.14012764642835 1.1840201784475206 2.451394435117839 0.35927027202880707 -1.3722774613762818 0.13434862481762025
Ni 4.649465840331185 5.008882507897377 9.169788109703287 0.6759242520489842 0.27174426399168033 -0.9776997722954323
Ni 8.781878747984043 0.8452041083075591 4.301889187577264 2.168761769099226 -0.2175132705622576 0.42366046537941876
Ni 0.8831127226492567 5.9084805697649205 0.8983799379591029 0.0742236345012657 -1.6176368076165302 1.6213296830870854
Ni 6.172719036933375 7.0651934578321445 10.023557414671725 -0.47281558694783077 0.513814912178328 0.35210563595956784
Ni 6.3533902775665805 4.258890254984259 10.64643194045507 -1.3459123411191916 -2.1134645391888185 1.8801765222908071
Ni 8.187933496449867 8.688009353013639 12.104042935710362 -0.2341357096102871 -1.1794964034533815 0.23508958888312417
Ni 4.352086550020604 7.840539141594754 11.658385339093085 0.5145649029704751 -0.8272241600089624 0.05563121621105903
Ni 2.380343127911977 7.388786251130178 5.267445433816302 0.855845680400397 -1.8115350098630092 0.572049370340189
Ni 7.384317615456854 6.829916985048543 5.233772674754068 -0.5711780234788292 0.46561341277243684 0.5058581192250965
Ni 7.374894216380052 1.5786904550599623 12.562849352567248 0.6907798290045781 -0.6445897036017609 -0.922033846191696
Ni 1.0709674353564849 0.7025321635349447 6.2941771154509505 0.3965160437541429 0.8798335586745621 -0.2702584234747733
Ni 7.200346315424728 9.190048417718412 0.5253638471418952 -0.6386450559825517 -1.4326544198024425 -0.5303540474839318
Ni 2.2096562029672873 5.447481903817252 12.719474098056258 -1.7460708667219282 -0.47038075225409315 -1.3395678869584027
Ni 6.061031190930844 9.31434753887432 11.02013141467755 0.44036852216271904 1.1045171217330139 -0.30496008862201673
Ni 2.402518031295086 2.7600088851610587 -0.12956051897379037 0.19770214937360145 -0.4550184108654099 0.6909580064536551
Ni 8.393743149898073 8.622241880290126 8.39691045903222 -1.7248371541541325 -1.0060767807762285 -0.06208751335936403
Ni 0.8292544444534603 1.2727571864207374 12.541080178866613 -0.9113051469202821 -0.20205914079071655 -0.7925610614091383
Ni 2.313463170575231 6.573054571324132 7.612389114362983 0.008671816742385065 1.2845354806736071 1.9566084772973011
Ni 0.7543627281793936 7.249473262000714 11.847192675179206 -0.661127553355784 -0.35199764962679375 0.2961319488074255
Ni 1.4958711173403325 1.939948798834617 9.338727779402486 0.05227052726894224 -0.4120593908053806 -0.25403604807863994
Ni 7.617808503693165 0.32729297321330897 6.131339283626185 -0.7329677752265377 -0.044514280362291075 1.9194161845177202
P 6.905248086001786 1.8843619626137205 4.4005955534626855 -0.18322940967872317 0.8443374226504814 -0.054449794308448166
P 3.8152239123385647 4.506170343258549 -0.020750175189354427 1.4745978541137637 -0.26190079553869733 1.069528264362655
P 4.146426474335523 8.048929011456845 1.8473199644371217 -0.34422031967422007 -0.1814131824055908 0.7828967988464969
P 0.24287221856723432 4.054062205606552 12.370621360010686 1.061006857155205 0.045147285960599665 0.07109717305714208
P 9.157029126508824 1.2264161256829333 7.968712326815571 0.0009441090808241805 0.6462035850561 0.2362915796110253
P 7.4166825039527735 7.562502125778125 3.110980018276871 -0.07076575785965232 -0.2762578355913177 -0.4267833272791166
P 9.420687979845175 4.322563639024037 4.972817439486182 -3.0507069748001525 -0.33017386888348293 -2.4365051394616297
P 5.555000269672705 4.355657719115187 7.3388599983825 1.215907080871932 -0.14035446469206794 0.6275278630234676
Ni 5.27418671662809 7.264533873025244 3.7956039841218145 0.20705402290214664 1.9193313381133978 -2.037742465765155
Ni 5.418192708075565 0.4702612689291124 4.954332432547133 -1.0157042765636637 -0.28216545932500436 -0.44701765204812044
Ni 5.245121887531089 2.4204767114801418 11.866074063190531 2.055676424535757 1.2732000010561297 0.05936085845682035
Ni 6.036360208625607 6.767197159248679 1.491625913450674 0.8655042865360836 0.658818445606633 -0.6181114548055742
Ni 5.576960155021323 1.9250845086241855 6.870297371925862 0.7497812472394506 0.7279998896983011 0.5323129709825155
Ni 6.068108088848641 3.955967238827901 1.3600825542544732 -0.25844934665498714 0.6536065623883904 0.7892481949858214
Ni 3.6012716194103045 8.557549497739068 9.494750474394923 -0.12126479505046857 1.9112789001225663 0.5415234338371899
Ni 8.11086355400031 6.125695527651318 13.493869963023032 -0.4860228296667243 0.6986425195821064 -0.7662597045104481
Ni 8.946788231828075 0.5780329821208572 10.197832336209347 0.3603681330786761 1.0412317314108068 0.7833387714799218
Ni -0.024090433612113632 8.576171929247986 2.4720146646254797 1.044811221231949 -0.0429955297249195 -1.0753960359973416
Ni 3.6032067817207194 4.630964940754805 6.553120529804822 -1.1468225673694443 -0.9616105800430536 0.38256703777321854
Ni 6.558984912980296 6.624069937159557 7.65310885579039 2.4113173273420925 -0.5579399275220004 -1.0200970063147208
Ni 8.5013176074147 2.6784142153770047 6.236778518574217 0.38518416368109143 -1.5054120112811429 -0.28880790434218645
Ni 6.48197106219191 3.9112621848742637 5.51225468441599 -0.26190979439976186 -1.1327756023580748 0.0017372944060808791
Ni 7.734077168691362 0.9484352015274757 2.3623068542623007 -1.1394535285988827 1.775364473479723 0.01351783198077672
Ni 1.7469747871844754 4.465644118062183 2.682631373436078 0.14956955553243273 -0.7089824680555338 0.5533309679950793
Ni 2.450467052986471 8.48071327054439 12.901713100619206 -0.24262112137347894 1.3370209521668328 0.7274095644124698
Ni 4.03097113842431 4.48829580056525 11.35125170890479 0.6934854008611993 1.6727892844189578 0.6829608471807915
Ni 8.666666475937907 3.408026498064501 10.468995318949418 0.7700942477651899 -1.0604013623607222 0.5281200159470903
Ni 9.291536929997935 7.936455882197915 6.314344872225142 -0.7370524868188726 -2.3664533769498663 2.5067101397218052
Ni 2.190893542305441 6.711414002213682 2.925402627013203 0.8351189893760069 1.6190809962622246 -0.7970892882967949
Ni 1.1738395419449044 5.336990679919711 6.219702347191592 0.6986774865851 2.05004905104665 -1.0555054677210016
Ni 2.2481350825308946 4.477713173824238 9.365381601930135 0.7768997007227976 0.867376563858132 -0.050414705007126075
Ni 3.199225289353819 8.900325639157732 6.595139728049366 1.5637943078747778 1.5367306188887662 1.5494082143564347
P 3.1890913959021785 6.513821777127092 9.75643116181396 0.06723434766762615 -0.8161054243879815 0.40761472477046573
P 3.6047866968437146 1.3282879309804623 11.877485911655862 -2.9673394690160895 -1.0171777757853966 -0.14571341501113613
P 6.946793309709433 1.9854017416038732 10.131676896162732 -0.8198936877858203 -1.685474336085794 2.6011297895549723
P 3.03890597311565 1.9451185802725846 3.634614372532647 0.08030326503644235 -0.216114333332202 -0.08026546981997144
P 0.8808484892599696 0.9319461228651117 1.005019534456204 -0.5361326018389219 0.38969233596409014 0.22654864129164856
P 8.285411454955634 4.325031672115581 2.1900970407168066 -0.4432407015041915 0.5968378901387785 -0.39920156100610604
P 3.1646354316314307 5.521214392427108 4.549038395308821 -0.4299997773338852 -1.1132383036560958 -1.6985257699531136
P 8.17025527457067 6.817997507049612 10.724135718675864 -0.16838437424609068 1.0557337816817238 0.2661066060899288
