# total energy = -340892.46318686166 ev
CRYSTAL
PRIMVEC
9.05416486862337 0.00000000000000 0.00000000000000
0.00000000000000 9.05416486862337 0.00000000000000
0.00000000000000 0.00000000000000 13.25168549424713
PRIMCOORD
 96 1
Ni 6.289294553227457 2.0421125645496647 11.442194533974938 0.5326783247417342 -0.11109171117220867 0.5410763189974424
Ni 4.3995907461666395 0.3070882995305486 5.926365597192618 0.3771751773336859 0.09292198224171738 -0.4517842201988284
Ni 2.5774943882930863 1.5332503897508658 4.810348328200102 0.9076207560901595 -0.10033215866285947 -0.19642482532307462
Ni 3.491811120752911 4.331865592835886 4.851998392082026 0.2593309779289921 0.1304138085395883 0.3181740162091295
Ni 5.383787523199561 4.719945208084918 2.869466759550146 -0.10780352733924015 -0.8574760169149683 -0.45356162381422527
Ni 7.505169301306811 6.2712767651087145 2.6217529570780314 -0.7030005394404861 -1.4137341858591717 -1.01484912765222
Ni 4.990845821407932 4.202255222524423 11.671329190105515 0.06053970925626993 0.8704541743421913 -0.8421275594833562
Ni 5.705002130781799 7.884493539113218 12.412655237462662 -0.9328908435108578 0.5358726633093158 -0.05249009947891606
Ni 1.9251689709106254 6.625032041283296 0.18589287006208133 -0.36597108108775034 -0.2339853000753519 1.0943486658404442
Ni 2.715715269409033 1.305393276285392 0.4153724898747306 -1.1590862152281456 2.634742592513411 0.5717310677688218
Ni 0.5438266433305328 0.06915752221536928 4.693521533288064 0.2921770779247355 0.1123016723199098 0.11617246812922571
Ni 8.712243401119121 2.5460492736516813 1.4938231233479116 -0.07002219482540845 -0.17969568549385181 -0.8590233067974303
Ni 6.806758184665856 0.5482903466182416 4.7138897826106385 -0.9547007402970976 -0.29212231342740014 -0.4341294832315426
Ni 0.8274900074737385 7.363625541678513 2.477415987583084 -0.4226096555174012 -0.35098180676776974 0.4343685958255422
Ni 7.751587452784056 3.7896207121105507 3.8063609575641917 -0.2732067074698198 0.606332202782459 -0.08857887478167326
Ni 7.455896536009223 3.9116074755898618 12.557125303181401 1.5174838548440124 -0.49643296925645475 0.9015506386366795
Ni 8.076641026277022 8.945442471866032 6.858780699838652 -0.7440805973102476 -0.109216862746999 -0.07165844487725077
Ni 6.873034671615204 0.7726597957704794 0.30173276100178653 -0.30433582477445653 -0.10826195503289743 0.034626588934933915
Ni 1.6666001301593338 6.4745427667498126 9.364395883952302 1.2774454065960452 -0.6027655684771233 -0.38470233894866646
Ni 9.4748213842915 5.039738311780402 1.3557797038636867 -0.8888344766215919 -0.6321738464359112 -0.08730874981999803
Ni 6.2721006941131385 1.608436174945863 6.8949584264648145 1.3654560675790743 1.9409334897642057 -0.545880425254305
Ni 3.4523530701893512 4.560664339449273 0.4908543462614276 -0.9182782358040056 -1.0795468249409215 0.7251454509686415
Ni 6.28717587864465 5.712553304294881 4.914136220262993 -0.4164922297657537 -0.016678746207261598 0.5202894641590782
Ni 5.36720934729734 2.7633945016870745 9.149599403331695 -0.038277555423959886 -0.3730382723471769 0.5460205503765951
P 0.15344908103399452 5.669482641942689 12.378942959934355 0.225417870121315 -0.9614347165868217 0.22721969921674415
P 3.952812979975993 6.301934167405229 12.634634387085578 0.22761179244884025 0.361685566338519 -1.1453493252580276
P 2.3905621001023456 8.435475688951412 1.5391165831790738 1.1689412536453545 -0.551838699720269 -1.5935681967031006
P 6.28294758364392 7.82511632580532 5.899053708820664 0.5536736960464788 -0.2312869273075823 -0.5230647129113701
P 4.72745111077358 1.0948567802426095 12.822211331816044 0.9766996131656921 -0.44161962096100077 -0.7183078592215177
P 4.106932974627876 6.021019647720742 8.300365818889535 -0.6495591317918943 1.3012126842189717 0.12551919945144835
P 4.823244175244085 1.0404955742803306 3.7635981368180484 -0.5051369247883558 0.14636338989030923 0.5552564671525663
P 0.1386373727006015 5.644918692612965 3.6981482951225915 1.840000978513186 -1.0490054618189546 0.6704755702295871
Ni 1.4685583816561822 0.904487531061982 2.597581958504264 -0.7382274809635802 0.9634064956012118 0.12122314317925574
Ni 1.9773119064763753 6.38248001821143 4.914692145986858 -0.9777013149573293 0.16589040417964332 -0.19392776993283375
Ni 6.072664604217883 5.781201982443781 9.329968327398175 -0.14781632028675187 -0.7541012147710433 0.3900252938234767
Ni 8.477079576592429 2.330179874492346 10.261734246422044 0.16217490300126908 0.7028033358280155 -0.6462292960877128
Ni 2.377687077637595 5.3037124889673155 7.13555565533827 -0.31562990963103704 -0.2516806604725859 -0.30598004524609884
Ni 0.48003190297583265 0.13156516450987266 9.066975621684666 0.383369736180172 0.287157256112641 -0.19012665101918869
Ni 1.1690466073003896 1.0985961503396149 11.249143441155733 2.160289984182789 0.2895715219810884 0.2820160782313337
Ni 3.983506598932043 6.79467992871088 1.6832552664630667 0.6410256403995864 0.7837468055516179 -0.07648132018719087
Ni 5.514158443361261 7.7749834148437715 7.99731296064769 -0.5084176524221566 1.2256744446713408 0.4434805854291395
Ni 5.348684525945104 2.9667148283174756 4.930700814917889 0.8741642762039268 -0.6095285982325696 0.008557402651707843
Ni 0.7614670371411375 7.469749408281423 7.0051458022675686 0.5641368003613316 -0.866882654940849 -0.04710826634171242
Ni 5.141869291669559 4.444589945639079 7.272140448859716 1.048412308319646 1.0397132378837515 -0.5315444682476071
Ni 8.42938223598462 7.108442958593759 9.148181521110894 -1.1643580051500462 0.6249634447304011 0.9032043721900186
Ni 4.8952881652244065 0.4468266586810191 10.555046634081904 -1.0978456232501093 -0.7354074950162819 -0.6093306232891506
Ni 8.169419053841224 7.363453512545721 4.657795609489603 -0.5075959278518097 -0.2358976866067163 0.807666549592009
Ni 7.218614036899724 6.330889386703591 7.2356983406189475 0.4576496778406699 -1.0916569779408942 -1.2405246223102957
Ni 2.4137317080399656 5.2819100599271485 2.7539256560516066 -0.41207918829972257 -0.836133032462818 -0.09586949490581553
Ni 2.4596815948252027 5.079929749699548 11.479882495303718 -0.24697219925332303 1.3557208425691814 -0.3050644754103649
Ni 1.0323649342146868 3.008300607628726 3.57389980125531 0.3726402655778098 1.4846328697522626 0.8407556188364939
Ni 3.780937767986996 2.844139544120719 2.875946825357475 -0.4967767257491187 -0.28317975952213165 -0.6444670619809675
Ni 1.2405292390579161 3.2882916024950664 8.174646928645124 -0.5814503519391148 0.19782993320071734 -0.03188270764120961
Ni 3.71218043985949 2.7728742123204033 7.200170703031441 -1.3921577452399765 -0.9867099462138427 -1.1694598451529858
Ni 4.151271220063799 6.998371476101517 5.934157611491608 0.2088864481251951 -1.2241369249808918 0.6181047699373549
Ni 0.8552509824239288 7.494548765898125 11.428108064248736 -0.32635269536517986 0.14504030020351152 -0.30275793876437535
P 0.11974766850354919 5.434780579825069 7.956126470007816 1.2945118751600286 0.6882035836369695 1.0019298484873906
P 8.492842877655107 1.8860640327775338 7.9455783679182 0.2364964965329798 -1.558638217595135 0.04559851456540533
P 1.8606942627731526 3.3172920926178477 10.425524994586304 -1.3905896294219084 -1.1043163185761176 -0.6450262769185472
P 4.163349476018775 6.12692621436644 3.926408318925394 -0.253150303039577 1.305009946477875 -0.6278155694672156
P 6.865338631463982 3.9359541249623744 10.458799955950722 -0.8145198250684166 0.9501815122705055 0.23375441501146837
P 6.461196927711105 7.82459118424206 10.196430176781215 -0.5194463994324924 -0.2661081487518256 -0.2406714538462758
P 2.3779134317596897 8.41990252535129 5.7839236644078476 -0.5517654232801722 0.1229249563617109 0.6377243439404953
P 7.109266887598184 4.181276722488681 1.5746578020139055 0.5010905226331241 -0.6873636042341775 0.3607607405314045
Ni 5.227775208086965 2.992609739885117 0.6722364313784044 -0.37306989691606074 -0.4737329565557776 -1.1743104883770679
Ni 1.360433544613955 0.9537838371882683 6.951873812340811 0.40891416030817956 0.9949583022655637 0.10541908626746362
Ni 6.908409293816174 0.6077734936552807 8.987491824419331 -0.14280935399046374 0.06410814333381863 0.7054338314723271
Ni 2.8592147286522303 1.5532600941440433 9.130689779971899 -0.2357915000461552 -0.7755573277622901 0.8289226307573079
Ni 6.294609348014242 2.0615880732146983 2.414682395352764 1.337684811003077 -0.3269903289491788 1.7799410371068118
Ni 4.141583263638143 7.013700177249775 10.508785284024665 -0.2624924063761092 -0.18817389816819205 -0.47175603533506494
Ni 8.222250105938143 7.459672122765764 -0.023325339573621314 -0.4471181821817268 -0.08628930741654818 1.216335426658602
Ni 7.500026535652818 3.83488248236462 8.398388018754428 0.5121948600764018 0.043001700372506585 -1.0183612545705365
Ni 2.9574071468169394 8.483218300383639 12.407341348092364 1.2897129111094885 -0.42305548480556815 -1.0296401699184654
Ni -0.0059132750856036335 4.847672312100552 10.133378783363472 0.17945580156890387 -0.49166665821606287 1.0695542325045837
Ni 8.396416021642738 2.043742314228747 5.592900704522611 0.795567966556262 1.5445465153887594 0.8158853379573755
Ni 3.427553712572649 2.3957320282509897 11.623636376580148 0.1985069046630839 0.19176007285755362 -0.49681734917906695
Ni 1.1386246132908533 3.485853480259377 12.657585789649499 -0.7195658999983349 -0.7036538567537688 0.13878994841842549
Ni 3.020668596859984 8.050918143842173 8.14057701160391 0.42576157088282157 0.6986206652052356 -0.6250439202593493
Ni 5.757941832857322 7.853827082651819 3.2623396496886574 -0.6723948987394872 0.059963010817193504 0.4924480164667777
Ni 2.9986307595328374 8.301437832011775 3.652880186953104 1.4934540675883183 -0.1644834965297877 0.22989004696005566
Ni 3.4883614839321866 4.239178106920521 9.327278335011203 0.15374708394889006 0.01847594731700044 0.018462577580561752
Ni 7.199138528234689 6.201559695503526 11.540627792925555 0.1017346954373409 -1.2019184799023237 -0.902107539581414
Ni 0.5990108728807481 0.14361263630424442 0.39651809692072504 -0.24099978371997202 -0.09033159580672184 -0.2700465645742833
Ni 4.415598509681181 0.46896861890432895 1.7082882215337707 0.8755809540457952 -0.9270135587944744 0.3301381305495411
Ni 5.710000029797651 5.363424706375915 0.43067040686238317 0.6633266178896318 1.756429327138117 -0.2778182380999022
Ni 8.090267544427126 8.994950645450599 11.086624803157644 -0.8276777026066132 -0.1686862217572256 0.7403571257120733
Ni -0.10937793346214383 4.926072325829295 5.910040032490656 0.26934516763188454 -0.6282356877237697 -1.0133116079617708
Ni 7.947791205815798 8.740845507987016 2.232882913234644 -0.21247262281455664 0.6979943444751463 0.5669999808417396
P 8.339727895305325 1.5209548338386782 3.454780491794696 0.46797754212923925 0.11203299203955544 -0.6507852908895114
P 1.9978739149274638 3.2472400189119597 1.557735567846101 -0.5137182386994636 -0.27799667265929545 0.14393806827826824
P 4.6726009799075765 0.9699183590111831 7.992343129542978 -0.7751372095057361 -0.9331404976278188 2.173556105164076
P 8.563202792967045 1.6513348081652628 12.472128424918328 -0.9019872119534659 0.9644758174059906 0.6286514351049496
P 6.337535143728293 7.423048025810831 1.1698107788165815 0.10166141899724426 0.9808951393042784 0.4778138114933706
P 1.9773571773007943 3.2974000923681595 5.881641644332647 -1.5485399528188686 -0.13519888863305746 0.7855686892517052
P 6.9684836778201245 3.9131829002796414 6.242550616181911 -0.2291673098614182 -0.14334645744085636 -1.8648182946671819
P 2.372263632872205 8.482521129687587 10.207879168276767 0.2383525759051121 0.6309654279501069 -0.1629871144899193
