# total energy = -381162.63692928076 ev
CRYSTAL
PRIMVEC
9.37011083708064 0.00000000000000 0.00000000000000
0.00000000000000 9.37011083708064 0.00000000000000
0.00000000000000 0.00000000000000 13.71410435539524
PRIMCOORD
 96 1
Ni 9.435139233231872 6.719887304887119 7.4983917053737335 -1.758588282462649 0.7532141841803995 1.0258269668199622
Ni 0.9403843063610055 8.242370996103293 9.154013425009818 0.7293214367232019 0.09044061058076037 0.6177648700994328
Ni 6.994778241472541 7.052638674830244 9.289988722939157 0.8556960421964103 -0.15997378158489226 0.15445850819361787
Ni 3.446532845100814 7.113085258731549 6.458355335077097 0.6271416833286425 0.41613227532317365 -1.3399836343395826
Ni 1.3646441770606226 3.90445952342055 11.150800873966393 -1.0204587605295137 -0.31588084929957855 -0.38824583332555074
Ni 0.27525355986816447 3.4048452227512715 5.760225869854567 2.0638905849154328 0.02451109776748682 0.04905639120701874
Ni 6.01672609023737 3.5294208440453088 13.496762685829012 -0.10448243338580715 -0.43603312801215877 -0.6339044559737729
Ni 3.301146208019334 8.040154637837283 2.148026657159547 -2.8752055298933064 0.8295494657080295 -1.3915980160817647
Ni 4.645935120580366 7.045873454929959 3.4506744340148394 2.353456450469566 -0.8000350011886802 1.6420913411144689
Ni 7.942190130832457 7.620532971916948 11.533245688811418 -0.36743198190399295 0.47379929101733886 0.11627608358662556
Ni 3.7990738887688735 4.627354191131244 7.876051204702035 -0.45594735043758255 0.32156504416854936 -0.5990546952844393
Ni 6.445183770515004 1.33339485799213 11.687762561725085 0.10778218718300148 0.9814245294451872 -1.017108870220674
Ni 8.988381726825073 2.747578810139746 13.35591867839803 -0.2642471842836869 -0.6568790624920752 -0.7036158044269818
Ni 7.156393910226173 6.9196393240481795 2.6315309265621214 -0.43029493997680085 0.1268572015365815 0.26152438603588507
Ni 5.084793623696388 3.3523538628047356 4.073266752109736 1.7389751362174115 -0.353569622099604 -1.2046551621071964
Ni 3.0933265235755245 2.5692843444020292 12.295490136260684 0.08046653008718399 0.5786452783901519 0.23172144374183962
Ni 3.658597189675967 8.290833208463788 13.44364821352324 -1.3696721625429509 -0.7218469827230278 0.02490447655116356
Ni 8.303023722439232 5.284601863521439 5.165335346930313 2.0773893907328156 0.6359592816202725 -0.5996367930401544
Ni 3.32469329612102 3.1203780330660007 9.616274716523282 -0.7668022072774794 -1.3270805531246692 0.4001505551829367
Ni 6.761190752699389 2.191116048064606 9.13060407753491 1.201313499328473 -0.2651817802828143 1.3283607053886735
Ni 6.179466172270829 5.601470895887023 11.548825371814472 0.8766854999638837 -0.31794981601346534 0.22795220650739448
Ni 3.88638457994735 3.781317529058291 1.068482152254097 -1.9817960323065222 -1.2108402078719858 -0.8506222272179286
Ni 0.20074150284730605 6.353984483410463 3.489156541505812 -0.4846308344152041 0.632393418645885 -1.3955361747939063
Ni 3.5630595413334314 4.423704205933455 5.543995574077661 -1.1047477496865812 0.016935342302757932 -0.3779264536774136
P 4.896407548772236 6.74973110735583 1.094300555181031 0.20838302612621534 -0.4392511207288241 0.19134381125574143
Ni 8.39281749294399 9.394472952944838 8.994751528055287 -0.9458422614652033 -0.6206247081457312 0.8487980295249962
P 4.528105978965284 7.009620496766242 11.674391413805823 -0.5978611891969704 0.7737063905964804 -0.5189830866428288
Ni 1.3528284675117863 7.8537362861528255 12.181292849539439 -1.4118557378895362 1.1460373524639875 0.8604042463053568
P 2.0183030970660405 4.114743546969311 13.254763648711696 0.2032855569986499 1.6318272401842993 -0.2207294635067102
P 8.013693445318715 3.7134872979527977 6.894203221636386 -2.199746904626831 -0.41777186780912573 0.9586309285894394
P 4.938348164109739 1.4758486504353978 13.318123400018816 1.3462581544943848 0.3513546167261562 1.408484507424458
Ni 6.769380229420786 1.444308857936283 6.394928118973188 1.1600930592261052 2.302182739896254 -0.7679365779922387
Ni 4.233059934338985 5.371369088281333 10.132350427609211 -0.5182523791243913 0.5823296692202745 0.2531616158934866
Ni 8.448803904168653 1.952084524994964 2.14783456989091 0.6542776203134861 0.6548417203470722 0.4726433230360247
Ni 5.646794121174671 9.115759011208011 5.480910367013032 -0.728971509582951 -1.6031879791810517 -0.5477455034875017
Ni 4.971761978741896 7.223193429158493 8.4680754107738 -0.8017671533884386 0.03610034526698299 -0.8209645522524958
Ni 1.3243058506468708 0.8066465908585208 12.983498944953714 0.8886264743758439 0.35982331631879966 0.5202485836188138
Ni 8.263669257645327 4.676744044447593 8.945683069534754 0.5617166209556133 -1.9318798642023698 -0.3688170351769777
Ni 8.37084458343406 7.9483931440928295 4.645268905712069 -0.7281703538378943 0.34343741876160855 1.6439836730411752
Ni 4.283714752595139 1.8785572666050199 5.363559101041875 -0.35234654832578033 -0.9997302697329103 1.4023629679077525
Ni 1.6698380515373497 0.9420615561700789 8.390220098267593 -0.2054769082230139 0.2309575689926216 0.48045819109475324
Ni 8.559183807804889 8.944735751346501 2.5639480663781895 -1.546241386592679 0.01833196553996843 -0.6562645688365278
Ni 5.6016301877683325 8.751898873856371 10.348333352464557 0.7636124966955881 -0.8790118341042152 -0.35318832750078527
Ni 7.138478258634282 6.819172997495741 0.04653478059665864 -1.1749056987589055 -0.2731761113422005 0.0345697675550695
Ni 9.396065871757925 5.859045867963127 12.474088193583954 0.2740947665017279 -0.43745494806034985 -0.5125895244116592
Ni 3.6683608449891207 4.877217562129874 3.253300548940612 -1.164279586503627 0.8622628967806505 -0.5918630626320065
Ni 8.73854646615844 1.0984205928405262 4.682708119886003 0.10178868860372793 -1.1470308267255085 0.7327592587601574
Ni 5.897847496227783 2.20281931628546 2.047186463191567 -0.29682511821970814 -0.6980110566456946 -0.3576059969525067
Ni 1.6731363304915055 5.503300246447563 6.592767698547477 0.28978029555778484 -1.450244879190696 -0.5513851571226182
Ni 5.7022651763127445 4.5701777758521 1.9857747578917457 0.07027467715584672 2.2876074131852406 0.19348965395415063
Ni 0.9473181882532646 2.8886739365365575 3.6190150311928977 -1.6810916336370658 0.9658935236891237 0.42993087176916284
Ni 2.703117635033299 6.766559826110557 8.56471873217483 -1.122138948579835 0.27338102826415495 0.7974844668526846
Ni 0.90633145018148 3.554766993394716 1.2114794111159473 0.19789703899322691 0.662043380301834 1.5368656018047337
Ni 7.699513634714047 3.1019001748341966 4.4287912390136 -1.205498483944098 0.3968055499701037 -0.6313960877296223
Ni 9.070941771896285 6.49115353343855 9.869724965884558 2.120700137705309 -0.28208164136194647 1.8022875231228124
Ni 7.26267907550171 5.770217218856886 7.058484686874272 -1.205466345154582 1.011226186187652 1.4001189090685822
P 5.471310688636518 6.693416742257886 6.230084447095388 0.6733955720898596 -0.1757526416857038 -0.5820941561707007
Ni 5.812073503198403 8.412541575894268 12.759835340386092 0.9500179901094479 1.3644268549836114 -0.15507274473884905
P 8.362327152839379 8.794167443067156 6.785684221978262 -0.02283165318253487 0.5606974356624795 -0.11509594723559533
Ni 3.3023081017418208 9.278039957818873 4.315211442585193 1.5871538085363246 0.1089237569866124 0.3437513504576015
P 1.6135143163287404 5.023588060831202 4.23562828167232 0.634266724409198 -1.8806524334859611 0.688226466455105
P 5.942458593104873 0.6584985821640016 3.542750763477644 -0.05458657699662857 0.005530442899925959 0.3406174328143102
P 1.805610955076319 0.9209160274318876 10.646628951469552 -0.01639978151426208 0.15558336582668045 0.4807494970829268
Ni 9.035710155795076 6.339020416678114 1.142521018686362 0.7342633541095096 0.014587153785555524 0.1903948170789108
Ni 6.296227121270076 5.328397760770655 4.363992238708304 -1.5508243779776711 0.9802649619194473 -0.2794812276246219
Ni 1.2247390547182933 7.728504757112223 5.865727693878491 -1.00848281911456 2.347045147626584 0.5870687265671567
Ni 3.0304905614545907 2.5199413416390057 2.9163729206740006 1.877131564816896 -0.3492486261267469 0.9701178461831163
Ni 3.931080007820427 5.244169836001035 12.890983157300711 0.9256534452221543 0.033107838297562336 0.9828054689531137
Ni 4.082173042297024 0.6990233737799911 11.576226386432761 -0.429287581758209 -1.0632840832251558 -0.9459723592851643
Ni 2.9500106809510567 8.278895687476302 10.534832287100736 -0.12119254705163644 -1.6840504591550738 0.9587399433634778
Ni 7.860014260298519 4.640275573738576 2.2826713993744243 1.8819945493361523 -1.048468101258246 0.2271975877295571
Ni 9.35387226343246 2.2499790832634883 9.818462027446232 -0.6202590972761963 -0.5808307160772449 2.010494942903112
Ni 6.332049054343194 9.190513754095097 7.899666694611577 -0.626174948539999 -0.7561069323471623 0.4628299364900287
Ni 0.9570724734557537 8.424863271419026 1.1808213460304293 1.0281838970879131 0.1037560967427439 -0.5575493769518011
Ni 3.783631946392599 0.2377187705654451 9.0648174675655 1.1159294773350135 1.2974524458455914 -1.8363672384153407
Ni 8.923905995337726 0.5215750290353437 11.454938736971148 -0.24050896012648257 -0.030820070704650145 0.21593512744186036
Ni 1.7940576086261086 1.6696506493240453 5.535807971378395 0.01758120341687295 -0.1434942958726303 -0.4119094954910777
Ni 1.2454282590670889 0.054994116505215 3.5121273678015874 -0.40675597631459626 -0.1226526765369307 -0.06435651189919885
Ni 8.079256109643227 3.8315600624451753 11.537469734699298 -0.44437018712294435 -0.0002758793692059765 -1.578776640216223
Ni 5.629000281021427 4.013433910457004 6.3831470788338125 1.4560694562922731 -0.6608509026556296 0.5570377274227052
Ni 1.9047748362462922 5.699828947539789 1.6954062725095227 0.5407641870736623 0.25682518078800287 -0.005477735285119598
Ni 1.231419943622592 3.205486748238151 8.271647906876758 0.570845836950391 1.2132300482604008 -2.03124631651785
Ni 8.868753523962269 1.7492965899783752 7.644598227138419 -0.4528494282385491 0.2207927126444778 -2.2387389696193125
Ni 3.3661091852612715 1.0798490335020696 1.011308548008153 0.031831285577983884 -0.5091655863317747 -0.2425599291182403
Ni 2.371743671357961 6.009089450045219 11.386971702249943 -0.9350680536678349 0.019102525157405813 -0.786402240896594
Ni 2.3649971916790062 7.073805754822966 4.175437501792177 0.8623613700317276 -0.6367352405543485 -1.3371057985711552
Ni 7.375701350345537 1.259848859380855 0.2013149536200172 -0.8344433034652209 -1.8245545620511283 -0.22663348769597097
Ni 2.999438014710067 0.22990972033705467 6.6893426181406515 1.4375310311684533 -1.3117269534867344 0.48135627742899034
P 5.188436417764335 3.269325312200263 10.615100403103236 1.5966311518991405 -0.1718767036700653 0.22631955599997797
Ni 5.399179576735691 8.826578655858135 1.7517159525521337 1.3340353871759478 1.137605933867183 -0.45173639768002843
P 7.87616833108535 4.679836180967115 13.53351694491332 -0.02855929969493146 0.267212694669914 1.03054108446618
Ni 5.96758922990898 4.539312631320881 8.963634327547172 0.5844706268226773 -0.03708456355712323 -0.7449609430326718
P 1.383065814628436 1.5436132907662345 1.9383376356380269 -0.8324216450495019 -1.1877277902242382 -1.0938190185892194
P 8.671044188926228 8.586731933160621 13.448901097562159 -0.05236334409306466 0.3245724635363056 -0.3313072111569778
P 1.717129000064691 5.001230976783998 9.116066350837828 0.2863566145882165 0.696950219481348 0.9666417147090578
Ni 5.026305392924114 2.085580491642286 7.8190003489058055 -2.130951126009356 0.040842745047974825 -0.3509188147403182
