# total energy = -340865.55312784715 ev
CRYSTAL
PRIMVEC
9.26150860388674 0.00000000000000 0.00000000000000

0.00000000000000 9.26150860388674 0.00000000000000

0.00000000000000 0.00000000000000 13.55515400942458

PRIMCOORD
 96 1
Ni 4.4680296349524555 3.542665994680758 9.331720182441037 0.0966660226651819 -0.4355387048742435 -0.3489418935196055
Ni 5.9589843491144805 4.8504743745949455 10.712408300349137 -0.3601624448257733 0.1483480244205058 0.5990364404519941
Ni 6.978676455343914 3.0502593624200838 12.516707637854129 0.1902428648820788 -0.032404641582950644 0.5013856852760397
Ni 7.195423543101292 8.607562818353122 9.138884457806848 1.0721788146116245 -0.39838446442144937 0.21307683205745886
Ni 8.696084318365303 1.4364414740415312 9.512505758125045 0.032576648384440667 1.016722433415533 -2.8668723274372625
Ni 4.757979687356858 8.968585688406979 5.5537905656887805 1.8077351765009448 1.2738250362346384 -2.461281060854729
Ni 2.1867996461995913 7.385830900158249 10.469160331640218 -0.7368658247293632 -2.4872373757091744 0.44080869502393116
Ni 2.473184017760232 4.323003670452485 10.638817278488208 -0.8389802721036261 -0.6771889776940209 -0.23038678409081614
Ni 7.091009294185483 0.833178287423692 0.3926286945926256 1.2366576831557219 -0.4013430328291411 -0.4426048676924055
Ni 8.328995160122707 1.71148975897161 6.778675101440063 -1.0886873537896087 -1.0664820213371633 -0.04806985892403334
Ni 8.438586592393486 8.158027709795773 13.137601032404923 2.48017404110449 1.7632548347003825 0.4046692689888966
Ni 0.07969065148093692 5.417639904961741 7.002416480556428 -0.14368635727877835 -0.6155377805411271 0.11493319640548592
Ni 2.1949312508251086 0.2415651525808395 9.889257448378803 0.2979880281795578 2.0806886303093783 -0.25879850246428976
Ni 0.23031149337757534 3.086981244356503 3.0658779706666355 -2.3452533458334837 1.056941943057212 -1.754746025898423
Ni 1.2105625387206442 5.3928190616856755 12.813158343204604 -1.1319140256887281 0.678448818243051 -0.5391914432699036
Ni 2.3820878183335954 3.6640010199642448 3.439457594195749 2.9732897730622536 2.9392717642455963 -1.2207556672134847
Ni 5.669784478913569 4.6848322917619445 0.11018324267575785 0.866418827930553 0.12919973362682913 -0.3038480865047606
Ni 0.13557089028335204 1.3436504185255214 12.32716530570836 -2.0810149033005447 -0.644369874281471 0.28212226479189473
Ni 7.928703493244029 7.265070088413239 6.980077721607969 -0.9875887492743701 0.3899509889421155 0.03883471347901054
Ni 6.895267308125908 3.5537520205768223 8.076228212787239 0.0006448326728505024 2.2663785857134515 -1.1453331273081115
Ni 7.64337493367349 3.8142226908365546 4.971894605758335 0.4662965548823905 0.6805748634471183 0.7727689663838756
Ni 0.47647313271882963 0.18492639621711474 5.3434413281310675 -2.657008345890147 -1.831005716993111 0.8521283794498099
Ni 1.914168615036323 5.479942073886405 8.686143014942717 -1.317608609078492 0.06451489185393404 -0.7826707988786198
Ni 4.345666582204923 3.8866291657366614 1.653715541643092 -0.9326190779067098 -2.9106085919829487 1.0603964772647156
P 6.8235739693945545 4.488738368372337 3.1337074079745655 1.011533947236058 -1.2313802368068665 -2.1112197090186995
P 1.2533692318631733 2.3019387221727454 10.014290594080249 1.4005076598665687 1.3206612798618869 -0.4494969668265484
P 0.5146601853292311 5.693781047916661 10.470448607498314 0.35563344660716817 -0.14153177282962076 0.7628198255909636
P 3.219772755883456 8.294903546652856 6.675953856311889 0.4664968438186547 -0.8974016494653126 0.33685436622745213
P 9.091309939993229 9.109064252142565 7.850657685705565 -0.6176944218728136 0.8463017454657037 -0.6308702971331392
P 8.586455840059783 2.694432198738569 0.46787011730124084 -0.23972168833849683 -0.6386401708865453 0.17239915183243856
P 4.4424863939989505 6.592879049557417 10.499049998619636 0.10141125065965113 0.572803217787078 -0.5246845079029804
P 0.2767811132050611 1.0942102051097418 3.5500131495206477 -0.1653371027793346 0.45073366744712695 -0.24018834356227023
Ni 1.4143712988449393 2.5393667588239515 4.964182547476252 -2.4207224227060764 -3.3029417080039956 2.17605496032653
Ni 3.994507218900698 6.015951889036526 1.6522781554951647 -0.3577877739460096 1.2175713559482322 -0.3709459085945224
Ni 7.710585702201255 6.280821775921681 11.117571520796178 1.2349856947699376 0.21366715734329006 0.5574077091676143
Ni 3.631983984439856 6.88751542535648 8.317293243899083 1.756561996061239 0.24850843339219142 0.48034506255565657
Ni 6.594147876247276 8.200343542977992 11.938674653196237 -1.9246437514652466 0.9484123361852247 -1.1578981084573157
Ni 7.130981965670371 9.066313128052146 5.732650673717155 -0.23752262380464903 -0.21855868110763652 -0.07794273522406577
Ni 4.079814975399147 1.1617451264414858 8.359829500988008 -0.8829458790512986 0.1463551623601931 -0.34141293213241203
Ni 5.146592591783625 4.123946064283646 6.09205185360025 1.2314416861724211 -0.96012782484994 0.4323721342208038
Ni 4.58694740646913 3.4523385004749847 12.0693600976482 -1.857709965757175 -0.7680972719398191 -0.394022845018644
Ni 8.918934740346161 3.941707357886947 11.5419699686313 0.5212533707342443 -0.21568264511142213 0.24937309538533184
Ni 3.815065488126899 2.070447312588689 5.849428110576703 0.23639082419305096 -1.197198448718835 1.3155059609131925
Ni 6.331685981620247 1.6005183619067502 8.79973541896546 -0.6525680938215471 -2.038346160787425 0.5301195628756226
Ni 2.1571628184072735 2.214000697207728 11.923493188159622 1.5301784195925454 0.9764144778251056 1.0931970687345043
Ni 8.456350166051505 8.563867020376824 3.245524380782375 -0.33445784097081754 -0.6532669196607847 -0.166251644173804
Ni 5.386095206380293 6.6330832587594335 5.7185268729723795 -0.37088291656707095 -0.04368638514435702 1.5429454894502266
Ni 2.615079592324638 4.008631019645475 6.002615316529983 0.5945195264182471 1.0500850680363787 -0.3713534284455862
Ni 7.491513975763917 1.625867111177867 4.326995380695763 0.18761545456156076 -0.6380328763198495 -1.0191377277252447
Ni 7.3021439076796915 6.765383910326077 4.388413075540999 -0.3543450668130478 -1.1029245804349135 0.21347329616492913
Ni 5.086031586491761 4.978607347253294 3.961493645041793 -2.2994038915995367 0.9757655313871969 -0.37922177545006946
Ni 2.2129634082349967 6.201478431016436 5.945859865156826 0.990241870626501 2.8528071075934482 0.6370484009193931
Ni 2.9303413479654186 0.6203339994262141 0.11090656650406411 2.579155856387042 1.2125772451677506 0.5708088130648685
Ni 1.2568330361114004 5.097126873896509 1.9255093324212271 2.968156822711062 0.5341405111095575 -1.5420039514725636
Ni 5.119141480040991 9.069841762861168 10.098237834952858 -0.35210949261430974 -0.9006862337538553 -0.5890271358451081
Ni 2.627712290171113 9.271974189913463 4.730030306446967 0.012337181409114236 -0.9236718960157512 -1.352728592710077
P 2.6875323747681703 4.119574632184278 0.05937182757669757 0.49342297878553726 -1.352920911226541 0.8600440347524608
P 3.849759099661281 4.883176761762031 7.549895748062178 -0.4308155883669612 -0.24493639977021692 1.486639615769646
P 7.904206802771941 0.3763562238329062 10.928477445670767 -2.0983760202868122 -2.5373733731336174 3.6565486110994385
P 3.183087919981778 1.7731065762535758 3.7197108470068536 0.8714597327885703 -0.7238066775525599 -0.8400431661505016
P 7.046202115166972 3.0426093562461918 10.293621400626318 0.46122428256580567 0.5919625643243484 -0.08620626078443863
P 6.304772037381348 6.569410386549375 13.285230406996273 0.7947233591677797 1.4045476342638974 0.1437228669436686
P 6.290194422711002 8.434659712711005 3.2598658269812515 -0.5341909047315186 0.36482925417382334 0.4475300729081647
P 5.008410882201943 1.4027110594103995 0.607456797750452 -0.1983438967226584 0.6376760072010631 0.08672948027776031
Ni 0.6916652131679804 5.129968183693872 4.597379569852026 -0.754418746011462 -2.375352993432341 -0.6077252264752437
Ni 3.8447856694973828 8.186256788267956 11.905180407036575 0.6480416667061033 0.49899893021141806 -0.044154840140343314
Ni 4.577685897784031 0.3912190929707535 2.5298255525765616 0.7420743655134963 0.9978975873995458 0.8264263466980154
Ni 4.194148300116698 7.475065536339181 3.5121270959425117 0.7431449728698557 0.7215093968779509 0.5436913880227862
Ni 6.411409048381581 6.634750330322751 1.9658089351626997 -0.4294549605740087 -0.2880823390300716 -0.11833810832197685
Ni 2.363537016437341 3.097483795205405 8.087628203827727 -0.5466193603028585 -0.837722488437125 1.303916199193064
Ni 5.199503590901597 2.467043637502011 4.024593229864243 0.4440793953554029 0.7211471284425257 -0.09658169048149172
Ni 1.9238283685948816 0.6238005821270467 6.965926136337137 0.29778645369171297 3.0250437657060933 1.33859112486743
Ni 2.275385976772566 2.4145123602401277 1.3962891292881516 -0.39165485900709973 0.4588472976931968 0.1796748595582454
Ni 3.4226646266479266 5.610927591219763 12.32492865136091 2.4830063683469623 1.2271777686897445 -0.2794987111261186
Ni 2.3711036690330674 8.992878625687995 2.148396800436827 0.01780360384032418 -0.8609619185810399 1.5964252065359215
Ni 0.3771073321872678 0.673220918621605 1.5256057227564561 -0.9664653370321936 0.5947486117099177 -2.0978306893063032
Ni 8.513475151621199 5.486100977161995 2.4376772457632976 -1.3622198200299636 0.6005207383070045 1.626030173886548
Ni 6.043282601166254 6.4593188328096 8.872526246475998 0.3823893745447737 -0.2333373820787078 0.0702708205011048
Ni 8.494229736573562 6.073419550427567 0.2566327010606275 -0.6543030742347827 -1.2499736835383377 0.02616405998987752
Ni 1.1929841952363258 7.153005833323538 3.617220213444939 2.1730393134286574 1.6057030322934216 -2.8901662649681965
Ni 5.551690981669869 1.2603061018683126 12.058922377360092 1.5726936672469365 -1.5882015330745485 0.8552931503310367
Ni 9.145360104679469 7.310581142091817 9.14531009253257 -1.3920991240878993 -1.8611259334172592 1.8092282161067035
Ni 4.910433381822278 8.349324171686499 0.5265213995022376 1.3860392910470647 -0.4398262765060038 0.007071562134800724
Ni 1.5677604056875543 7.889295773788931 7.95652321303233 1.083778860744398 -0.7947583261707732 -0.559542753232746
Ni 2.7606982933804542 7.4579780528151725 0.23675009421545637 -1.7958710780735072 -0.8200919198395553 0.44959518296730955
Ni 5.468096604278163 8.396224451667843 7.595576287349693 -0.08672330963017322 0.463314332325615 0.5648757354098852
Ni 6.381346191189749 2.382865785063143 2.0181864713804103 0.7266045520126712 1.2745631999522435 -0.13300213809205483
Ni -0.1496298604673328 3.8885740825605324 9.111679702195236 0.6191247265614369 -0.0031051212878849747 -0.42810950228970784
P 1.6282658419273077 8.968252274094315 12.501146450961425 -1.8052646034732653 -1.6638801548547861 -2.6322429660200086
P 0.765367373133132 7.596437607657406 1.3949471366796806 -0.9037021377620436 -0.49678521038955087 -0.26887825529779497
P 9.308927609567007 7.093732177738902 5.214654492959552 -1.6403980125724458 0.6015383809382414 2.8531266957163957
P 7.058760720943967 5.212553056638902 6.573626225302833 -0.32254103492857356 1.085186282614886 0.65051841038137
P 3.934455596586514 1.4378399618529811 10.898574812579188 -1.3399193567605503 0.6824965059498633 -2.4100513161454753
P 6.027584343945011 1.6886138325194147 6.551056854788114 -0.6757460745999072 -0.14223291266170343 -0.3150177299683349
P 2.9106884265356374 5.819663473964532 3.6586849139789974 -0.4605367695804778 -1.2541419559834144 0.057974005411622745
P 0.3657045626941735 3.2693588733834784 6.897879053575107 1.8391779683912581 1.5282606337445421 0.13832252186370372
