# total energy = -340855.67574925197 ev
CRYSTAL
PRIMVEC
9.42449855616464 0.00000000000000 0.00000000000000
0.00000000000000 9.42449855616464 0.00000000000000
0.00000000000000 0.00000000000000 13.79370627985656
PRIMCOORD
 96 1
Ni 9.529770087913986 -0.06815985762019398 6.698968362034661 -1.2953528830040852 -0.8991839381767159 1.1741585361802358
Ni 2.75397038724418 8.404117418698764 3.9853056121699506 1.0182229292204592 0.8231708158751954 2.0747694366114655
Ni 1.0623200396961705 5.979325912978619 8.175349970907593 4.457404051306884 -3.013632952765991 -0.4587261987343003
Ni 5.854734043597385 1.9924332152713153 6.241375977011834 -0.2353490131920979 -0.7063900247380093 0.5229009336399962
Ni 1.6272715987020787 0.6353893178991311 10.63311308442125 -0.8243483811230642 0.8346302226650465 1.9086026388419841
Ni 7.931676736383188 5.607991249930962 6.721190386907127 0.7261134713088656 1.5282171821011163 0.9309692010081129
Ni 3.8651847248488114 0.2861824347395379 2.372241444866678 2.953054162741669 1.993026353804703 0.6426526344800481
Ni 0.6995805192260998 5.921421794561198 5.359972379175718 1.433425236530196 -0.5709615365926489 0.24799369853930195
Ni 1.1031563914381441 6.4357920704378255 1.4479940771207975 0.547457797043754 0.20059078377530615 0.9237852816651639
Ni 3.290139528013304 5.223792146512248 1.6827903765642505 2.498289262647962 1.6435596981298792 -1.8944667136612339
Ni 6.38729360146386 0.4413238158151198 11.162211966460434 0.1872706696276323 0.4551914461081644 0.36390699946987004
Ni 8.610089832112294 5.663887950180592 9.530803012943048 0.5399715159690378 0.26286238812101825 1.94730082674313
Ni 5.540059465173025 4.980658935748473 6.63780713695626 -0.07497953883068377 -0.14098772740069268 -0.40357475037313717
Ni 0.5111442700605009 0.08345110633963823 2.09162229155647 -2.754548800740482 -1.0817829133602919 0.7107344177496341
Ni 5.907351018389777 7.999184418711311 1.149400520385182 1.420171456844083 -1.6002569215771858 2.2282180154833298
Ni 4.818274827621494 9.046331015918541 6.046871293300502 -0.6592143954934712 0.546898324995858 -0.30590008393778284
Ni 8.526117551008905 8.252759973746976 11.450058767624535 0.5189170092915837 -0.5789445547981256 0.3717550347593791
Ni 7.560643657285621 7.769320901751529 9.381058099674402 3.1030872881740814 1.4605971689592976 -1.4751868938480142
Ni 8.289760554623733 7.439821587280521 2.035826433440152 -0.32199956060280677 1.3072329222711228 2.210472004353819
Ni 7.808423145780481 1.9079520112521486 4.407323342930043 -1.6752462305998828 -0.35660686626403104 -1.8008942423197116
Ni 3.792889397312998 6.9032660420753444 11.380373083706852 2.4936422507942537 1.6961901798414014 0.8376638672850477
Ni 4.156354604162975 4.476844098125022 10.935222921524955 0.08650605141304457 -0.3367957450753748 0.5142489143919531
Ni 8.958711453918742 7.210900520164773 13.680114689421561 0.023567760017611024 -0.15617677643630523 -1.6427657414736743
Ni 3.266267273463934 9.565111957065247 12.204050686146068 0.0960453583620475 -0.7317537003137784 0.20559877851285882
P 2.5007718121461284 6.3282019962429565 3.2998957687987396 -1.245074189354191 0.5059031135304191 0.993940659634327
P 2.6890167439933887 6.02404515807801 9.989925936512586 -2.096132218557958 -0.1753448647243238 -1.5634055570767915
P 8.77262473221432 0.9060891866008859 11.3814078936356 -0.4193772646230326 1.1659538888822565 -0.07334123189631239
P 9.399382151991947 3.6133715510214888 3.695526788825581 -1.6170817064440084 -0.27049393652434706 1.737166622253763
P 7.743205616573359 9.185992658305873 1.1437354543726963 0.03629060690091814 2.6743450373963813 -1.4297902108807699
P 5.1601108105509015 2.4431127306881564 11.859897219050183 -0.039166385786816416 -0.5158342566012019 -0.26092943276436353
P 7.397599834267819 4.420909699881631 8.45042469178535 -3.130964474200324 -0.46837889133271593 0.637527911658973
P 1.2400283822871356 8.294397407856378 12.552782574584269 -0.4493074765235617 0.7455803217842256 -0.29239793568629
Ni 8.555371194167707 5.330882722289779 1.9337807916777319 1.0762311303041272 -2.150204317812013 -1.0607566888176119
Ni 3.335942590433334 6.6559860519978225 5.92355550100809 1.2236260467827442 -0.9474880245987425 -2.6492438714533795
Ni 9.136023967575213 2.4666080052999124 1.8039130880695975 -0.26465804656886033 0.5390312635429556 -0.06700577659658782
Ni 8.987974521575984 3.1664995329745436 10.010271543745581 0.5871710564729758 -0.15437417600992767 1.773964507808403
Ni 3.3759213128172374 1.7696097986464647 4.328133994785125 0.019801093886327188 -1.9942311727460815 1.0095094606068615
Ni 3.325179813214471 1.4331175063327282 0.41430095143714596 -1.4456983974705941 -0.22273903773757123 0.6852676409370972
Ni 8.089131831825872 6.738676601313326 4.68180432040606 -1.2068058899016119 0.07150520712883814 -1.386140335401303
Ni 6.128072771862433 5.860859967583602 11.502350597220737 0.9898268945762696 -0.03999170990158919 -0.5270051856163569
Ni 4.495730792999454 7.466360974888506 2.891850799426288 -0.6190195684421402 -0.9969884453217152 0.27544459566140306
Ni 1.7637194871212551 2.6891581114699936 12.77520639247525 0.1242264487819538 -1.6170297701601508 -1.608632547235391
Ni 6.0225937853181994 9.395310768665722 8.250443432030341 -0.8453033861081765 0.23080664523705408 0.20741834822010083
Ni 6.634743232513307 3.7554835630033065 10.835480627181354 0.668795611424003 -0.48594749634409856 0.4213112484209518
Ni 6.250911684533765 7.745090516261427 12.664098153012603 1.3019680743277577 0.10510746856431577 -1.557042076752609
Ni 4.778852150645571 3.077862125143189 0.2356595835005877 0.5146209530193911 1.0733491807706417 -0.8320876587488508
Ni 5.2780207105379375 5.804906720343331 13.8028103497166 -0.8430187038390577 0.053054456622818304 -0.5168894373385937
Ni 0.9351241813958713 7.795087480487406 9.675223084592904 -0.08194157197081373 -0.8541348683568775 1.1307295184623236
Ni 2.5055688818522595 6.683251125985713 13.284566604980995 -0.20529641678109162 -0.993492773463631 1.076784431704436
Ni 5.466388160864922 3.4614957586554826 8.751886123396362 0.9001671280255917 -0.6126298628657126 0.08947644689527817
Ni 3.347383931539902 2.5128917171403997 9.811173359494433 2.979636798326204 -2.373142616044584 -0.9220011931815476
Ni 2.262718406041696 3.720923927222597 4.514224486288924 0.34253393311073266 0.8201297150560262 3.2484332925434702
Ni 0.24143208879529318 2.1293711776093893 5.459949343530485 1.623491209514778 0.25380310613222745 0.5983610116515243
Ni 3.6657717623497534 3.0043416128101317 7.3215479016536875 -0.09684420011425901 0.5644198788193893 -1.6412629316759026
Ni 8.903191733606727 0.5014445762657076 9.221588988915018 0.265063252427079 0.02063721663437736 -0.2102668734124895
Ni 3.812944729994032 3.1738317927611246 2.5457530583021617 0.03330684168224586 -1.4126594647377542 -0.4323551649399393
P 1.5204260598839956 0.19679389438248837 5.251815892624585 0.9067470952359545 0.7687202502357987 -0.9849610818435359
P 6.405991806369485 6.624178369761691 2.871587185329723 1.4490909680919108 -1.2915875024243821 0.566918733981843
P 1.957468326057671 1.3691251619228506 2.4859706373455817 2.5466455424641627 2.1554398551793397 -0.3373621591018061
P 2.8207618076908374 4.322640454644254 13.557875174851034 0.4462758887860895 0.7163653907831663 0.2451989094029842
P 7.474305827073708 3.935048531787018 0.6758128766094178 -0.07940029360619873 0.020261321352197364 -0.019780782171353033
P 4.110608088733587 1.160250002989696 8.016722467858932 1.2105607289583538 -2.366020660287822 0.20240058329053529
P 1.6358667412796646 0.08384599282428827 8.688420608449297 0.4575584036784442 -0.26543760504736225 -1.536160091097277
P 5.4144120519664725 0.30226157152859423 4.089820472523739 -0.29770777793497766 0.10056510060927197 0.020160791218591084
Ni 9.699599549808832 0.8078651789560218 13.81149973727859 -0.20119345035631153 -0.681894096479174 -2.1431875201745476
Ni 8.723664462816776 2.6863684599316544 12.579336098939912 -0.6940119627886305 0.8530694032068404 -0.1344273005743556
Ni 7.550879876901434 3.66875932835534 5.729009349503621 -0.27714049530658724 0.045344746683386415 0.0702178557759823
Ni 3.6229845394306306 8.553024494056062 9.485558823280531 0.5780171578878497 0.5982121447784858 0.7986954564416503
Ni 6.243513453258101 1.650748024316954 2.6784207803969196 -0.6514617481312458 0.2527037024204616 -0.2959080057220775
Ni 8.139713114955152 9.017435503700472 4.156278265725608 -0.5688329202854204 0.36796291470679854 0.14813102331369327
Ni 1.7463124385019555 1.6120416092224965 7.251503144345427 0.6134888684318983 -0.2873151218467439 -0.479906175246025
Ni 8.84992446842195 3.255155789802779 7.790506231795559 0.30387688286016695 -2.3779423514260727 -2.7679043961117813
Ni 3.974047106333126 5.0436240098283545 8.478467286894569 -2.473868924822068 1.6919077504159636 0.19441499398189743
Ni 6.008315670181091 6.2176055070456195 9.010476454052128 -1.0057494793437969 -1.6801665507196355 -1.23720172858465
Ni 6.972724595580616 1.8414433257587015 9.333139237354517 0.5496743450790985 0.4912552817102572 -0.5583181367970256
Ni 1.0543846120094083 5.70962504111154 11.65511606223951 -0.25492950642718676 0.06770948753183179 -0.9957604864518851
Ni 0.5968063637342419 4.401250196135091 -0.017498466254170814 -0.9806544840483821 1.2914301509109112 0.6299408433403344
Ni 2.827368381097513 8.13796015824525 7.310250755373257 -1.270156843354432 2.390720219917031 1.1542535697261929
Ni 7.341524068547822 8.078887402021227 6.745770421289366 0.48248370616521413 0.012409429407946369 -0.6435352941953175
Ni 2.473478464662917 8.37366686423804 1.3909570125598876 -0.48908192820802215 -1.20307496210427 -1.5643429812893963
Ni 5.407032669687689 3.468809169445183 4.426620945936475 -0.613364427038892 -0.46072008923587754 -0.002850067854285414
Ni 7.187084812606046 4.549883961037621 3.451129752820958 1.850022624415246 -0.7844260910068297 3.0963430274717125
Ni 0.6554559599782933 7.844764011766414 3.594447158153295 -0.28814430261625856 -1.9206099477155054 0.8686813987124847
Ni 1.4905692488250128 3.677128282970358 8.441499691762354 1.7199556576921153 0.28679678744942866 0.05965936353384564
Ni 6.933754294529829 1.920524292171556 0.4310435729164019 0.9180180401640836 -1.0498266721686693 -0.22192194115291455
Ni 5.385535388745284 0.17608921375891545 13.55910318699781 -0.3181444485227747 4.550692158638769 -0.6774831118956719
Ni 5.64136339890819 4.596111125887467 2.006611430724956 -0.73103302009767 0.026108267051277615 -1.0174017188707447
Ni 1.6053030928376568 4.176381663348687 2.5484833355003267 -2.2144561858125478 -0.15894611165132627 -2.3512879820633374
P 7.822672987422268 1.2552866452620388 6.9759600258951835 -0.5483340290011202 0.5387039621105238 0.4616284599827598
P 8.3344044037356 5.331994813105739 12.054981509415594 -0.5003593008940543 -0.3380054491127598 -0.04575380919634701
P 5.797442517578585 7.912281118592977 10.296849807419616 -2.9360193187465695 0.7221994809664402 2.063113854650408
P 1.756999819733296 3.3114577434853425 10.553606130678894 -3.008433410842922 1.1006044169421692 2.2327958646619996
P 4.230572529380616 7.894346298061019 -0.15335732352082637 -1.3772602593028538 -0.730793136172722 0.035681255451693386
P 9.225801739717848 7.3007819617902525 7.667134834962348 -3.0562806122331883 2.7503437615201993 -1.362018759762751
P 2.836491295587758 4.7745451548583375 6.56376262250992 -1.5497727967847053 -0.3886528389559823 -0.48598040646456303
P 5.311996027415347 7.199421481064444 7.00630596842322 0.010201623123350174 -0.9313209279205766 0.326218998000793
