# total energy = -340857.2822675859 ev
CRYSTAL
PRIMVEC
9.41319050648969 0.00000000000000 0.00000000000000

0.00000000000000 9.41319050648969 0.00000000000000

0.00000000000000 0.00000000000000 13.77715580612836

PRIMCOORD
 96 1
Ni 6.664557666800559 7.052757641064551 10.682916886336411 -0.12250663787736965 1.022657310842729 -1.3544463467321317
Ni 6.796436465041067 1.2561149603718638 4.320612058372654 0.40780678617661376 0.15197713653266084 1.1060194173101534
Ni 0.39337534637481536 7.615882933508654 3.940403882802894 -0.24524930302494538 2.037625223461 0.20636702413745103
Ni 6.264807707851263 2.365054688017793 12.078542859767728 1.1300497187864795 0.6571911944158553 0.7090074077561983
Ni 8.728013732718006 0.40259839038024353 3.017802966760817 0.5262089149673067 0.5174437671801668 -0.7929978918362407
Ni 3.66315247780812 0.5705494757540451 8.101394588033227 0.6884208418540982 0.8493724139712275 -0.16279402464250672
Ni 7.235345296273054 4.346154750665703 4.2350009738446195 -0.2350111702367049 -0.005276675017907042 -0.30834083216879155
Ni 4.384475848998116 3.336467703151673 3.777874795129773 -0.43271383383093864 0.5061432545656831 0.1691071113447281
Ni 3.667906138986668 4.053564551828466 12.643557379535661 0.1445618179051962 0.17966457514560027 -0.23026645646286795
Ni 6.440382536172601 9.163289072435301 0.9946814806135881 -0.7487242667298459 1.032896472072234 -0.15378205095188355
Ni 8.583605977985126 9.237013180059831 8.766390368874088 0.8507397266323994 0.8868081902201823 -0.37654499994885476
Ni 8.478714796772138 3.5961305617858206 12.337925205326387 0.9021707887191818 -0.9209059032348398 0.43424184043969083
Ni 4.786249643894714 5.592508232538252 9.467689060014333 0.36022980772859897 0.045610084529631126 1.2249398804981613
Ni 6.772592853624706 4.2320574691901 7.216240284930517 -0.4329575744106285 0.25981048866857187 -0.3313884580168744
Ni 2.961963920996171 2.2256265110343247 1.9493851413751107 -1.003002255615963 -0.29873621919949195 0.09414299913301206
Ni 8.758107702594872 1.65927249426499 10.729565834262214 2.3984085897002245 -1.1351258477578063 2.1245966445462376
Ni 5.654117564050324 7.810783041829119 4.980152895346252 -2.665866310501409 -1.0369685852590786 1.857600179652188
Ni 2.32127393922289 4.909091779300755 3.645793613294535 0.9417079275818555 0.6607251757110428 -0.5005629322644283
Ni 3.90542917367637 4.419587049386203 1.445981835757339 0.48529854990619004 -0.3867540792713726 0.1455753467713751
Ni 7.376354889252554 7.407230153936985 2.1516473059485306 0.026132435420993704 -1.242194296703235 0.5725592200970719
Ni 4.966286324490571 1.2997639245004313 2.964031057619555 0.2808382558731486 -0.5671251935656942 -1.6779381756097491
Ni 0.5872400037454972 8.540813614187742 11.170297059165819 0.6417445208434819 1.4266778905040334 -0.25285745438950646
Ni 4.67361140693926 6.60965994008117 1.203899051612412 -0.7823722938015945 1.8983701624806981 -0.7827967829335227
Ni 8.285283146162275 4.477224014527289 1.3789966311778046 0.9942725890524488 -2.0894872024376143 0.732210842455855
P 4.8340215854415085 8.927507477979324 6.772009235816647 1.0876542845394042 -1.4211001393059397 -1.3364481103824983
P 4.550317438391497 8.986415223831509 9.965953704964047 3.937205089979084 1.5528545210338225 -4.953955805529391
P 6.357292304047764 3.9234366070121367 10.773735347822809 -0.13332378309753168 0.9909049581317968 -1.2907212977693447
P 0.519522452948753 3.0897479813898103 0.15316578712994963 -0.08813304549350628 -0.6175890066432009 -0.5249164214081282
P 9.176900545829717 6.097911841127194 11.468586944822087 1.732973667218338 -0.23271697488588955 -0.01786299632334988
P 6.587397744660842 6.707453575692922 8.619071114334231 0.5661384041723927 -0.6220987215880963 -0.2219257978076565
P 1.9545548655716622 1.284401597681837 10.859912165097043 -0.08718225154446275 -1.40646876254601 2.2915630553988793
P 6.44495734673255 5.530447067884457 1.3033315236819554 -0.26132024044487895 0.3769306654230476 0.5849087428013604
Ni 6.228105678276692 0.8859553656102219 7.903017247159582 -1.174724435986035 -0.9356164699721371 -0.894469563420182
Ni 7.90051898641347 4.935213382806636 9.283433387457634 -2.3807335410179644 0.3100346749314467 3.657498376607217
Ni 2.2420619415645118 6.853056805613276 10.949366655286864 0.13493046546301926 -0.5939587688187706 -1.9589420105264843
Ni 1.2145274849524088 4.787680448843505 9.449544194097959 -0.3643402303525467 0.10122073191539988 0.23394313398350677
Ni 3.6356565484961627 8.662224944644992 11.51861146284418 -3.548783907417934 -0.2019382989421361 5.620791207903229
Ni 4.757238190919894 1.7922055698361854 10.427529498805823 -0.420437844677063 -0.3271955029814494 -1.6395672891410342
Ni 1.5038889594644145 4.633059382469589 1.3182702569301843 -0.4296470219801568 -0.45418177389672754 -0.06431974512399245
Ni 8.153460827064482 1.473879708301621 0.40477566133192305 0.3309241167859462 0.9257470333772251 0.38869371949624676
Ni 2.437300924741269 7.087624098500871 6.335617491711677 3.0540082712592436 0.3035380114635095 1.6873142175080103
Ni 6.466193504393549 3.786794734402628 0.09184920584095307 -1.2955094631866078 -0.39401924547421824 -0.11345764030122395
Ni 1.8870999427885449 9.245099110658588 5.34980700178059 -0.3882628026064152 -0.7055168781044366 -0.3380267892689985
Ni 2.3863096720596966 2.298729348088984 9.07342793241793 0.15854579088911405 1.092636311135028 0.07461161396830376
Ni 1.3808209074875126 3.3567154758151516 11.227362643646437 -0.15933177712551916 -0.8451077251576027 1.6838198312015065
Ni 5.133370455023691 5.7812709406836404 3.415867023300057 0.2289744771243218 -0.3356230649235123 -0.002945455781569121
Ni 7.255593068936532 5.5021792569553885 12.131735857696157 -0.7028277613080477 -2.1318013898247927 -0.7440769977658217
Ni 9.235121128778864 7.034571357110186 9.360144300412765 -0.060268457872754276 -0.7366470238503378 0.2114747776776616
Ni 6.544699512767984 7.525290388593119 12.96043172710244 0.47131277715005926 1.8042757571974346 1.9483493226123028
Ni 3.7631864527475827 1.7393693318259091 12.62640466389299 -0.6221964235082252 -0.25119677885763186 -0.14132891279019533
Ni 6.8976470887871 0.030365069761900735 10.281918738333106 -2.2606344841408226 1.0185756845741876 -1.1197354813446652
Ni 0.17765043681612983 7.5600250613631035 6.686412271074291 -0.8098496732862569 0.35258334692693466 0.1973799901474923
Ni 7.750529209742218 8.353886478180605 4.727851151646015 0.3095765043481056 -1.0632457737880525 -0.12152601913165521
Ni 5.6721626501479 0.35287697709072285 12.370838425743798 0.03788751907439281 -2.5247775387464775 0.8281376729621672
Ni 1.6029722021681678 2.9421115023317 4.758891147163365 1.2061625998906582 1.3276497953645778 2.6696846558062344
Ni 8.42451364614624 6.327367771599045 0.08793802520791018 0.644290170083471 0.44685053034263694 0.30215912883811186
P 8.723994300394759 6.037215589089022 5.257334642731678 -0.6340314684699403 -0.09632355172409862 -0.07655331107570687
P 2.425892137912754 7.352746607597509 4.329016154808709 1.5173776682834512 -0.6538243348261513 -2.0915188881556626
P 9.385703936448628 7.608823040669227 1.5608001676216086 0.964418996026126 0.2873287486934987 0.6531185670083784
P 3.336599487818009 2.4321519095637134 6.94119250782069 0.2535416249407247 -0.1001758355906533 -0.9029215508422772
P 8.0000634754494 8.608127339114072 11.76945227938618 -0.36345268554127086 0.3114652367303861 1.4587984251876618
P 7.538826556463915 2.3357702525198474 2.5672490776199544 -0.23590437147493565 -0.2196884238367055 -0.8655971033602061
P 1.6560343567493057 1.3181478854543007 3.650423020359109 -0.30243500820731783 -2.7327417321677197 -2.1902623621751633
P 5.996249384239437 8.718882937979012 3.165122221300675 -0.17719220234570773 1.296516050074251 -0.7771362422136359
Ni 2.387571039580341 8.522815594042429 9.24065514344593 -0.6047954544229585 -1.9777534868060325 1.234924245404383
Ni 1.2036270104083326 9.367602371208335 1.364871197584678 0.5159322156316468 0.15105719582155275 2.00998766424939
Ni 5.03264931718119 6.372777002342242 7.097370515895462 -0.8597234181882485 2.093967606806471 2.2632832346175795
Ni 5.41347876332082 2.725749319779376 6.070738784247761 0.0866034962228573 -0.6163232525568998 -0.9052252592747894
Ni 8.719485382167978 3.431823322436209 5.9010038992831975 0.11588964678148428 -0.3420582790258948 -2.4403383971647905
Ni 9.181202373866542 0.4265295444678126 5.522724486437169 -0.8494374628812081 2.243537676559536 1.0247018520765836
Ni 1.349964469183988 1.067107509274708 13.270844860742573 -0.17908890514778833 1.4725173174356512 -1.8124549505741174
Ni 3.7783511025666727 0.9536220851785224 5.356392469821209 1.44175509655213 0.9994147953750206 -0.021509591937001665
Ni 4.154888133859931 4.7976772571041355 5.6905993249683045 -2.0507738450278166 -0.9607230352317777 -1.5870841316406539
Ni 8.904134526085592 5.001171608307796 7.41408013262932 2.708281799353142 3.042387913411496 -1.1677878567672015
Ni 1.258515323937269 5.245613337980138 5.8423954928874045 -0.22591666413460446 -1.194495190855059 -0.931903539896924
Ni 3.985949604807655 0.18585685625268047 0.6141184277637659 -0.29616228782472864 -0.7264695690967037 0.036662388418040086
Ni 4.999336036169545 6.067366038108605 12.290448837959804 -2.367376660095084 -0.2862288307611006 -0.26667713388141817
Ni 1.022677250338577 7.62608683195924 13.417007234175811 0.2912139426805178 1.5335031130904042 -0.018113164660942996
Ni 4.789167732935011 3.6109375103677133 8.248562290206797 0.5131184003319357 -1.4263960975975565 1.332708440834408
Ni 7.247450659195059 8.14876364502865 7.227385502426361 -0.803209799372236 -0.005157632941539505 -0.9435637498436719
Ni 9.30960770483005 3.225410882192251 3.27593241667024 0.5122691649577629 -0.3055696971815576 -0.34016568998887226
Ni 3.245508043808488 9.037462955655796 2.978372994593091 -0.2537372858912985 0.0752117094461479 0.6913012487256869
Ni 2.8429435409138737 4.375796887400846 7.472440030797165 -1.8947698467239493 1.9864214468936754 0.9032043721900186
Ni 1.9604945887472343 5.742808644494439 12.736484395683433 -0.2256770373199726 -3.223154206261707 1.4427717107421023
Ni 7.412445061447708 2.1391945962988257 9.19502564404614 -1.6608778776933526 2.852644870983971 -0.4328907257284351
Ni 9.262221704091813 5.639404747372956 3.166541730420922 0.061118207467559256 -1.13048269255884 -0.5428956315943682
Ni 0.9464774736250217 2.6211593606608687 7.159780909915048 1.4984394366180518 -1.1473509290690884 -0.3241310051235127
Ni 2.0259821547257646 6.958013879159433 2.1917522038717054 0.3806633929926025 -0.2294177353093275 -0.6332313411661481
P 7.485594964454632 1.8407023270478267 6.40706643120382 -0.6651114777041965 -0.9021185953250076 0.001683558350010004
P 1.1844899942182574 0.41864034954951357 8.199873503909924 -0.9229221623339202 1.1063739724360946 -1.5952270724627624
P 6.008703035208188 5.605630220029135 5.537465542685893 2.069464479458784 -0.4675473965703561 -2.6023029839274665
P 3.2026592008683887 4.475143699437272 10.493481135073665 -0.099537430675706 0.21947656493621556 0.37750967785496914
P 3.309527152076418 7.392074917308347 13.39966154812886 0.24112011134792025 -0.010878851696032877 0.3377545094442183
P 1.6244813423522908 6.412425360528467 8.198413518070732 -0.2626811253481476 0.8119260961993113 -0.2608798104733507
P 4.9173848000894695 2.361364717360386 0.8488881042460914 -0.8713404336018865 -0.33204331799205394 -0.38097809601954385
P 9.121626291492225 3.2745759759260245 8.701127778147375 0.8116823556196214 -0.6502296754963575 0.9951850735643891
