# total energy = -340894.4478042451 ev
CRYSTAL
PRIMVEC
9.04477054529379 0.00000000000000 0.00000000000000
0.00000000000000 9.04477054529379 0.00000000000000
0.00000000000000 0.00000000000000 13.23793595245824
PRIMCOORD
 96 1
Ni 6.484195900341183 1.9551899280024452 11.467083827502284 0.2937799036354812 -0.5767917701211808 -0.669965206252072
Ni 4.549383840051765 0.4362066645050975 5.840669531093903 0.6415362614874177 -0.2967212456519922 -0.17568270767971678
Ni 2.660935272836902 1.6159025007272345 4.74781253548995 0.4651665550430053 0.5102228239516955 0.09394193886579949
Ni 3.347134868835206 4.1957785412320705 4.572117870454202 -0.8157200160241047 0.26043706650897724 0.5150261588776097
Ni 4.900709856730454 4.656700040857384 2.6158561371592612 -0.0850736898418922 -0.029025954918704848 -1.8120975672346984
Ni 7.25387872713897 6.077289769549512 2.8382263398483922 -0.20320045348401136 -0.9788863364043658 -1.3513427681061436
Ni 5.312409715834556 4.406015184428514 11.78312619484741 -0.09617519907169243 0.3026759205735303 -1.719859498433883
Ni 5.4931965866059596 7.838062357786532 12.354289878503003 0.3799596820573585 0.13576170311506297 0.3126744265471389
Ni 1.879792721941287 6.424663221563047 0.24963747201645517 0.016783132995609802 -0.26287447230587624 0.28906835709242473
Ni 2.787335939188231 1.8428538796243765 0.30828466777235175 0.3602411205825086 -1.026542504829748 0.06638254119029212
Ni 0.7197412225526709 9.205676866241111 4.533608855995711 -1.243754184991187 -0.38581948327224524 0.32296835227397924
Ni 8.571783177470696 2.1951115076543495 1.330505624454134 0.09864782898190108 0.8128604350881227 -0.468432884499103
Ni 7.129874924943856 0.5948130448225935 5.00241739541053 -0.6468900696001634 0.26241861571538033 -0.9296705368013473
Ni 0.6777861505714704 7.067791620912691 2.3511763074892174 -0.670243142503807 1.1798342464087743 0.5540819872284909
Ni 7.531010492219809 3.7495909725896786 3.8332560032742173 0.22984402421346867 -0.1211447245328365 -0.08723984425527556
Ni 7.631696876321635 3.914811793501287 12.767445945641635 -0.31719802544910536 -0.14157188203893684 -0.3391966412073836
Ni 7.839970804341102 8.556678410901341 7.093892114858311 1.6534121654439267 1.1839829784698255 1.0057924167665901
Ni 6.9132436290740396 0.5503444311470077 0.33071841179748257 -0.24846601019003017 -0.46450809552340006 0.1926548167576811
Ni 2.0784339694838914 6.727789656775817 9.220698420922778 -0.4899185651767047 -1.0093647074988812 -0.3745873620018516
Ni 0.10956834863542068 4.944142844195147 1.327380656280654 -0.5710486969898165 -0.9616195789041181 0.06047260346376036
Ni 6.491106104927402 2.1257290739097305 7.134505847389071 0.32397288227909365 -0.8276100825934715 -0.3879427002628351
Ni 3.5548570658602245 4.236072993367682 0.42268835066404586 -0.49298306303464123 0.2803559169200914 -0.08250078690839341
Ni 5.6832633918085955 5.149287281655934 4.596091938878591 0.21742045373813523 1.6172709396366793 2.2352109018613957
Ni 5.143516718140217 2.9132029640859125 9.406122545478677 0.41800763796901563 -0.9087294157733059 -0.7075459927193234
P 0.16256165841377052 5.462625262651219 12.259479881730586 0.4679338333754974 0.9247090790310138 0.6076012993028697
P 3.9650193139961876 6.083123646458034 12.551218046531694 -0.3772381693611374 0.8224146544354611 -0.3523696882542318
P 2.209185170398011 8.39209072391779 1.4960719555950541 1.3760060751807786 0.023817157024255756 -0.11814784668804168
P 6.406908337266255 7.695670537366569 5.881230803956338 -1.1133809998815472 -0.19703237700008647 -1.2149372607594946
P 4.777257785529788 1.0253151726358998 12.58519924892754 -0.4131256272863659 -1.620445737820235 0.010605543429988188
P 4.116085069230528 6.21160461000155 8.223140744169926 -2.1343382973140343 0.11046101956674524 -0.6395467418612146
P 4.718575315169329 1.1648759799204085 3.6917026330704097 -0.7111817896996978 -0.6984579143751262 0.5682060853346989
P 0.0877867325561884 5.503534759174086 3.79311893014358 0.2547852675398386 -0.3859459815477805 -1.145810324054846
Ni 1.607906923692918 1.2775105057217042 2.4779957467101044 -0.4669161907442604 -0.34396938000567856 -0.2778151527761087
Ni 1.754803039772484 6.467444985558882 4.816332098138331 0.6042629789582561 0.1211642649168623 -0.0588594933403696
Ni 5.791393621950286 5.378210420500452 9.238569982757738 1.4606910142246843 0.7303321373759035 1.5703218245806503
Ni 8.696492471757072 2.250411233884906 10.082501329775782 0.03824207420033414 -0.44026979180132564 0.22898399020601856
Ni 2.348031440820856 5.1937965967983235 6.885010378267909 0.23774862377252604 0.11437629546075141 0.5902350401102802
Ni 0.6605676211594472 -0.05506998906237596 9.209764197985239 -1.377186468642125 1.5586155918873157 -1.0382554223913023
Ni 1.712337842740678 1.1964693629304406 11.448286081178278 -0.9886326171578522 -0.10870804143138052 0.2072332287924883
Ni 4.11086623670926 6.974476724687527 1.7145510980577565 -0.07696803001562229 0.11114184768385377 -0.27673220412457505
Ni 5.6977259796794915 7.710069811844659 7.973407397587222 -0.5711289154084487 0.4373184224824856 0.6167886222290926
Ni 5.2453789223941465 2.7905196983693163 5.069321562065326 -0.2071303846660368 -0.368603633614591 -0.25967550575260434
Ni 1.0418671024693833 7.468511128750208 7.206705727113542 -0.5328562450804952 0.41073732955984743 -0.8909144990790719
Ni 5.217783327901273 4.602521866156527 7.132758397747635 -0.921184353707207 -0.9216944605744062 -0.8042780927357503
Ni 8.31166462551378 7.219689495023905 9.282731978716738 0.06393819341485762 -1.342569392788888 -0.3429738488616287
Ni 4.461115925710253 0.32297518385734847 10.413119344621816 1.0055157660664358 0.9016771369122148 -0.01765885073234378
Ni 8.276489513425028 7.236069574219774 4.735169755423697 -0.3393509073970607 0.8221691140835582 0.7245209300107651
Ni 7.243938524468479 6.061597092904106 7.139999640930523 -0.23266658126392833 -0.10635625336975231 0.08108925127284745
Ni 2.3887781314765077 5.3980456019894305 2.359066060709845 -0.38191192068772295 -1.401440456093483 1.223463553062951
Ni 2.2282786807141224 5.264282492531842 11.327900187143488 0.32826122524180246 0.28361247618417607 0.5748408170423971
Ni 0.9169769127749893 3.4285287576721015 3.570111975618232 1.0155844631563478 0.6421289007660941 0.3609263195749913
Ni 3.5653670890659663 2.7425914600154204 2.590822926120937 0.11200856655952322 -0.22115266708705783 -0.2951438738625433
Ni 1.1564552986772538 3.4487709538291154 8.26244479394665 -0.14761988800522965 -0.10561217611487618 -0.3116963789045858
Ni 3.3735727327167755 2.8622266381069434 7.127741263606304 1.1918793504987668 0.5557814864181009 -0.09759084847229645
Ni 4.018437727983375 6.953212469475221 6.07213515489809 0.8693118332076321 -0.21920222822890634 -0.4888937234566161
Ni 1.0055794836213308 7.517714679730618 11.498590380716466 -0.635180494472719 -0.1574157910497289 -0.519547443786731
P 0.3056833918050786 5.594905029763075 8.110340699070296 0.3215244207386011 0.05604953469540025 0.10382783052094377
P 8.506081965279206 1.5747035715515418 7.872349273421925 -0.049410946332960066 -0.342204831906088 0.9908784757692353
P 1.8855451959162026 3.3041269855793516 10.489714078284042 -0.014592295991878095 -1.11063531881561 -0.7116906110153163
P 3.7898311561028852 6.257126939428831 3.8845796484365778 0.5224869860310293 -0.18312939376574913 -0.39007697299701855
P 6.870326193522192 3.7749705983343533 10.363132516524695 0.9703340759589805 0.6790643403398627 0.22574954242912088
P 6.390908138427222 7.524543481383231 10.119832715128089 -1.2567295142049322 1.360419019375799 0.42985708110843385
P 2.388615325609293 8.46349918623219 5.787069317221659 -0.20284101326206358 1.1841806963029282 1.1101013006890106
P 6.804860145361125 4.027907602593024 1.6627770233294359 0.6113833920531212 -0.05963339539191665 0.03523285506036513
Ni 5.492138348469064 2.774582812923088 0.3027836384145787 -0.2791863220920224 0.41305492194943055 0.8893314708626684
Ni 1.4727056957415996 1.2963055386145887 7.022659121089686 -0.11628148290326425 -1.3202213641109908 -0.24313585622636835
Ni 6.831533173273115 0.5624363846958516 9.285022114582224 -0.2706512880378178 0.3017325828236545 -0.7165980756192626
Ni 2.6658284936237404 1.639048068182909 9.212557223085009 0.4864105520234461 0.5730263895414777 -0.3058057244517636
Ni 6.264652188402305 1.9554431815736677 2.4615939600652745 0.9843758987640274 0.09300708575635595 0.57203137261806
Ni 4.115162502649645 7.050127184319908 10.40324335982117 0.5479792167648626 -1.1601694209899958 0.14662975617781843
Ni 8.039407991678978 6.964771686047457 0.3605616317349574 0.06683814067047199 0.6852010493652199 0.21398006059801858
Ni 7.708866857381351 3.871912447490242 8.32193586678094 -0.10711138636822197 0.043603595622563614 -0.7614072615141533
Ni 3.042669807603117 8.299915468763128 12.567315024414018 0.7322375819287325 0.9629922908819287 0.24013203640303804
Ni 0.09025866830672995 4.641875662170454 10.086181646851871 -0.3193083869238888 1.1569745682017818 1.472455096739148
Ni 8.744511157814976 2.3280605877758656 5.722997972656396 -0.5178194053520309 0.8838059130587489 -0.13923706325817312
Ni 3.8625691996662046 2.6247923703152622 11.416236841740046 -0.8924566467552113 0.0856493598397041 -0.07987209103629471
Ni 0.9875713457533168 3.300400540174217 12.557492403758737 -0.5279930034509229 0.28318104507371233 -0.41769447760397094
Ni 3.409625187534407 8.660648046658661 7.893489615279739 -0.9321135990252011 -0.6588716674420717 0.4602066399345687
Ni 5.746956664971104 7.740170807738557 3.6959120692149474 -1.3509445042264605 0.5633510712352426 1.1369629009665452
Ni 2.8687207832547252 8.43817382910992 3.6829391550290644 1.615169319912644 -0.4126402030095152 -1.2133205510916782
Ni 3.450399012501262 4.449321545107596 9.41059699339596 -0.4465754223043793 0.3355559591310028 -0.6251339088699943
Ni 7.242554674597156 6.141905609292904 11.458637820902005 0.24314999729375544 -1.027161883581302 -0.311059002430903
Ni 0.5697843561694701 9.030090738450173 0.3411985872609019 -0.5898601732693648 0.005190285951687835 -0.5426449490361428
Ni 4.508411030136092 0.3722067736260012 1.5580521492436492 -0.25938111444063716 -0.1780643205380159 -0.06681705762454944
Ni 5.8414112022667695 5.57766569737913 0.4032538525038239 0.5904515269964605 1.3293996881761492 1.262105176694549
Ni 8.036658381477132 8.792195187368051 11.260095161356771 -0.43853918226346406 -0.594101465044222 0.14571007257702645
Ni 8.995856282483105 5.1596435437648625 5.9754185205251815 0.5018345998880002 -1.9145624559698449 -0.49574879870523647
Ni 7.877633228290078 8.713116759753763 2.6179472880759285 0.38924624956560705 0.866956702711894 -0.04116464716376781
P 8.558659215619118 1.7559336360725857 3.4649900361118497 -0.9285099408343428 -1.7127036041153922 0.5248164054951542
P 1.6682626765775275 3.3592910402538956 1.4122495459055409 0.8254801807346622 -0.07814250993969768 0.6529324191395013
P 4.691739481390123 1.3469019842367238 7.982872749811671 -0.06359520825314208 -1.0718430285387603 0.5305689917082153
P 8.522588671260685 1.5257080502903504 12.27369735632362 0.6045869379565781 0.8046840699249175 1.1387624160691292
P 6.235727012660512 7.682600844137396 1.558965671054131 0.3344205599749789 0.24555732118366747 -1.3804926501972226
P 1.6888123949281695 3.292432097451103 5.85345793196361 0.16966401228946265 0.47973314000327055 -0.07541122705146368
P 6.937076599080175 3.9168106877598667 5.990325206622757 0.7132209316169137 0.8814011602719982 0.12729994550095497
P 2.417441008876677 8.676792961824107 10.110844022303763 1.7168333100130495 -0.9358792367152204 1.351558997882008
