# total energy = -340859.11997166026 ev
CRYSTAL
PRIMVEC
9.41430420742945 0.00000000000000 0.00000000000000

0.00000000000000 9.41430420742945 0.00000000000000

0.00000000000000 0.00000000000000 13.77878582002755

PRIMCOORD
 96 1
Ni 0.6265228972934489 6.514001965927429 3.355437890893079 -0.6522904146801283 -1.6823201067275286 -0.6483494277545092
Ni 3.4649158949882763 0.9178796132458944 5.357247559303836 -0.6735200134828658 0.5577398956960524 1.7311463842016122
Ni 2.8592089660886475 5.451277631357327 4.612393446085084 0.1327059470078747 0.038802060468862205 0.18978366585747317
Ni 8.470840443790298 3.089059207296693 0.26652272245325637 1.8917475149578582 -1.6377636602733925 -0.42210700484936986
Ni 3.699124959119907 3.3350361518915657 1.7326405849989277 0.7707727618894533 1.4342559599616074 -3.1349975066191167
Ni 2.2014221054108933 7.666425792540546 13.005823830757738 -0.15257054714228563 -0.4564173480954656 -1.806756100417127
Ni 6.937174947385616 7.51981683057729 11.045984072661522 0.7543156447746945 0.8954998044569095 -0.572908890127007
Ni 8.232432599909382 5.251411949569622 0.07017422477840557 -1.4141113666929324 1.1464824104212061 -1.2410216165513723
Ni 9.367185777218895 8.29486826649516 4.451759994900955 -1.7468162295283851 2.557479142744557 0.9901760503855722
Ni 1.4295903615877676 6.832836212046326 8.640511627170197 -0.22805813595763952 -0.6390726304382736 -0.36998894399789184
Ni 0.2712468203864203 7.068372693094211 12.066248011659372 -1.6226656282896894 -0.5611417222887497 -0.33907014293184834
Ni 4.043189540951995 8.120891921726589 0.35386675554275077 1.0184090770893364 -0.3176122301683885 0.4400332503104873
Ni 5.028754236900711 8.959838241407676 11.818960595896113 1.4177499918867842 0.442160066845503 -2.5879585422803366
Ni 4.185317294034849 6.371902455757686 2.614345733700816 -0.24464329400983031 0.2658903763140647 -0.07607405744644317
Ni 1.7709153808480136 2.363847098716747 6.225627701599587 -0.856625753099531 0.6352951656737124 -0.40528427686507623
Ni 4.607793616969612 3.278625640102968 4.483934321517896 -0.24272936481656907 0.30193724263529287 1.1504020571905864
Ni 8.636353328929705 5.876295816472151 9.543490279458315 1.669888822942711 -0.4969176222023571 1.9373015494385732
Ni 3.7913663133429845 6.235178513383555 9.354872808532596 -0.3380085344365534 0.6837391201077128 0.6095828485092727
Ni 1.2542112854679774 0.5986283134433796 13.505291276265654 -1.3172697376818345 -0.27828489332367556 0.8169456609010898
Ni 1.5480034819610955 2.968800883266729 12.040564847905957 -0.08334565140719194 -1.7367117941045316 -0.2693271699097555
Ni 7.660579509526408 4.8119616358546775 7.762044999171793 -0.5456395128880925 -0.9897471903782697 -0.691261396626687
Ni 2.6133544074505926 4.610222507497225 13.24215770338581 0.8353023090314065 1.6165952537258934 1.3837114142448363
Ni 5.654202962065475 4.536075446274429 2.364990936697774 0.8666810804530042 -1.483348346612884 0.3839685461064355
Ni 5.907664278634969 8.697367435555522 1.955953533252033 -0.13347573529436366 -0.05507688636948578 0.16859649025689674
P 7.435916550026559 3.2197015090474217 2.033775938901109 -1.5225502136233262 -1.0601339676319486 1.5715976059692804
P 9.054790915289484 8.032990561818353 9.694919365259317 0.7717641792684451 0.034583137291508186 -0.19770034960138855
P 7.887972617293729 9.144085592244565 6.385875166304523 -0.13944917926897918 -0.4885134572990619 0.17666692596985703
P 7.686581818197987 7.7203320993665665 3.022115030347838 0.46596873922932647 -1.089055278651989 -1.2536948411436668
P 5.191659359729464 6.076076769520521 7.407075828587246 -1.11363451065325 0.21279786736445935 0.5105048739684884
P 0.17831257336166734 1.0170932012858334 1.7274881362169017 0.8060529252479859 -0.24501404708568772 0.08165335130643356
P 3.582039255662833 7.724257864289104 11.010876248802704 -2.167650281202602 -1.1844851149172246 -0.27135679874527463
P 3.4680979298655368 8.422789834282787 2.3981838910476134 -0.2913347845290983 1.1640679847134534 -1.583935301599027
Ni 3.3858922241015126 3.723357378569815 9.396084867345307 0.7579846089858494 -1.8164026223679557 -0.2021056777579358
Ni 8.356955603819225 5.231961996739975 5.183414311961698 0.8515503954591528 0.2202021302483304 -0.7145108540729307
Ni 6.912076411933613 1.1501738078685462 7.919439929652437 0.20778575886184858 0.3570992325194173 0.7121012161901736
Ni 2.3273854978894373 7.88306776471665 4.096337054845745 0.6994405900033697 -0.6766657582006991 1.3845223401819058
Ni 8.675432106372039 8.542812800703487 0.27789331927205946 1.7868385355575935 -2.1615328554509547 2.732525245281539
Ni 6.566420812662893 6.393188197939598 1.2676332592091328 0.3645837138219205 0.33118096999175867 1.5136994481009158
Ni 5.276717599717778 9.204732540999931 6.722876195567355 0.4122866763248383 -0.657758379773235 0.26270503660754757
Ni 3.244122214584742 0.9501763258196533 0.967058997847439 0.6931614418628772 -0.34362639484396307 -0.29416016979303533
Ni 6.853896010923344 6.754622171335433 8.590370100661977 -2.604670969939011 1.9298242672249217 0.9801580040279377
Ni 6.617653457047665 9.015655652020927 4.338953092780316 3.749989699069419 -0.9424152380615253 1.5824844280851134
Ni 0.5378269700963373 9.35584154045233 11.337571439071048 -1.1339246283608535 0.38610796104694145 1.0703890697010534
Ni 6.752315666764638 7.026535524471292 6.206047831369626 -0.6362027650896462 0.40889796235826353 -1.0462983473004366
Ni 4.949796466144541 6.313496111442523 12.203939744522804 -0.5268246941744347 -0.2985991794009954 0.12225518398819589
Ni 3.5940236651265987 7.743877274597421 7.664408307113928 -0.451983480693828 0.6023410793451949 -0.8567982741216534
Ni 0.48213006257903074 9.206229415394855 7.5621557816231615 -0.40773916616347194 0.14317907862505663 0.5134765550023027
Ni 2.7976394155049644 0.8688828661491395 7.841121390163032 -0.07065288643087186 -0.32536539175124607 0.3525612354397476
Ni 1.6817807470672321 4.918569218547281 1.914328186477453 0.32581662035605174 0.3907619148791851 0.4253903035863319
Ni 9.05915915251744 0.8778857654187383 9.358248778079892 -0.6136333644295625 0.015489610995166873 1.2846192986366651
Ni 2.832076940892596 0.4549594387350602 11.870369287772615 0.18069507329264364 0.6440186615896392 -0.18429204661528262
Ni 3.8631315555600203 1.633372393993639 3.170402562780371 -0.15995938340718904 -1.2662896470895417 -0.5072094910466685
Ni 4.595046648851829 8.947759688900204 4.084900557896348 -1.964096043923598 -1.7289753446922225 -0.38863278435132426
Ni 0.30763404820920204 2.851056178503713 3.4702425084011583 1.1725395125195741 0.12561021650335788 -0.2262398518019781
Ni 3.2880022872560795 4.963334235829455 7.305415462841389 -0.16598784898945607 0.010328892729833825 -0.6650489998973772
Ni 6.294676917005707 4.827146908804447 4.6068126464541965 -1.53274695165067 1.7072387243460792 -0.3107635826776713
P 2.089768455575652 1.8917573917489545 9.796441340730924 -0.630254003705379 -0.9727853657129505 -0.12027054945799932
P 3.421177036882498 2.5630631935028805 13.146973437616486 -0.7339620208190069 -0.24152480298550663 1.0740600907947373
P 5.778132864799971 1.4646115738463763 5.41671677858244 -0.7053968075868045 0.7804344533489334 -0.6466401583728864
P 1.5511384453165031 4.694753546440786 9.012401127000013 -1.446051924155271 0.30078744530156587 -1.4452967911568013
P 5.952410467308401 3.333821706627759 8.640773344831699 0.30547199526142876 -0.8747980531331838 -0.6926996717351103
P 5.314261845547706 0.5447427180869754 13.53913193475619 1.1717692100124528 0.9537208928823316 2.9240906856297832
P 8.823801543252596 2.2305970346553634 11.948908121984292 -0.12865594530821714 -1.436114610436901 -0.019884654739068978
P 4.866658744247828 5.258227905933933 0.42444767826996593 -0.8146879752151646 0.1955244249959923 0.2639142264243003
Ni 4.582214951994709 2.3318290495523577 7.176446082977315 0.016415208133229796 0.4288039572535711 0.46534421827145017
Ni 1.4830165388908871 7.863137682364102 1.4319881849109581 -0.09104867647840449 0.33059167314719196 0.8523132417671062
Ni 8.839052716332958 7.088425161403575 7.353256133361435 0.36226123633633095 0.06895570123410705 -0.9001293328091208
Ni 0.1289693798640745 3.2486787379001094 10.134434637674417 0.533661771700926 -1.8726470466829814 -2.801642154683859
Ni 6.182543137647565 1.6210019980506791 3.0160795198158503 -0.9491620698670558 1.07598121907685 -0.023472372090327317
Ni 6.801693693188402 3.1717262139748765 6.345709978137821 0.23453448771060253 -0.6790376008669854 -0.505167006695343
Ni 9.308741775686249 4.7120570378739375 11.623604365901924 -0.9178483473554386 1.6766526240291058 2.585538362874618
Ni 6.350550813445181 7.910077403955883 13.429438343090906 0.779208037141 0.24498936449533937 -0.1798872326793676
Ni 1.9963973848281036 8.734770466819892 9.766982099494463 1.3309112397246692 0.5961033259655991 -0.41543782035931026
Ni 1.4770761128330425 2.7064336347626523 0.9390778023971603 -0.5625252328998376 -0.11259323541839963 0.0005733560049667545
Ni 7.460280769737655 0.9733637574844256 1.1678585786287063 0.39662891518292337 -0.023630494934746397 -0.5640645523624995
Ni 7.999805138912011 1.4433634888819464 4.328633132329271 1.3837510092335201 0.17871532385845348 1.4351751293417672
Ni 4.188715857912634 1.315762007442919 10.135330879450496 0.13495231983989017 -2.075903293105593 -3.2424197393595384
Ni 7.040826438505853 3.395730172168783 12.237339813568795 -0.8086715938177557 0.8691555101354257 -0.7125246768808374
Ni 0.47946769730302685 4.80248143135349 6.777922574652653 2.018300297880143 -0.2544628512034134 1.6899323718571477
Ni 5.741803064233849 2.6377562843791713 0.7094638602288167 -0.3859668074833869 -0.3980520207826951 -1.3030204268516719
Ni 6.873101191839355 1.4173141086885135 10.629079135053278 -0.3058129235406153 -0.04171949122597331 -0.7525870921193619
Ni 4.835017267258262 2.661169659348838 11.57623346916997 0.7867238859020709 1.972591740099435 1.732133687815546
Ni 1.8537800879179795 0.6730135565667518 3.565095390656638 -2.215888033163068 0.40367425206547897 -0.6095707643244147
Ni 5.314694903548753 4.778098383033653 10.163397745070547 1.690072754089754 -0.770794359156008 0.6045013202213072
Ni 2.298850741342168 5.203286025627147 10.94235423444134 -0.15323826263327156 0.8876543402705616 0.7950745718596114
Ni 7.816310932424769 0.03772029332165785 12.428671428444556 -0.9977960288246752 2.2286417332843103 -2.2660826517395876
Ni 8.642642084249262 4.814079854338062 2.517618463445151 -0.31651154090504197 0.9660318490392009 0.00903562783970702
Ni 9.12151009036388 2.5707170229561735 7.842126837869811 -0.15734791392627095 0.6842934499492861 -1.427648996168051
P 0.8305449944607707 6.655207117181964 5.612554079529968 0.3584277215228537 -1.5734667979675354 -0.3396301292003764
P 5.988457838743404 8.96291671893686 9.411930083031454 0.09640171326020174 0.8553324882094043 -0.04098646971469071
P 2.5885853726515604 3.5383380547745364 3.3817687587871923 -1.3347624951499595 -0.0934580572508455 2.727518793205883
P 7.012404653611029 5.448500411568002 11.333905508949139 1.2938032791287781 -0.8880562036946705 0.3662207352047112
P 8.961278629976377 3.0941617602655547 5.596088461185799 0.6791849250781271 0.02107790371622176 0.20353495400529464
P 4.809306802022172 6.840772470630736 4.961231080233064 -0.22463599764996797 -0.662927068458368 -0.5972438673279457
P 0.6613529991733346 6.00709816139718 0.3653710354836163 1.6321401434390277 1.4190861941997044 -0.58719933860775
P 1.6873351866458826 9.122084362930488 5.938477296839923 1.8263839019503836 1.192811889615365 -1.3465612875571003
