# total energy = -381162.83053990966 ev
CRYSTAL
PRIMVEC
9.29774557255261 0.00000000000000 0.00000000000000
0.00000000000000 9.29774557255261 0.00000000000000
0.00000000000000 0.00000000000000 13.60819047596160
PRIMCOORD
 96 1
Ni 2.2095069861183654 -0.052865122398561705 8.68533199691299 -0.33535901262884826 -1.029587205193343 -0.6811572183131495
Ni 3.1979038408404983 3.835589728438612 8.779473531492101 1.1170756751243147 -0.6792540877531656 2.5759057248808603
Ni 6.182424418279718 5.937280055628819 10.785865684540358 0.2031703715770243 0.7299837528975492 -0.07687161364707407
Ni 2.593001804517021 7.541652561781659 5.430103834844855 1.693744032293754 -2.2609633282351513 1.1934459236549382
Ni 4.813201198169655 6.895542916595677 3.5747898216084075 1.768024488174884 -0.7190110559361295 1.2467304940106918
Ni 7.530551053437383 2.0674374320978193 3.4761574758649023 0.7538741863619017 -0.2174590202855545 2.47753480370943
Ni 2.3614228528161214 3.0211443976805112 6.899352203001582 -0.7281834664640169 -0.04250110658700422 0.11772901398306822
Ni 0.5733296813112015 2.7948837565096993 5.322707434021522 -1.1620296141271858 -0.23328081780915955 -0.6305879900060302
Ni 6.189936996790752 2.8171239641809787 1.8785565178922439 -0.31967322646247526 0.3561895762209544 -0.6065592311916005
Ni 4.4616441361885775 3.7069833101655623 5.725782375051844 0.14320787498046306 1.382311705683832 -0.16410168771033673
Ni 4.384658801941841 1.4490629622811633 2.959210254143753 1.5194913721923444 -0.048406673438161796 -0.5815637375885274
Ni 5.569228792807921 8.789986492534709 6.413159134672695 0.22371322872538246 0.8528328617160023 -0.23601492891087095
Ni 6.6397154441561925 3.152893453994067 12.162592185415773 -0.004469348625263271 0.676421503400377 -0.6599440745706441
Ni 4.248372445735482 8.289358674034558 9.736156705467593 0.8793900433792402 0.1092852540910892 2.4935355500130605
Ni 7.936825348756872 1.8929280433928692 8.833498082777206 0.6399316360044591 -0.6046411882332813 0.5767012672899036
Ni 2.811433743823611 2.077181469572527 1.6334186636633228 -1.9902284793445917 1.3838597668972425 0.18509834456666185
Ni 4.73447718548039 8.424064413474982 1.9069834455403079 1.3113906531932382 0.36400958648600534 4.592865192462393
Ni 3.860675046288575 7.8831215696977965 7.681075047606547 -1.3694158235577705 -0.5292387029325659 -2.000896243471083
Ni 2.5640300289719935 6.6220497273604435 9.391108065463895 1.954938802904362 -0.6327844834367166 -0.73310044414966
Ni 6.423301115662591 0.19869189544919338 12.931999236090396 3.1619259555788446 -0.49065852866652265 0.22202787060315957
Ni 5.613448871271384 5.209582692083526 1.9780321691691038 2.9095919777929757 0.1811758695838041 0.46788961040112326
Ni 6.906839677599275 0.2891998710157907 1.8721605986376144 -0.7167016910766625 1.1699902637351591 -0.8053186181851227
Ni 8.822444922710476 3.502339927705338 10.62496261686641 -0.775347268634013 0.20974313969853556 -0.3194742230777918
Ni 2.806068944565113 2.196685394822925 4.8460538527623385 0.7413390300093684 0.18949570230340915 -2.5825365999338166
P 2.490680113286909 1.0063229083969762 10.825070558982967 0.10426363250678174 0.17671654826086983 -0.017627740384092223
Ni 7.298563000926476 7.166832540104283 5.855087054025611 0.7676673834912521 0.07447148884601368 -0.3913039034255842
P 5.29183984813194 7.632286986689531 11.813624545607125 -1.122912079300434 0.5089858662208008 -0.9138803638466261
Ni 0.882048309837158 7.687404023092266 7.074381335690154 0.4029921383967898 -0.12127173702900404 -0.17640878721246392
P 2.647942183751799 5.345525031699652 7.316769846520915 0.5529851546198864 1.1351782982622967 -1.4489606131616335
P 1.2754740503987287 8.28380791986242 4.225084382125845 -2.7919115576596565 0.7478007264743122 -2.488189712320115
P 2.3218516471936446 4.638636022990614 12.983261427133387 -0.2075988396620231 -0.7162964852184438 0.30329092844970995
Ni 2.8074264154346813 9.139711898616438 0.9970037778999349 -2.333651499928497 0.5275443459492786 1.7504227159327208
Ni 9.361621194808086 6.045273371724934 13.411524890990743 -1.3033672686681295 0.21082351724690787 -0.9682178009469261
Ni 4.5346128443007006 6.288279252868979 6.019691554255554 0.33836540355533984 -0.18809187997734705 -0.5053744947204587
Ni 6.916546524091254 8.952548278038323 4.238189554664586 -1.7133432945819203 -0.27182808195473834 -1.0660750157067318
Ni 7.334517383478666 1.3331386691183251 10.957056707811414 1.5983147102491506 -0.1487804839722341 0.4596841917721955
Ni 3.6678769918271836 1.640512843618668 8.979119375648265 0.5132135311489032 -0.6862883688921277 0.2145449319625531
Ni 6.76821958722674 4.994302688563124 6.717805350589947 -1.262973181121799 -2.086095917367878 -2.954662130658737
Ni 7.121468838921938 7.240814702495743 1.6215519508494207 -2.97361476050184 2.0133092724234554 0.49970546936013943
Ni 8.200602393754444 8.34752537102098 8.146053449612877 -0.6915925547138606 -0.057212444655249856 0.05699467221748894
Ni 0.9764585492664793 5.544124879466594 5.644609336149949 0.6941860264726496 -0.6521178936580059 1.7402444898481384
Ni 0.06509444729406069 3.2105301794766175 13.214791100782174 2.6274671418979203 3.080049432518012 -2.0087622764827215
Ni 1.2825217416256645 2.209423306407228 9.291346043620031 -0.8191395832286151 -0.3856965845411357 -0.939131425103931
Ni 4.925229735891748 1.6032381811796386 0.33181980744738643 -0.7681309533912319 1.1051138747767484 -0.03472763328917245
Ni 2.432373950115257 8.726176063919327 12.355052731708907 0.90519466314717 0.26635523176562514 -0.9799160632204608
Ni 0.440845173314201 6.928196599430767 9.329381261655845 -2.026391045308078 -0.07313580075372567 -0.0136705555085571
Ni 5.948511732412642 2.6388303929834658 7.388253704647628 0.9683419852296163 0.11613210180959355 -0.8201636536177551
Ni 0.19893177728778827 8.567277590214411 12.278738694700412 -1.5063190964764446 -1.5831665417538026 -0.15575871506228012
Ni 1.273707478719154 4.899856187925643 1.4617506660387838 0.23826284440478318 -0.5383501783155309 0.3823191834284706
Ni 8.280274776503271 5.572259857900244 1.7709695132824304 0.6972813775685217 -3.0810282514915133 0.974805738577089
Ni 0.41951800426889146 6.015548478779667 3.5187374319900657 0.4803946848466694 0.9580424030758209 0.20454334066515095
Ni 1.4506993655211906 6.28832574159739 11.559695672835899 0.21572635386516398 0.5960619312047025 -0.3760922286821523
Ni 3.7841824925629832 5.874892182102781 11.858830185112875 0.8272177322510592 -0.18323120945093604 -0.8096694389546507
Ni 1.1709023047135791 4.64205759340158 8.740010179719535 -3.1900268275801187 1.5263531323091841 -1.981487499927168
Ni 5.2790554478192275 1.5620956565369084 5.071078823532016 2.022860406447 0.8918395819965028 0.07366930465969249
Ni 4.539670817951694 8.674833912263473 13.54968939182486 -0.3867273397984953 0.10648737963097789 -5.076255469602277
P 8.35553073005316 8.45383579514866 0.4875245055105461 0.2743292511100372 1.3160037264852174 -0.2319379306280199
Ni 1.835616739009188 4.030693623829132 10.630718851218118 0.7316575410555464 -0.15834164529810793 4.239011206353151
P 4.901650652842264 3.6431170950760903 3.527868748024331 -2.666741256907194 -0.8918699210138059 -0.35163563830168476
Ni 9.098030104724153 2.969978903192614 1.7889736680210029 -0.30216735636822795 0.07179728444796023 1.2787515270019785
P 0.12066056481323553 0.7516725305608289 7.669385921735171 1.5057092308065876 -0.07219580543795953 -0.4638167258833302
P 1.1703630354640246 2.312804940645085 3.1727088095914877 0.7727638241775531 -0.6000417417880569 1.2011445778507766
P 8.058142334415255 6.067736725292582 7.754859168014979 2.894069713787661 1.6531334578612433 2.0289842599565504
Ni 7.824034395888858 1.9121185904804614 0.11151251283674236 -2.3643011064935537 -2.639631802284912 0.6754601679283723
Ni 6.106601302243228 7.115406708737292 7.922756929765479 -0.006395362003382534 -0.18003352844924478 1.406510671527539
Ni 8.79013525646562 9.22591129883401 5.381440363719977 1.8214867217590824 0.2264887345879906 1.1861421909046734
Ni 6.403692170019309 0.25187221142637395 8.867219146816584 -1.842876243178452 -0.8864492642188668 -0.13644664499722953
Ni 5.035733443321996 4.181344997114139 13.434428027929146 -0.1905413699591041 -0.05332390823412107 0.04389901537579536
Ni 3.937260577470986 2.9793882218227705 11.423817487664978 0.6298793939747798 0.1527068156098338 -0.2858110264973916
Ni 9.035168046168335 0.19864540672078349 2.905565980657042 0.9626418495210454 0.913476443539988 0.7964200301439123
Ni 4.606791244029857 6.541819479870699 0.500205700846189 0.06849367399602396 -0.4274461576740961 -0.7361343458799774
Ni 4.865463826648025 5.02929940331007 8.0209941213175 0.1727411085528896 1.0057523075572743 -0.23103135965335048
Ni 2.7619604390498336 7.092999141643737 2.683493973915959 -0.8348698494796783 1.080515616612094 -0.4135262051588943
Ni 5.154660908340111 0.6830449399076185 11.144849785772198 -1.9235237789281905 -0.4544319422343206 0.1818484701707965
Ni 0.7702429180114334 7.746918893202575 1.7659487306141648 -1.3198655234334689 0.09443790466561156 -0.12779976795550893
Ni 7.345154004538842 8.322914238200799 10.890853039457493 0.2503807107142398 -0.29563264057350375 -1.9380448553625012
Ni 4.118659595726277 9.019473451457165 4.489859075235092 -0.5078538094988867 -0.8758048971311433 -0.5781421135014881
Ni 6.703581659245665 4.519234372942718 3.9516283838733384 2.144775690597274 -0.24588153729230555 1.9673562027321085
Ni 0.7373586510834316 0.7827967342312334 0.4386313800673232 -0.9329119265567803 0.11890503656904039 0.5882298367547933
Ni 2.3205499627981685 2.198740196618641 12.994502401662892 0.43866259521520584 0.3695384867240345 -0.860792225772395
Ni 8.521569872441832 5.888076385479818 10.9839188248612 -0.12938870970918362 -0.38656818851281166 0.24469831561748182
Ni 5.689132521122644 2.3520786184057387 9.666686739055594 0.862411763653689 1.7462598428042828 0.9105402437297996
Ni 7.116671202150039 7.020588298272532 12.70106833726353 0.9845263082989625 -0.7676108192217037 2.172975550070258
Ni 7.090023863025506 4.33366066687622 8.980929646732546 -0.17168849891865917 0.6349802055364548 1.3693543741922158
Ni 8.764668731042697 3.4332483795425968 7.601167431891968 1.3131904254061384 1.205488713752085 -1.6561951275057023
Ni 0.4155990044639399 9.259243717103883 10.03040711193783 -1.4960105154615848 -0.8171714037586506 -0.6156138851947011
Ni 3.595029154408926 4.633494369628483 1.5930292564208322 -2.330255843983387 -0.869427789960206 0.004310711560211931
Ni 3.1260787554472573 5.238173260055593 3.832188613068146 -0.228221143898065 -1.6308813313312622 1.6131533179238797
P 7.416225972531844 4.093685850824499 0.5483243240741036 -0.8641539431557762 -0.19427975395561378 -1.097946667604348
Ni 0.3609803272297581 1.5439557547113794 11.586748393672167 0.5836172776834465 0.6972307268362444 0.8822059155614806
P 5.046602508024222 4.396439045720901 10.114845519123236 -0.9396315046688011 -1.0221407762176267 -0.06523865739383602
Ni 2.1579044975834156 6.796484734099939 0.29175954040203783 2.2138735738362003 -0.2575926550816467 -0.8946382277875625
P 4.300774540399082 1.3016565022391646 6.924296195117179 -1.1998366576726305 -0.64221683249421 -0.016628609695616522
P 7.647340036948645 3.181855931793413 5.765382403685936 -0.6939656829317273 -0.3771255550426731 -1.2240392230607628
P 7.0801403593655685 6.644726929078775 3.758636936301763 0.3414011050578701 0.6426379791920287 -0.24498936449533937
Ni 2.1229635693105617 0.5266838209993115 6.222848227181231 -0.4978483615467426 -0.5694394435211677 0.7741843586741634
