# total energy = -340859.2703563256 ev
CRYSTAL
PRIMVEC
9.39185893767001 0.00000000000000 0.00000000000000

0.00000000000000 9.39185893767001 0.00000000000000

0.00000000000000 0.00000000000000 13.74593489892448

PRIMCOORD
 96 1
Ni 1.3499200394809208 8.65870211739073 9.84105824745353 0.4489716904506978 0.8399650046143986 0.8465393153978066
Ni 3.068273307439624 9.01111283477256 7.70903586315441 0.6861281891651797 -0.3820918979090129 1.7542680578207401
Ni 8.472010748360642 2.315703662586972 3.3450457508693097 0.22835201304897448 -2.593436277565456 -0.1447495084359701
Ni 4.155822379759635 9.16093176619262 5.719848624079017 -1.4019821875295662 -1.0779236875152016 2.8735960193143417
Ni 5.035539008912988 8.418571071844834 11.176805972020151 -0.7654714042811979 0.05793749574673248 -0.6105544683939227
Ni 4.983085477570144 7.104546716659768 9.203741736929764 -0.08163535358430457 0.22810004493916847 -1.3128384413833585
Ni 6.965152748496745 5.493711448130407 8.822374979712103 0.6726409533120221 -0.04043496808659487 -0.25288676496554513
Ni 9.043026370941401 7.164588869905032 9.115905316781006 0.1671690137817508 -0.3749133778827027 -0.38527492362268484
Ni 6.638419373047114 4.171591310668253 6.726366617129595 -0.41989971278540583 -0.4685305864192318 0.767711092244994
Ni 4.094230569814001 3.9921128891889803 11.248545685388514 0.757615912792521 0.11271716259077362 -0.12112029905280432
Ni 7.035206623212281 9.712684686394837 11.543148572731251 0.4527882359833105 -1.8146619855277648 1.0869593153549086
Ni 7.684606699255418 4.368003253546121 13.358395769455909 -0.2843151586781555 -0.9630154308103801 -0.5175772074342376
Ni 0.7577051132390917 1.3959307556937393 10.665141261877702 0.22344891932040228 -0.429047697833261 -0.6301421607178631
Ni 0.8393522984451572 9.105378921449036 7.005629781510422 0.0387426679858365 0.13684645153880948 1.6563745905063603
Ni 2.0516233771262598 5.397783002448078 12.414145800183853 -0.01146377766522542 -2.8924213795509606 0.20030796242756468
Ni 8.870685762142623 7.796867587373773 0.8556828625094252 1.3783758609645358 -1.2000649716333525 -2.0814339931158345
Ni 5.408339451728177 1.729783160106284 10.490306175384266 -0.0007553901087857958 1.3756029262050888 0.20911656185813018
Ni 0.38060789502742004 5.873405515297548 1.6901175836920734 0.5770825618887223 -1.0378108786547158 0.6664955025359167
Ni 2.307814501203268 2.668537013614358 3.619386642058233 -1.2248151819948392 -1.222257962790624 -1.4817905152074609
Ni 4.408801488130421 8.986496772883644 2.0007899414247126 0.3309115183804559 0.711259951235801 -1.4125594488247801
Ni 1.7764794820107817 1.5889428456895816 8.567539100858511 -0.7886547843761965 -0.2657157984094134 -0.9362872707869166
Ni 5.265207523766684 5.683088888774471 5.328432577955922 -0.48115470294114543 -0.3455506084498694 0.2908686435259571
Ni 1.580283551885087 7.741878254157596 12.569310577627254 -2.9106489583025805 -0.10618064702383648 0.8722007247196527
Ni 5.588766450945253 4.567232754061025 0.8116791865200564 0.6898092375611926 0.7598028931415108 0.6782526430718449
P 1.6121407369011884 5.347517774203334 10.321945836340742 -0.5784514172117909 0.24972327963589894 0.6481265131104257
P 0.7824864718427132 6.104745781015887 7.633254832948656 -1.3013222132136428 -0.5500916351221752 -0.7327952542044154
P 8.852465556089781 2.8854044249371156 0.924331715149959 2.137834740503067 0.3598243447600642 0.6838447924476415
P 0.9957342607877573 8.979960039165718 4.862376612470073 2.0950382141628303 -0.991131986540938 -0.9382001715389132
P 1.090629602003172 9.386815361953898 0.7602737866181906 -0.19579130550413376 0.24757203762085106 1.0045577730285409
P 6.482984110070559 4.093667058286593 4.005634348289123 -1.5919697418677292 -1.771653857397355 1.4859024804933054
P 2.8071044982038504 -0.3976062202516658 11.597761292409945 1.7432094860137333 1.1142657164793457 -1.8765664363420453
P 8.80911273591457 8.059905376508782 11.867909657834957 -0.13011453213161464 0.1405267286038741 -0.37418549857774264
Ni 4.725100508464224 5.847005000238509 12.691497721300891 0.8266587744237957 -0.6654410931294734 -0.3319044784213445
Ni 3.8201009954478558 7.90631091785509 13.236909258448014 1.131170205544168 1.062798916058621 1.3914620047245327
Ni 8.150179923199454 0.27731623205363415 1.4124219205433182 -0.6309625997366294 2.847178191442445 1.8224082051320871
Ni 3.74478767980985 3.511418772592844 -0.14659094955389546 -0.5322751757660446 -0.5633063340402363 -0.299026239636085
Ni 6.879977981129108 7.575614177996027 2.2635431572383804 -0.9290377883133548 1.360982862299069 0.227101428471325
Ni 9.619423528608904 6.873028005624416 5.733168158215172 -1.1379633172066013 0.8454735931374536 -0.8364042838463338
Ni 2.592265728379759 3.7537475130956284 9.302286754471021 1.7095087513271785 -1.0305984200666767 0.23861302865535036
Ni 7.144105225883771 7.444729233896856 10.454841577406878 0.8403612116115527 1.957119869716081 -0.001491754054178076
Ni 7.573782765531953 3.054091600666536 8.985662775823082 0.3580790799341833 -0.8332922205799133 -0.025089853089092274
Ni 5.393030721900275 2.190923426701382 1.1140829517738702 -1.0967847860857627 -1.2369847274778374 0.5048646449635756
Ni 5.262343006835697 3.7838202449416056 9.024947981956291 0.8719693254351369 -0.1066717277276421 1.9034686600495285
Ni 4.435868825163558 3.5652998664717863 2.982977385093595 1.1557862043206353 -0.23253571211301888 -0.18861381391908807
Ni 9.447082919810127 7.794848337733896 3.129757111009172 -0.041671925817489526 0.2814743467952507 0.902625102647781
Ni 4.57287726119389 0.8559721317601612 12.640225685793844 0.9895816113346828 0.512601351486201 0.6800254187015514
Ni 9.239785812594503 0.730581425053213 12.906360909957835 0.48762591248778603 -1.0974746130639357 -0.9232530633107777
Ni 6.470164222822039 1.42019931880742 3.2169201348826775 -2.0148190241997623 -0.852298586479087 -0.390425871696005
Ni 2.7520212463997717 1.5731833066397531 6.141326131817541 0.7473520689726677 0.958422155012743 0.6658730384605693
Ni 8.41220339158513 9.296381153663791 5.548588079041102 0.60424678100834 -1.4428976947970054 -1.836450799268082
Ni 2.2735530003368947 1.296020161884398 13.156000273342853 -0.10433176674055579 0.34191404013854665 0.6799737395280095
Ni 3.0089918947563596 3.9666515600089536 5.16719314624707 0.6304648341646045 0.5932578860970041 3.015769282382703
Ni 5.200901466630705 7.935482031257216 3.985221143208787 2.188953927776385 -1.9723307731285644 0.4097790794116362
Ni 0.6388652280382551 3.078294420768686 12.096463359050267 0.9239027810796346 2.102095378119928 1.6920995547117956
Ni 8.7570630544997 3.639279538161594 5.775010767496933 1.1893301017143516 1.6163450853883001 -0.4516440950765383
Ni 7.6230524567449445 5.590231580916513 5.067864847682716 0.2083215767606606 0.5816472984412693 -0.014098644184911201
P 4.541733857445839 3.47178512849852 7.13969386981005 -0.4134344167760364 -1.7189470139219427 -3.1922870843692053
P 4.425002444543384 7.1272844067906584 6.7083182820926135 -0.6267159086451335 1.0809097667267191 1.1799193499234129
P 3.0546081528999927 2.152895790460169 1.601539206698896 0.3944869291392561 0.7214824002947574 -0.6194491997803913
P 5.827272704920458 2.921760310313686 12.671195340154279 -1.05249110637471 0.8249369066366825 -0.48260429090347856
P 3.712883535499798 5.39945475331272 3.8206137909377964 -0.44403774348419006 1.2480690103164571 -0.5758551172395243
P 6.4460177538726295 5.631039207359604 10.896154690910144 -1.8038996048049383 -2.08638336670131 1.5218413604817598
P 4.644668629785599 9.62825187587162 9.190161109119245 -1.0787446407546002 -1.5603094346499706 -0.17007873122937806
P 4.348656024438465 0.4388402370838271 3.9243271483712587 0.8149808238652351 3.099892692496184 -2.2353361145853503
Ni 0.4405138663202272 4.26364091867026 8.962102358862175 -1.8653101467019362 -0.47599424178612865 -2.16044399326215
Ni 6.742715964911444 9.543255553820996 8.979202116161355 1.8839982100297425 -0.883450586601859 0.028340498815906032
Ni 4.3558032289777495 6.444627758771692 2.0812443605644324 -0.4194001474411681 0.26882631901393705 -0.9909219274126612
Ni 1.0523202099982556 0.7097352552826534 2.928929116128188 0.008810399202778376 -0.3548171213534599 -0.4952636315387019
Ni 3.815264188170942 5.169861373329344 7.894716668178682 -0.46134795262786354 2.719594396152484 -0.3046865232456559
Ni 7.408288821791174 1.8766906153014067 13.65952787702954 -1.7193149387843227 -0.7134770134917777 -0.2461561311099309
Ni 7.019090193528428 7.376140489152579 13.077744488345902 -0.8615607285073033 -0.39306099532600697 -0.01072509972698798
Ni 3.273842312637862 6.568844483129874 10.910079999938262 1.3037413641780966 1.5434944199751612 -0.06375924463483212
Ni 2.402907071453275 6.2969595630145685 6.161725249109692 1.3750383119508707 -0.04606234157570132 0.2604455511494095
Ni 6.51783729804071 7.191693774373331 7.0469774398339435 0.7024426100544869 -1.4376719276216918 0.5076257526484806
Ni 2.288476663954402 6.849726803966119 8.834526166614767 0.8794949443882208 -0.028640803665144224 -0.8417976869477631
Ni 0.629935448700605 1.6978414483610715 5.2398401131745596 -0.5205121216928456 0.031788605265506545 -0.8733667200032958
Ni 5.521811889630459 2.2647903960857088 5.314081817724612 -0.7226507095712458 0.4887381717153583 -0.6424448893446161
Ni 6.34166481085556 9.15558779854104 6.082301116879249 -0.9304590941409137 1.0967847860857627 0.3005969265573145
Ni 8.01504985892715 2.281348243132698 11.467257657777653 -0.8463387693512263 2.0108474411465243 -1.8886686189222182
Ni 7.693895247598851 4.194610756562848 2.33532419478542 0.3305834456170758 0.6430071896059893 -1.6157244210851658
Ni 7.741183256607126 1.7842559410890044 6.354758940380751 -2.180081050766787 0.6593997720313999 0.7924638737096416
Ni 5.433716254179093 1.6412836747269437 7.718685998061264 -0.10251913901184924 -0.25334236444572494 -0.6395775950991501
Ni 9.23877149184517 5.972001248876272 12.984203453168021 -0.16965244232523685 0.6918303817562794 -0.2639599920605712
Ni 8.533874922211188 4.8898994546545325 10.860952125793002 -0.16700523451037688 -0.13565345967197281 0.10684784829419017
Ni 1.4864776662893266 4.072920442219209 0.618215348116409 -0.5213942671874827 -0.6949663562820999 0.11347538091303683
Ni 2.8802389026025472 7.544057532461211 4.033648384688305 0.12424238962155376 1.2542586840669365 1.1073157675240737
Ni 2.0875096695633246 7.913157582913091 1.9750017755587896 0.17718680302906906 -0.6279734352013184 -1.9354688671052085
Ni 1.4861395593728821 5.757622680132897 3.8760238794277715 -0.9331536102539413 -1.6080692185327532 -0.07099304337911
P 2.863897068307731 2.214046183042668 11.245728127751478 -0.5274576997727431 0.5778531215061596 -0.6755568414072365
P 6.173268782748633 9.184862222389858 0.4550862744189839 -0.545106523202758 0.4037447002920982 0.09613971784806669
P 7.592773104005584 5.987554167032718 1.1701382609627264 -0.2809992069310451 -0.8903789382905762 -1.7213512524880612
P 8.6904935593953 1.1710708725405858 8.111847051547564 0.5085973725331305 -0.32622542575869623 1.089653317247304
P 2.5540032956687932 6.429422339390481 0.37329163702991325 0.441246296781982 -0.9429574837182405 2.216077266355738
P 1.1476757522943866 3.0159230865434714 6.898287409840456 1.0335929839186264 0.24857836739817835 0.8536088206500784
P 7.73015721438752 7.593533844567584 4.3335849086379525 -1.7399426423370032 0.3447628224412514 0.9842026064109567
P 0.3160764332804767 3.814127773257337 3.6679650924642706 2.119947575810001 2.3848951285948217 0.8061028046493148
