# total energy = -381167.79354856524 ev
CRYSTAL
PRIMVEC
9.27464745676020 0.00000000000000 0.00000000000000
0.00000000000000 9.27464745676020 0.00000000000000
0.00000000000000 0.00000000000000 13.57438404870408
PRIMCOORD
 96 1
Ni 9.093856919831785 1.0444458931073586 12.672027103521861 1.305261914587681 -0.702990512138157 -0.8132201324203865
Ni 7.092768222692462 2.377834158355293 5.299439979558526 0.787083840344651 1.4458845453394713 1.948918050631579
Ni 1.4198372557699317 5.990216662208179 9.994439116288358 0.15259111596757594 3.7533197918839165 0.8434557913764764
Ni 7.975900169640706 1.1371274468340318 7.559316387011993 0.03837654289566939 -1.3200082196589202 -1.183302664573349
Ni 1.857786116669912 1.4970857958469315 7.138334566479028 -2.4188444889570726 -0.5800892099255299 -1.2367170756387476
Ni 4.141733017107151 5.455013846301905 2.4152629263148007 -0.003248588844284728 1.133247656898487 1.0653317097828041
Ni 0.34778166414471723 0.8802178526641538 3.839202358729714 -0.10409368258782074 0.836119148505747 0.7412433849717686
Ni 8.329459011791663 6.161584326393883 6.190381179807868 -0.9309905411643515 -1.6384794553934945 -0.9508847089851171
Ni 6.19486176207599 2.833803659592602 9.994642231071369 -0.3681002116156112 -2.429951911724144 -2.8533629800969185
Ni 1.4573068321789937 8.453340480132217 10.55799360252257 -1.1673314859560735 -0.10895306756265108 -0.07890972712302538
Ni 6.0987485887276955 0.310031065912587 8.569685369811882 -0.7333133314914145 -0.3543962317659574 -0.15172439709190644
Ni 8.022857710571172 8.234913253892163 13.020400490185118 -0.0886395528162796 0.3963350380915884 -0.537378815541197
Ni 3.5881385749585077 1.3998874887263937 5.180460162488314 -1.8673886264975195 0.5466813238890456 -0.7244090870232491
Ni 0.9798386977446042 4.980652718822227 5.322882578898017 -0.9750669626582754 -1.8026472204550763 0.42784596421567606
Ni 0.4908755650425432 8.534549294745522 1.5520547773967408 -0.5250969128500504 1.094655912668218 -0.2418909280756737
Ni 3.325359983770894 7.486319345406754 11.133926960943208 0.336860022654407 -3.1157039484968276 1.1732897604220376
Ni 1.5273582456982133 8.228142761125179 13.032101385630089 0.5582888262209869 0.5711050041490487 -0.3571123451455398
Ni 4.602998342138909 8.017042506509666 2.380336458284789 -1.8751122203940223 -1.4259667233696216 -0.1705692977125514
Ni 1.556721780082147 1.790915907286412 2.157444416677574 0.6039264215544438 1.4172745949122623 1.2431872567441236
Ni 1.2284456273596818 6.732383239888765 6.664805374891402 1.0711514017883745 1.5767696370885231 0.9675423721464561
Ni 4.98336091592902 0.5065395174181039 0.2845146553639206 -1.2423161669930798 -0.43744852030244663 -0.9741812176192125
Ni 9.355337060351758 6.676160325979921 11.651382738617121 -1.1702440316171783 0.621404266624233 1.034784433123566
Ni 5.014959640390821 3.120844728969846 4.730360585733504 -0.6547694723482401 0.4793785848773292 -0.6526483122401792
Ni 5.045139343765843 2.210241275753373 12.06815665152217 0.9263355588908434 0.5860582830247714 0.6004644311477723
P 1.4501282549164656 2.293917146635195 5.084095646189355 0.4500770076997345 0.4252020988349258 -0.43363017499762097
Ni 2.2428787607492864 6.95587442373262 1.4314871406529572 -0.7289727951345317 -0.6220673541295286 -0.5046820966391243
P 7.004826013902678 1.0644049347985225 13.09610480143239 -0.8675130894359963 -0.3760140671460492 -0.09783895992736052
Ni 7.854170419549384 2.6084575462235455 11.443518408558324 -0.7535731101817151 -1.168584127416252 0.9628161703153806
P 7.384659932778108 6.0235682950712945 10.67325335842999 -1.2147930218721466 1.1168702439817282 0.8183507687787326
P 4.963336951704475 3.4883619157979404 2.365784536159586 0.688374304886879 -1.3458552626290112 0.967116083242315
P 2.7192988600019374 0.4184498417310662 1.0381623193407397 1.2930975113110055 -1.2830211009116097 -0.6970003559929933
Ni 1.7242126415601804 2.0240156260708084 13.518091066303251 -0.012871456646029447 0.17751050491707496 -1.3417376409162118
Ni 1.870000827593361 6.023531196480791 3.4915078762726814 1.437014496543351 0.04545273301616043 0.02333918894657271
Ni 6.5613401883699725 4.881311968100082 4.3302689815133535 0.390903582663372 -1.8483897167975134 2.3511702255385507
Ni 8.550473864719375 7.122576940162444 9.308185679285907 1.0350939939441852 1.3623661157998406 0.031006218573527245
Ni 3.3589249335294076 3.2452455775774585 7.1815414399095365 1.3393300599159839 1.507931692379203 -0.9546626879703106
Ni 2.344491800139803 8.727684556909463 5.634767646871043 0.3785432613258061 -0.6626709865835039 -0.022608481428135256
Ni 8.199688142208593 6.975583049937883 1.3900034967513597 -1.2458401209859382 -1.1455629839307304 0.8493567302419436
Ni 6.746962985956847 7.040180970653011 7.817134896649219 -2.466781164737352 -0.7019813541473523 1.2745050930207986
Ni 5.845124074746948 4.524711041527796 11.223681435879115 -0.18592186890922174 1.5437134779645028 1.0910879928113015
Ni 7.151309798507809 4.623244897906479 8.813739374907353 -0.4322677474324556 0.4383052118757871 0.08703132778889527
Ni 8.779529837138833 5.828355511839131 3.839378577034609 -0.19249875079579104 -0.6391505348640605 -1.194245536738098
Ni 6.582810997624175 8.865969553013203 1.5168556347265247 1.393782168217277 -0.2762120699550469 -0.4442341757657123
Ni 3.9307626075584032 2.5934140677741646 0.6034252689136453 -0.511673440355293 -0.10076256133205873 0.5278287099589168
Ni 4.657644565951334 4.967427071307543 8.717782015639175 -0.16124853453225776 -0.4666603659797124 0.37377360785130465
Ni 5.090733511495286 7.56178715313956 9.76732618254655 1.31776416081975 -0.42515479053675814 -1.9572635943827967
Ni 0.5267619591018464 7.795665942324542 4.3201568332067195 -1.0898381795646006 0.3369384413008262 0.7250068685082481
Ni 0.25035334576305457 3.8897964889943375 12.76399358191657 0.27156068722596455 0.05025529661112634 1.3078430450512961
Ni 6.77065971064129 6.802082216798198 3.4176223234248715 -0.4561067588335822 1.9307922875651458 -2.1724934682275165
Ni 6.193554036760724 7.219988564178379 5.58079568994103 -0.22530525580285068 1.0231841298804765 -0.7981035884939223
Ni 6.8866113552616115 2.1235418697454738 3.13960548618773 -0.267462605897191 0.09632046640030507 -1.7930091831446797
Ni 3.1717439951413646 4.828956582251281 5.422233531732551 1.3804206593087065 1.5959289836257933 0.1989825587479218
Ni 8.720162817684772 2.5405207523630557 9.049716089385337 0.7144856572619501 1.1681339272527107 0.9399762896027296
Ni 1.8746937992921198 8.47490403586268 8.282817736345244 -1.107488545656512 2.6087384551401653 -0.9633244774103668
Ni 7.057450364532633 4.689410234070402 2.154444995635324 -0.5174126568319154 -0.2455115555473965 -0.8801562321213036
Ni 1.817710364277942 1.355053842102283 9.620180188100921 -0.21322338493765214 0.06695769696747178 0.14823258188856406
P 4.202315015400219 5.509391105333175 12.117757467026046 -0.747468539945874 1.437958862734491 -0.9360777258792718
Ni 7.723277317603569 0.276050611940428 5.229545307584186 0.8224905019787189 -1.9295049362122898 1.1407506501437517
P 3.902947939328013 0.06559772772921177 9.75429437516725 -0.21393815161648957 0.24233572892257624 0.062336139035060384
Ni 8.789027076307862 0.4158473756072091 10.463012863649409 -0.5754591673526863 0.16680623112569337 -0.9487884885777208
P 0.9485274873592096 2.4326287765297336 11.263318497438373 -0.09263761823207917 0.0606752063928697 -0.20045322975617735
P 7.231600423006139 4.216495951620381 6.654339862510217 0.8832528687687563 0.11137016164457593 -0.8793077680780793
P 3.842579257930343 7.05404656885389 4.570929393042469 -0.20947445941818119 0.4971078838362923 0.23754113574741023
Ni 3.0175066051208925 6.7638428446361765 8.615078277687841 1.2786815929959914 -2.3834712516641017 0.14933249982096217
Ni 8.613977377014633 1.354729229435373 1.2618668200799927 -1.0613369868011142 0.05704095207439209 1.3722764329350174
Ni 5.913135065788447 2.775874210520571 7.489788991083643 -0.7762139875096825 -0.4973287415978468 0.38952032916260015
Ni 3.4978313310240923 0.26046549406968833 11.863374286869494 -0.14013926335746832 1.8225984667660224 0.6687231063148548
Ni 3.790196048138664 1.3671294333113424 8.043826761388809 2.6592187232779043 -2.789139651341474 1.0625068387394991
Ni 2.3151375404034957 4.447991156365479 1.0470400120483523 -0.3134251886702344 -0.3659456271664537 0.31354783029102773
Ni 2.112848201032689 5.677169480887615 12.501709329447422 -0.8726594095236262 1.0956388454067776 0.23749074212544904
Ni 5.947766600023952 7.414978755867519 11.95380673854686 0.12625402073494385 -0.8400848180217144 0.11598991980477444
Ni 4.303213906923533 7.582488166640805 6.888769565764184 -0.15183444030720947 0.43590225886124934 -0.37852217827988355
Ni 8.81134187849603 4.461624888375707 10.700496708366618 0.6121742633855328 0.9106055497500962 -1.537688097706029
Ni 9.125566940065097 3.462810261588295 3.860541467987628 -0.2602349778005002 -1.0795601946773599 0.7716531076118774
Ni 0.12131331841291468 5.168492157191716 8.264465063622904 -0.4037035626415177 -1.0257356926577366 -0.6607771119949007
Ni 7.081202737102833 3.125175989411191 0.2572332793720254 -0.08783788285059066 -0.3720126592961399 -0.1885683053931333
Ni 7.419486234613758 5.482132915960345 13.083371637706646 0.23734856012063 0.45109362188970703 -0.0889246881568662
Ni 9.187920396054732 3.6769155020346327 1.622803644417436 0.4058802585778622 0.08018550851165546 -0.492574514742313
Ni 5.9363309595010865 8.950693459076764 3.9087167701513885 -0.1124112013145806 1.5676291082398357 0.6937473962733343
Ni 5.358928496896488 0.6161881115117914 6.207891714525766 1.4245706143530434 -0.5160430301778983 0.40816005575097447
Ni 6.255833295569351 0.5181689980763523 10.904275556146162 0.0965850329156014 -0.5445455084929653 0.7786925309571621
Ni 1.8519894619036583 4.05013659715272 9.760253336266956 0.5632371713651977 -4.235447400261292 -0.35392494855649365
Ni 3.8162763572629914 2.7198924374500018 10.089392031218642 0.6624311026585559 -0.14232212994140003 -0.5278873311109941
Ni 0.009689224374887957 3.0466475479618023 6.577631106925051 -0.6089817245901641 0.38804785838213174 0.29394831089254536
Ni 3.016124682624618 3.541923005838122 12.148150487296466 -0.061661481565538974 -0.063722992080258 -0.14145078308004028
Ni 2.694192388878341 3.649026636623234 3.5298557618119264 -0.33582515363198934 -1.279614646333222 -0.38343632775204933
Ni 4.4575996913060205 1.2417083734648697 2.5449929874483153 -0.38943419720669703 0.15241062452565365 0.9218392136823865
Ni 5.29442332265762 5.253753992817585 6.375671017544968 -0.0193686343345989 -0.5761101706731239 0.7504425349725333
P 0.3397294150758192 5.599809645039103 0.6733653866613528 1.1155358414410208 -0.110640482567403 -0.8274679005886523
Ni 4.036641984856883 7.372677088045308 0.04692600712853748 0.7674706940994137 -0.3508172561654474 -0.6383311242865587
P 5.962068106663253 6.451444888649433 1.1455367698365309 0.05010103042144921 1.1718044341257625 0.1389251884447091
Ni 4.992273852297613 4.664433608013569 0.30891810819746635 0.8358358129373734 -0.06751845456694823 -0.2927216375742959
P 8.329106575181875 8.056153695548533 7.027526641432089 1.2803576951468336 2.7202541412236694 -0.10986220964048177
P 8.066504202299155 8.988218683371583 3.005776030803521 -0.4424416026416638 -0.5244687923477483 0.533461739874978
P 2.105623250532031 4.788676787611539 7.623943986599524 0.09919315996240981 1.748080183842473 -0.06034173431285092
Ni 2.139373693243065 8.811425350324665 2.9942513536634463 2.8608939983666404 -0.15211391922084125 1.064036130899832
