# total energy = -340894.1205195978 ev
CRYSTAL
PRIMVEC
9.03550024504981 0.00000000000000 0.00000000000000
0.00000000000000 9.03550024504981 0.00000000000000
0.00000000000000 0.00000000000000 13.22436793099669
PRIMCOORD
 96 1
Ni 6.558399803226951 2.095856572666615 11.437557301742933 -1.4591784342349 -0.586915231708428 0.11047027553812588
Ni 4.228071998437716 0.3402670012864173 6.1580196186144525 0.3834034176315848 0.3360241570166729 -1.0884022184490223
Ni 2.5157543414220056 1.4173266440546588 4.648630262263171 0.6225908307331665 0.047525042164156865 0.44313477205394647
Ni 3.384969467826477 4.069788104629467 4.690709490591427 -1.200345736098565 0.8546524314232443 0.2664521623548056
Ni 5.256826953188588 4.281462769559587 3.00620310342055 0.3225901429989541 1.0586113603398348 -1.0343216345545347
Ni 7.134196093718129 6.083530050801655 2.6451381876023468 -0.07907916282135413 -1.0905012670698961 -1.1958702168257147
Ni 5.263702968897463 4.757606527523583 11.572022713277638 -0.47352675408224265 -0.16240655939610096 -0.0024248073914087272
Ni 5.7738292433937595 7.811253235785346 12.535709416351908 -1.6084075757087783 0.8269750201126338 -0.7696499611389197
Ni 2.0255513450309266 6.404245133044136 0.3469189365884856 0.16361472077158917 0.4578468814531405 0.6200955751151386
Ni 2.8060378587400563 1.5993287260834037 0.38942102632958736 0.47263046752021826 -1.4602801519395108 -0.5813943018901987
Ni 0.3350444821277709 8.957162487095058 4.658270237506008 1.407646584904195 0.46183903333166915 0.5864604035591965
Ni 8.795806523193487 2.2520532659114596 1.4424615987181926 -0.8380459332148147 1.059757043908504 -0.4314563072747537
Ni 6.715545224000616 0.6820456417687542 4.88108748137461 -0.3401726319674077 0.08037371326306159 -0.6488132547648052
Ni 1.0322155513559956 7.376591459581463 2.526925833961366 -0.48009977931406994 -0.13434425394224606 0.3740451163451365
Ni 7.568894011923109 3.8859969935463763 3.6969119828524706 0.6756609710852686 -0.411608162200575 0.7151037504619232
Ni 7.713172880305922 4.166892626079247 12.435640347262073 -0.6731137791833827 -0.7533735925763992 -0.12067241288210831
Ni 8.018003553065876 8.961960337740804 6.73115043652466 -0.2448662086539138 -0.18133424953853933 1.0693544577889518
Ni 6.791344035803184 0.791299296887593 0.27487798935007096 0.839010096900297 -0.37939121114839824 0.23365079955406856
Ni 1.5108711783962958 6.540554690184862 9.333534443928247 0.9826794848982109 -0.25256434862911986 -0.7942723876732901
Ni 0.025265969417513752 4.83223072429047 1.3153031962554544 0.00841779175005002 -0.7247615852666615 0.7781996504811436
Ni 6.442736364213399 1.914071342644457 7.076253237557977 -0.8105808950253265 -0.10668046947839048 0.12703717875787154
Ni 3.4004653507972007 4.305126744778437 0.2964321752548305 -0.091327641171404 -0.04118650154063874 0.8773642711984633
Ni 5.672333468810583 5.5485922925516515 5.0216491449445035 0.6662839007457428 0.22914314149170215 -0.3849977587018982
Ni 5.1721462446162105 2.791562987300347 9.315324296675072 0.006562483708866118 0.14068690833082223 0.12259302694358887
P 0.32850006927896885 5.602949862202892 12.44042735530749 0.39471524309997824 -0.7044113037450837 -0.24879382584309412
P 4.029037998391586 6.245003476206794 12.690553495205664 0.7513043687521964 0.3201974743970614 -0.24350300975779995
P 2.5711781001056333 8.417164848691348 1.271951769488552 -0.7313096707978244 1.2061484588232712 0.18286714124329795
P 6.230935202279437 7.671790289048828 5.713032976246929 -0.2067364916617278 0.2973136278203525 0.8795324824943757
P 4.716440788273076 1.0125181607576408 12.443667485705916 1.0969416233786011 0.6866709490425271 -0.009645236399247905
P 3.836003570527707 6.102179323368171 8.27792507881161 -0.13513949615003176 0.4185740519954469 0.2321546746245163
P 4.695523605137668 0.975047941119394 3.900725762543798 0.3205502297507899 0.8986931145832265 -0.6230700843624302
P 0.16208874297383002 5.485370897131153 3.557262001260271 0.29220818827298706 0.7405296467341956 -0.41135490853918827
Ni 1.3912592257627991 0.9718584095225045 2.5453600616213494 0.7757319056669415 -0.175813062609994 0.28459592314336796
Ni 1.9478008651690715 6.380111311811015 4.691357335961107 0.2823930019547782 0.6629296395615292 0.12040784636681198
Ni 6.029904356672647 5.600492206128235 9.180911291041959 0.2489946289999905 0.9389293363954541 0.47402837630900946
Ni 8.675806044048187 2.3315656683268378 10.170517230203584 0.14289677149794744 0.22634552414190695 0.10474648568047122
Ni 2.5359577200357313 4.977205326194417 6.847881871670655 -0.5990264131496651 0.4072761104841244 0.22371477138727922
Ni 0.5070424582526174 0.0259291751376602 9.161775908560674 -0.23229557107775478 -0.37429271357956834 -0.009008117035881261
Ni 1.5621928199553123 1.0908288416365135 11.365960901118022 -0.8034041747712293 0.06170210499548728 1.2399517805259612
Ni 4.127994797397633 6.892505496876203 1.7747891059134289 0.5377598530296996 -0.5858952750843458 -1.3841109636761002
Ni 5.456755467761891 7.91961599057712 7.89059667434559 1.1762632412280645 -0.33586372017940863 0.30492512161902324
Ni 5.19065998467861 2.790379336764391 5.0288829664642485 0.5167742519169681 -0.790851020696567 0.10979664650986896
Ni 0.7340837984995365 7.362866534664535 6.93161837046435 -0.6540061118196544 -0.7371681864611305 0.4438323123416033
Ni 5.000670520407229 4.572595623903439 7.340807264294432 0.20886227975547902 -1.0288806660446215 -1.3560054636891354
Ni 8.021897853684175 7.231147011663243 8.864320011124747 -0.1906017908833943 0.28740022536138243 0.20254610772946408
Ni 4.370055849750812 0.46847623243107683 10.212808792788293 1.4911830121659544 -1.120212935201716 1.4417468690220137
Ni 7.902656356561932 7.266295107730949 4.364464682180968 0.30063600732536605 -0.54810957169514 1.615246710117799
Ni 7.277607554074592 5.9883500909103375 6.774910267903969 0.1416875816811947 0.22618662996653946 0.7620011863444103
Ni 2.4338294604333433 5.162875821334599 2.555304533223436 -0.3145942692776711 -0.5741805577505789 -0.3802152497115904
Ni 2.5686300890282316 5.22607914575455 11.342738761862595 -0.7709892487756335 -0.10297679537455813 -0.21028564246556686
Ni 1.1165980884193154 3.312703536631228 3.611548190459343 -0.872167300378556 0.2542543347370331 0.027223611602643437
Ni 3.691616276141601 2.7164689445191876 2.641858301002712 -0.7194170331252965 -1.2470045736076845 -0.33609949033929853
Ni 0.9272320736668737 3.3652088287262005 8.089451771486287 0.21356611298905157 0.19401647299189814 0.1512482287864363
Ni 3.413539719694366 2.664207610931626 7.18216737177537 0.10143490480873499 -0.33271900390283987 -0.9906347351895455
Ni 3.9566546056927687 6.942896481906949 6.082428623318197 0.212711221187924 -0.177318700621243 -0.1458954491149552
Ni 0.9896493095629453 7.408215710542124 11.530511817916647 -0.39592700401989234 0.6088909646485706 0.4203640540163341
P 9.126758827246949 5.556886881803621 7.998772394281684 -0.04918906013014109 -1.2648840249912667 0.15604565017507965
P 8.4781725465446 1.6416239028682198 8.150336586535806 -0.46554270743550147 -0.7014776750380565 -1.173174832110728
P 1.785505209238956 3.1365203167792446 10.429979752535376 0.3318121758178544 0.3179117636866783 -0.15281300217039487
P 4.007641933741629 6.111549137152802 3.83419375982273 -0.8227530116114863 0.028031709326235596 -0.4095574503191333
P 6.755238176706383 3.8993243564512263 10.355579636175296 1.3286399271919893 0.5860282011177842 -0.11343861413783043
P 6.390836450636816 7.851705170514169 10.139942904374818 -0.5085518640071758 -0.9504527636540213 1.0023368541178221
P 2.1693965094005647 8.321840320795639 5.811699735694165 1.5690357587793753 0.5818455304950044 -1.3102665668911242
P 6.766948185062102 3.9488840754567205 1.3594253511957697 1.482494483253021 -0.48078369275497196 1.2946502005101057
Ni 5.219528408055556 2.7896926387435315 0.419987220208108 -0.28829419793056155 0.0020005753697965546 -0.19363466417244718
Ni 1.542106902845155 0.9804782767843534 6.958133046019795 -0.8590071088475141 0.5767573173388196 0.20027428097615185
Ni 6.701684766579571 0.7545708918218806 9.351400338620966 0.5632788232364107 0.1557638572686027 -0.947113414868143
Ni 2.551435532005906 1.4192240991122984 9.297709588889983 -0.32071246636026707 1.5731042724217938 -1.9222220293976313
Ni 6.5513250065120365 1.9853433688095141 2.4383490176706353 -0.43828592860207743 0.17548139030218812 1.097959008899522
Ni 4.313222553024366 6.820302814182876 10.353186132152587 -0.2452716716224486 0.9167283748183825 0.32042681679904816
Ni 8.55465805636803 7.12212466535143 0.6355579928565815 -0.5085732041634144 0.15980845965162155 -0.11835507760284135
Ni 7.467452450341581 3.779748545818828 8.329618982981934 0.65440154748586 0.5107051629047527 -0.7605929931429739
Ni 3.270019833334609 8.480521776615966 12.275083121584766 -0.5050543923768785 -1.006693588424621 0.5010624976086661
Ni 0.2401482369450723 4.6874097258911895 10.321923301202903 -0.6857654065091222 0.6551762208683556 -0.06358158140638727
Ni 8.584908911286972 2.473612768141855 6.039700646070233 -0.7445678213593113 0.004796392947378836 -0.810569582171417
Ni 3.651281802916346 2.950126981617105 11.580711250341574 0.12125990995446212 -1.295170334679634 -0.7228499700662454
Ni 0.9816438563197606 3.304219201873496 12.627618525143866 0.6777988433638779 0.5260052835969328 -0.5444591194267462
Ni 3.0756481514301077 8.240565995826739 8.165557790298188 -0.39017518913777965 -0.2069483505622178 -0.6989304831361706
Ni 5.583659069116888 7.92754915981811 3.4152989315978064 1.0382816476435472 -0.3332273109978261 0.9165095739393571
Ni 3.248849656191515 8.455421156853474 3.4380711029395647 -1.187771241867664 -0.7300853114724201 0.9325427161428198
Ni 3.245633018093802 4.080937911968169 9.09335277563216 -0.5149413124732873 1.0484472753226395 0.6432406457730342
Ni 7.524448386072968 6.568953267547537 11.695181099768867 0.2561847189905265 -1.1318512907715925 -1.5107005133735918
Ni 0.5192051451720878 9.20862045973369 0.4255115250759219 0.43711813354622137 0.058867463760169575 -0.9056870294025563
Ni 4.770111659903456 0.4802296111881135 1.6769427698911143 -0.5414779253112352 -0.5099217477715089 -0.6243749192167828
Ni 6.134201136340909 5.705267867311044 0.41604774208843703 -0.8556711024957456 0.5698315367532637 0.1521000352637703
Ni 8.12117089519983 8.84316158013201 11.353940071552863 -0.3902448660334505 0.7941978256816128 -0.3329923121688846
Ni 9.362495029407993 5.002305945956909 5.737696277796135 -0.8335806983546096 -1.1243503544088573 0.19114583631232243
Ni 8.054949713688204 8.936010380952512 2.575750063244518 -0.1336953075043375 -0.060813788853263 -0.6859443552891477
P 8.470257448304162 1.6998486666369352 3.8193430115716036 -0.3418052824748242 0.6207108401016342 -1.070348703381421
P 1.8309628111198384 3.079867730058288 1.45200941185823 -0.24786180094712792 1.353642619883914 1.2037696741784492
P 4.610029701540587 1.0606502707197678 8.137456480894542 0.4025900178623647 -0.0871403425629338 0.030717226578198715
P 8.506797011414138 1.7621665120299876 12.269066381951992 0.17618612967869657 -1.1147562829625188 2.054026290526843
P 6.583265499982305 7.806482491640423 1.333426602705996 -0.7411716511935688 0.12595474432697015 0.51959732318806
P 1.5839322336156987 3.032819880129098 5.780304986440475 1.9363438135109945 0.7441245631743055 1.1536105368255554
P 6.782317571028984 3.9492454954676997 6.029253800652886 0.6251735038586782 -0.4889297189008741 0.03484333293143032
P 2.3702737515026873 8.377381540982835 10.194942898095572 0.18601931371903446 0.5331169549410496 0.5227533523185384
