# total energy = -340854.0502651277 ev
CRYSTAL
PRIMVEC
9.42585603472326 0.00000000000000 0.00000000000000
0.00000000000000 9.42585603472326 0.00000000000000
0.00000000000000 0.00000000000000 13.79569308694129
PRIMCOORD
 96 1
Ni 3.9781824318961876 6.411627341019142 11.29360889695421 -2.4973826916732924 -1.0861746146700841 -1.1852261068483072
Ni -0.25174481358331996 8.15188539023432 3.9248471695513434 -0.5590861253113016 1.955500846055419 -0.08685417878108267
Ni 4.268564770906793 5.629102220029711 2.385979127172239 -1.0052082621283462 0.25024495646732386 -0.599633964826677
Ni 5.406831114884482 0.7694194111130935 12.527509973674508 0.8186145639630805 -0.5150724387345129 0.2973948746802491
Ni 7.358190630145736 4.740178038997052 6.659291701635355 0.17976716216173558 -0.6357296821079697 0.9794684341600808
Ni 2.0408957193142863 7.262866950643862 5.328986742340808 -0.17652962906104439 -0.9164697218403571 -1.5080792737006607
Ni 4.228401199428746 8.683503656219262 5.5592368344037 0.6488294527147214 -4.3135374596965 0.4153244347098976
Ni 1.1085371948479636 2.4465657003685406 0.24807532792821468 -0.3972045851807353 1.1895494168140093 0.5291443434465467
Ni 5.860290184742701 5.404239004545016 12.04644068706588 0.22635555144423597 1.8612835420410463 4.367141618175202
Ni 3.036935325429443 2.2704058816984594 9.283631869769069 -0.020364936809597185 3.034772562958083 1.6337136585737346
Ni 0.1920216487764548 5.722889485039466 13.426561294157066 -0.29605147327847725 -1.5935661398205716 1.6098548496782663
Ni 4.710467741578886 3.354822311605723 3.262929643607723 -1.4354844330520697 -0.858223179493638 0.09540541078520344
Ni 7.966205457226565 7.803600019167943 12.743371496889424 0.7147162852155176 0.6633343311991157 -0.44184999180425194
Ni 9.290990635376417 4.086136758143095 10.73176568182552 -1.161616180738851 0.19480605877272902 1.048468101258246
Ni 8.773850483869364 6.193013467916505 5.515669586403541 0.6671187379422123 0.47778990023397067 -0.09985110526138288
Ni 2.9407727447631595 8.244758347233427 3.1473629962329897 0.00031341747536075057 -0.00988306344166685 0.15721293101030345
Ni 4.969895570208382 4.015141212409077 10.645418244782821 -3.2548854759267174 -2.7575675329621476 -0.5471176400955159
Ni 0.6708654908354559 6.325418464056407 3.5030165587624937 1.6009734880282362 -3.371092396838304 -0.5616618564582779
Ni 5.004309369660705 8.649485742709693 0.8012203633432354 0.4684279994030965 -0.2733378337310454 0.2343164581625255
Ni 5.747849151144575 0.941737250967298 5.385700231397158 0.8947325872735816 1.371624401173315 0.7305936185674062
Ni 7.211524314210883 1.48544888991782 1.0767569795005376 1.2872323107794799 -1.552083961416385 -2.2093360909771627
Ni 2.879080518683879 4.379912405234455 13.120917552053266 1.1549421111527851 0.9803158697620407 -0.8794856884168403
Ni 6.562120554400624 7.692440901955879 4.911790824838922 -0.12425498802704407 -1.11980155869591 1.2156792811318418
Ni 9.055579887274043 3.8780421400907974 4.0287285835157665 -0.4518811507880089 0.5482754078490428 -1.4159332503930195
P 4.617858708541616 6.7051767675717855 4.267932295983964 -1.092798547744505 0.7120266541984964 0.235023254421563
P 1.634895833307736 3.1340876209526134 11.875870400873263 -1.1989776521064446 -1.074711351225491 0.060055570530999795
P 9.311030004764431 1.7724567725592297 8.944782722923925 1.455983838557002 0.233061759819818 0.38413283959844163
P 8.291454036766927 0.567283819084833 12.659369212764757 -0.11614238622223867 0.8294072837032103 0.6332310840558321
P 3.3414281705425206 4.8246525584962905 9.395970161539196 -0.12145351402250695 -0.4394804631308108 -0.5336527728398616
P 1.963631979486652 8.771428038933935 0.4962458569998061 0.19034750878074314 -0.14798087088907416 0.49351168184460165
P 1.4976742248643178 0.7230262915501275 4.046746106838997 3.222385703526798 -1.4586822113247717 0.927910359577131
P 3.9278954913105553 3.205969197129939 5.424355665950425 -0.44402360241680305 1.0887349191980928 -0.26210442690907115
Ni 0.07794617178609722 7.2900605445688 1.5789995659475 -0.7370098065063952 -1.0383055589029473 -0.9826751140228366
Ni 8.174705387077397 2.963309965932841 12.94582285508631 0.4897822967091565 -0.45706346631989675 -0.43712713240728585
Ni 7.70744686435744 5.8917631171917035 3.0131586042247087 1.9557929233745412 0.9145403660281282 -0.2758400313276088
Ni 6.774362548996067 1.970937017716055 10.941074350102266 0.11287759942803785 0.3886399834401758 -0.3988403210119454
Ni 9.679128524680104 7.610492511805647 8.448744234751278 -1.8560454335705585 1.6068304610296456 -0.6125635284041515
Ni 9.278868984843498 1.6536815638770268 11.035919196130523 1.0606877832528896 3.153269822565744 1.7983606772645802
Ni 6.9015550468896985 8.654811351225323 7.469195163323011 0.12559324722249338 -0.13028191094741434 -0.49879941260610233
Ni 6.636547111638516 0.15079107042412618 3.415993287860377 3.754863739332269 -1.971225455879528 -1.5080383931603962
Ni 4.803793139655427 1.6940619300380104 1.0053542367968293 3.5192159639528295 0.1893128968686417 -0.7790946514915873
Ni 2.454587103637214 4.836001288855259 4.001109883495155 2.1549150930241208 -0.43320877118948614 -1.6711514917052188
Ni 4.010993835865932 7.157476457169081 9.137521679325229 0.16117551520247728 -0.1287245937626235 -1.9676819615026435
Ni 6.630731358622334 6.648451967488499 8.918445939289377 0.35198942209667766 2.8652764437050524 -0.5415702279147254
Ni 1.5220023586321747 0.08458951493975303 10.007478210772044 -1.8577842706385361 3.690271971493812 -1.2582973729126847
Ni 8.249951993768137 6.94659178580594 10.403207684320845 1.7128956655215404 0.2343611953575319 0.7153426059456067
Ni 3.9913974816995723 0.22542688166033137 9.924180038074136 2.225503187655329 -2.4314266964974576 1.6461891653329264
Ni 3.286202081528234 3.3020375192384237 1.1053691647203476 -0.0636671991416581 0.1715316616258207 2.536717484717173
Ni 6.194455623850826 3.9532698950699783 13.902885604966107 -1.0702633427564665 -1.1901068319793762 -0.9803654920530535
Ni 1.9025053047541631 2.7411896744800894 3.1570197854794713 0.14582294400580692 0.14561597020132339 -0.3481440802086585
Ni 1.2585779671520119 0.66453131575138 12.576181322579473 0.17250842371679323 -1.189882374673396 0.4433363465417913
Ni 3.111211068974857 5.261041403537157 6.99619629443311 -0.7747600286719754 0.7276995848490628 1.8774861199428374
Ni 7.993351921872605 0.13571347151863833 5.264560075499784 1.1555946571351197 1.408852432286838 2.0570599351468446
Ni 8.19772332689185 4.109390344352046 1.2790867441578635 1.3855219850910139 -0.13349784678155072 0.8172966164826053
Ni 0.3591232200420765 1.1076700161162152 6.935991468395894 0.9838326246660476 -1.1359324028195017 0.10809071956235577
Ni 0.780682366184466 3.8600764589743557 8.650781797879427 -0.269486064085123 -0.8169783139112382 -0.9083908014869646
P 6.504076134508155 8.498247886721602 10.447588383674807 0.9270652379680163 0.3617233615549899 -2.0872164041255665
P 1.4899355972690402 4.612665062006904 1.5608170901481215 -2.475714976891872 -3.541921890190777 1.3715153863992766
P 2.3952984707818015 7.8908645919780245 10.452899853406766 1.3469916902262995 -3.8869233110053965 1.5646764533694149
P 6.177036642369617 3.0513568847726518 9.05935588509946 0.056741161445786156 -0.5310914398705886 -0.5567636478257121
P 8.709434185469698 5.513569505735785 8.503872294865452 -0.2120843862372025 0.3219787346672003 0.3080209869355276
P 6.1515397024850555 4.688458368332879 2.04769458908831 0.6843780392432923 0.077861231253853 0.929326008977735
P 3.0584262766075576 0.623700393684118 8.16902253862771 -0.8914081508860391 -0.7432169637583717 -3.2201701839327184
P 4.072770894647232 6.522136074182396 13.366729732008732 0.6556719295578515 0.07018777386899526 1.4388294382649027
Ni 7.002779312109774 6.413776436136954 0.5550273788142617 -0.15228335491917 -0.5904893222129314 0.24385165134647033
Ni 9.330862005325288 1.3801149515777182 3.173588554769335 -3.379111153377722 1.3274086258880493 -0.33668107387438145
Ni -0.01513603921132306 3.266803670333252 6.1461877015732425 0.16042475307938178 0.7676061912360135 0.8041649641966537
Ni 1.1722088506410184 7.463995861274832 12.425077313743454 0.6938376419942953 1.7412827013046657 -0.29949263774954227
Ni 4.994006909293302 5.1173913614518645 5.810980705401443 -0.16195815900477267 0.9110277248891794 -0.04911475524877993
Ni 5.408301548386142 5.065813078624388 8.13863075183666 -2.0322199932850293 -2.7611161695453545 0.8349660087379103
Ni 5.939090339062456 7.293293613101299 2.6212503726090715 -0.9403133612271741 0.43134472139755387 -0.102788590623152
Ni 5.175313245219195 0.911076827286521 7.835277492687369 0.41352389116604915 0.739508404558533 -0.19655620869461632
Ni 1.6076551101038974 5.335533941765508 11.552457978038822 0.2793853254767059 0.893329536278468 -1.6824365777007346
Ni 3.4066079632603556 1.1753382347599368 5.5725216355398555 -2.503862128750049 1.7931652491065697 0.31124309341725104
Ni 2.2875892167851712 6.274829896085818 0.9846616556032701 1.4785709798288986 3.552485524639237 -1.0932109526915752
Ni 3.035238671389066 0.9493816200047765 1.833227149943239 -2.850288712046969 -1.5749009593109005 1.1955907379120827
Ni 5.498261915949268 7.930547444811299 12.088020022082064 1.9845964778697947 -1.2683560427002671 1.1447931956442414
Ni 0.07233495984033772 0.06587165053207752 1.333530487142421 -0.4575872000338506 1.5672043619975913 -1.3554935570497235
Ni 6.888132628259157 2.487747264270814 2.9490910624888995 0.6051770061320932 1.342809790934468 1.5067551555725986
Ni 8.49005681804889 9.416750403191507 9.976907332721177 -1.8916945502327356 -2.273278912377711 -1.2825104798237783
Ni 3.2525423505383007 1.6064391747082938 11.543904956504162 -0.4292986375018026 1.2220386476909664 1.2245660420985103
Ni 1.5286947162358857 6.0460266728851355 9.194774327332189 1.6936512154696315 -0.6588328437843364 0.8319750444303866
Ni 2.3885966873223103 2.9857717802562824 7.227812192998507 0.06867262277604948 -0.47779452821966095 -2.103173955896087
Ni 3.54037970848834 8.661513134684814 12.699983340149082 -3.0926321542790287 0.37038000878872346 -0.10621818512999125
Ni 7.741719275973065 2.2025679976507 7.755399963051976 -2.1596163551545327 0.14064294246676423 -1.5479390860100761
Ni 2.3082601185104368 8.275090751133064 7.211684553759142 0.3307107152235595 1.1756855143477236 1.8471095645335094
Ni 6.919388766025222 4.850177775948192 10.306679380450301 3.407603347280144 -1.0743606527542915 -2.591842964936407
Ni 6.490597160742934 4.621186035631911 4.34916149333819 1.3608522502584757 -1.3310945593800687 -0.12381918604120612
P 0.19934271096068362 8.309711919412544 6.409795897241112 -0.6074773721304958 -0.1868595502321427 -1.2002601183632942
P 8.04634408306706 5.591785256997186 12.09653251243687 -0.6388211765490999 -0.4834126457373869 0.4635413607347565
P 1.4664934939444916 5.1883869071858815 5.687191884029924 -3.204372811889146 -0.6222694428380057 1.2643656905939515
P 7.233901295832307 2.6444615424670137 5.196134018051361 1.3816586454808657 0.5761441092348529 0.33477640065250086
P 5.257563262754383 7.036542727513287 7.1628199748106915 0.15050877951725045 0.958144218761008 -0.46960170799622347
P 7.443202423424427 8.435009820294422 1.6693756137505185 1.1205595199078573 0.13497545976834174 -1.117789413361888
P 4.8849026286412505 0.8823986610762516 3.217334894029312 -4.292289863171633 1.8798065405458981 -0.40841768028773534
P 4.688100185813243 2.6745300224048143 12.844259259058159 -0.4444982280603765 1.9422750913937645 -0.23666644645194082
