# total energy = -340869.039591439 ev
CRYSTAL
PRIMVEC
9.23583792460017 0.00000000000000 0.00000000000000
0.00000000000000 9.23583792460017 0.00000000000000
0.00000000000000 0.00000000000000 13.51758237545501
PRIMCOORD
 96 1
Ni 6.762969914262532 2.497305882020543 0.31091616625773516 -0.05256954656659978 -0.013627360975447499 -0.7056881135749782
Ni 1.4316933918459964 8.770453140175263 13.197377670624837 -0.4766179914130566 -0.3550446639832337 0.11940100236885243
Ni 1.7275819264689052 3.885960269860461 4.72313816656197 1.9091682815374664 -0.05559779186996231 -0.5317835808416067
Ni 5.847421316167551 0.5867269131534303 6.639254943755702 -0.005845917257815739 0.7411017171875817 -0.5628913579900048
Ni 2.848184594723322 1.300775391462698 3.831179745297959 0.0019380975629773073 0.04745150861374408 0.053153958315160066
Ni 3.351454630623591 0.3794617834319662 6.2688193445759115 1.2327516632330964 0.19436125792582656 -0.21712220577142605
Ni 4.091032811695435 2.0931179137119518 7.935225852410683 0.2746149006712561 -0.9793131395291392 0.2659135162425162
Ni 1.4896852172009685 4.387928052635224 12.869806518117281 -0.9385806948067835 -0.6073645007017152 0.36315880844993587
Ni 6.7601899270939 5.763846220190939 11.366988863191796 0.38024096074320324 0.3896864224268192 -1.4844613771714048
Ni 3.5709073718657462 7.937426752551165 0.6780434883484742 -0.8167230033673224 -1.2174520567615483 -1.2154088010792747
Ni 6.637658067405348 1.510013296131737 11.34185999578842 -0.7521003822909306 1.3689255141849135 -0.1246311404195402
Ni 2.3463368778395632 7.310008585352675 7.9578277946003135 0.25769781320094326 2.1501233280624326 0.1537493979417352
Ni 7.1445762592245865 4.1759748116619395 9.2076222851589 -0.07113034028792267 1.0187394638455616 0.7813405101029705
Ni 3.5923714588421682 5.09417409519678 0.11599196296393693 -0.2810012638135741 0.6831693636471718 0.6622606385189627
Ni 1.1618683914087433 6.2601247268996625 3.97816995056782 -0.48519981954479663 1.189624235916003 -1.85961566742032
Ni 7.301012879365138 8.659558436076338 3.7035746399225964 -1.0152155098527031 0.39182378048479616 2.5491454260678807
Ni 4.271833571872045 1.3886451520021477 10.219643826675663 0.27814605375296614 -0.1838495597612253 0.7775859281565447
Ni 4.635605514101108 4.357717627291042 8.641371224340551 0.9428289285601763 -1.6370488935945549 -0.12302368672310426
Ni 3.022418674245786 4.744145079568799 2.5023338721022834 -0.36094457440743644 0.4587462533389583 0.5890657023925274
Ni 1.7641189006852247 1.8972350304576746 13.68060409139764 1.7868146242981937 1.0533542257059536 -0.9882212406520464
Ni 5.786418607699707 7.496923470132724 6.105094724851413 0.52654341548859 1.4790319786257171 -0.6062219024568398
Ni 9.051933767877681 2.7774380774086085 1.2559335519240038 -0.02505257209325363 1.0111356833563747 0.9369179623923799
Ni 1.3315676745863605 1.1704946638854985 7.40616196878763 0.19295280761407416 -1.0818387062988917 0.17460490123450573
Ni 7.422177835063796 5.998140952728752 1.8560995326158989 0.477484710288726 -0.8581460463987995 0.9958419904220979
P 6.188149843161599 2.2629095552672642 9.260490067719328 -4.000982589446361 1.064016076295174 0.17054410090157082
P 6.574928257274599 2.298162748033617 4.800255564770115 0.27586677080048616 0.5564206626639966 0.7405957240854407
P 8.1721093902753 0.6855873206386384 1.7564743977633723 0.2105895468592309 -0.58308043134337 -1.2916623215263754
P 8.182702896196968 4.224315186547736 7.290599472279975 0.47052833357555096 1.4311696077268 0.19241107617799122
P 1.0482306434922635 2.8125434967706484 10.793207823839937 -0.46918698905630807 -1.8707444303436298 2.2140939173771224
P 1.0200982816462298 1.8023183257000623 5.01833493693594 -0.14595252760513572 -0.27451514186859816 1.344001497249724
P 1.9306041123190403 2.9404044348522276 2.198837777908601 -0.7222835560398142 -1.0187304649844973 0.1536925765618708
P 2.4256819601177226 6.922980803619897 12.334753193700678 -0.005227052726894224 -0.1264658796354338 -0.4890770431120157
Ni 4.262773215020121 7.894941898811259 10.385017967025803 -1.5860343502199006 0.2420552215676799 -1.8479657418862174
Ni 3.020035828101243 3.876696724577607 11.189948936154947 0.25237562965708144 -0.6523773179669797 0.03961375773688016
Ni 8.837320605626768 7.786448512532415 2.179236559410296 1.76036671451931 0.29458054515990556 -1.3046325085337984
Ni 6.409301978553351 2.970143832470162 7.001513132174337 0.1545711225120822 -0.1643459425106589 0.27286809318347843
Ni 4.64935767653996 2.966061592176023 3.6415421355434487 0.7125511592433985 0.3477761553462785 0.34596095651441067
Ni 9.012284316333027 0.860008887667824 10.208626395800374 1.3569526580937534 -0.09839020444514023 1.9577101950019125
Ni 7.458391554958181 7.2581955354655285 13.206299489910217 4.39668333638806 1.0527176205632192 -1.1832507282894913
Ni 5.610808388349581 6.723154217638024 4.029632038619724 0.6618451482480989 0.22454138105363264 -0.49264187764513867
Ni 9.24839850891144 8.310046627363453 8.694076456156235 0.14484206814977635 -0.7124467724550505 -1.0343175207894766
Ni 2.8049239306107743 5.536192055009428 9.561580226174046 -0.3679893970693598 0.8131692245777932 -0.05623516834364508
Ni 6.123896119798876 5.1322534543206135 13.633563198886018 -0.4867581651708521 -1.720177543894934 -0.4478661160913448
Ni 6.500376574798833 5.993883231516993 7.604045334502789 1.3106278068852848 -0.6312078829782162 0.3287024265442791
Ni 3.8635818349448536 2.2299283785922195 1.4857313550518265 0.3044466393207079 -0.02145945542535659 -0.29331607662518516
Ni 0.2000842658556429 6.418408514594121 12.148764663448913 -0.05202781513051685 0.705281879275495 0.8389314211435615
Ni 4.255550789884337 6.042759284993424 11.599842805037563 0.7927286973352541 -1.044011351038473 0.4980419656147874
Ni 0.6486458167280129 5.697893102678619 8.095896180584793 -1.0121250438528377 -0.6407700727453546 0.45998192551827227
Ni 8.88273321993962 1.4582371895956685 13.00022393609347 -0.8822102864368547 -1.5259265862947269 -1.9479603147039999
Ni 6.1588445299188335 4.760067663883495 5.344392335633066 -0.2963283810889477 0.3031348624878199 0.2626880673266831
Ni 8.225446353394421 0.9465810130006527 6.039330942013369 0.6756501724519913 0.20688690119666306 -0.205889056059768
Ni 8.24798179755211 3.9656932573249417 12.188614532673169 -1.294157062923771 -1.3579502461203323 2.781875513579893
Ni 2.0829584921654525 0.8178103448987735 11.32604454719185 -1.6642375381942047 0.36935670973053164 -2.052518081412433
Ni 8.926455675940646 6.770247754424934 5.864427264252614 -0.9175184748198456 0.014337242558278536 0.355986973291845
Ni 2.179112799184184 2.9915432685821974 9.08604541109572 1.716583913006405 -0.5124527417234788 -1.1503622050915865
Ni 1.5274597936784071 7.650580103104641 10.465596033646197 0.41215555006361276 -0.04166395539768953 -0.22583233195091426
P 5.723771920108884 3.5789887299140983 1.8913804328955601 -1.5445573140220368 0.47005036549786794 -3.2109247540750507
P 4.089139464952678 5.11022598124025 4.432360744560728 -0.5061715367004573 0.29900541370047856 0.8477644460541593
P 6.268261499974631 3.599677006517879 11.272906154584774 -0.5492439424098993 1.221947887749373 1.6741758803538396
P 3.6126718302596283 1.0677644403748507 12.587734796797612 1.6093624834228797 0.8968180090477007 1.5240939039613624
P 9.013983710482623 5.1114543476635985 0.601078481463526 -0.18370686353577395 -0.09904969240601007 0.14508040941282757
P 7.577081306134604 8.383877914493194 7.229662338260296 -0.3179235907612202 -0.45430904350321116 -0.5018996487979808
P 5.289770667480202 0.43495346750272257 4.457085082269799 -0.8494572603755499 -0.7743661356676664 0.9055037097471565
P 2.177274867468044 8.017021202449103 2.3432456429380966 -0.3399630870597629 -1.1336742029129443 0.9482827525858958
Ni 6.449551759553027 8.21428946136881 1.7805356023205905 1.5492752883229963 -0.9604924072782105 -1.1340310720317308
Ni 0.29916633344732013 4.716991716526338 10.679876705737408 1.2235874802353248 1.1713526913003247 -3.334088051699813
Ni 4.551873408882415 3.207818881631629 12.846474944743859 1.159276733972397 -1.3385078211250045 -0.9111004871086438
Ni 7.553354438904642 1.1146363170552909 8.518063554279358 1.4064196544756293 -2.2195004331046744 -2.2373197206742823
Ni 3.354668702167393 7.556531567097366 4.172593571454509 -1.2271672271667833 -0.7363652309438609 1.1075371395062603
Ni 5.173546884988249 0.23199593251697428 0.411142554149059 -0.4272425263037223 3.319360001461019 1.839439449582761
Ni 4.183714443712817 3.1625817482363985 5.9146720688864916 -0.9218636391624188 1.0579647278947717 0.16176455493672784
Ni 6.963184405430726 8.099922082268538 9.494695212630779 -0.17275730650280569 -0.46821202673754847 1.0592165980240016
Ni 5.332033861113639 8.893271310834672 11.975022854079567 1.4082366530797101 -1.1417590368036077 -2.322684716504348
Ni 4.980933488304391 8.255407411118826 8.216580872719435 -0.6031062396459936 -0.45862335460784887 -0.6627386065966456
Ni 0.2903377961234122 4.325900166174961 3.045186861515268 -0.26971797759027094 0.5796156127232212 -1.5187295543256554
Ni 0.2696790742004943 8.594999930067221 4.286763303626515 1.7769649851976235 0.7420147159201543 1.049619698364186
Ni 2.1857533665404865 6.028286727208547 5.936233132159494 -0.9158724545759903 -1.2768411973531428 -0.09251523372160196
Ni 1.581323199550393 6.523743244355781 0.7444269959008547 -0.7866423819318582 -0.730349106656768 1.698074284237992
Ni 1.2291329978843386 0.6038150601946422 2.031219328980462 -0.9608227940344355 0.8072083790086678 0.4974020180379433
Ni 8.55829671077105 1.7353400301953228 3.618156994310961 -0.3589841082469559 -0.36665036654296207 -0.05156861610591119
Ni 4.51766386578402 8.808892696972109 2.6862812822069775 -1.2216421835834959 0.6689503918343124 0.3707996128246453
Ni 8.434351767903758 3.5227147703842614 5.2310473637738815 -0.05552348698860115 0.36412811434174064 0.46587617951552024
Ni 4.925850951846825 6.187549513706579 1.9942214864594423 -0.8296628513574421 -0.2662138210917544 -0.9630046321771029
Ni 0.9279707998950197 3.461342628405636 6.820985752795706 0.6879894107436344 -0.03274891229624683 0.4071239011769763
Ni 7.202919046414802 3.9173805899524528 3.229837118874224 0.417604488993326 -0.614018001462491 0.5737480981988505
Ni 6.163157666157211 1.293063466925128 2.287837081407266 0.23067191943140275 1.0260794491504008 1.5354972607022974
Ni 4.157530843636158 6.0012903734081675 6.89302066947927 1.4831308312854392 -0.4979077540297682 0.21845737964308184
Ni 9.16562693082078 2.7711207643742397 8.873522318932054 -0.9794311531642421 0.7954476389283139 -0.365308507803087
P 3.112292611581227 0.03502876190855279 8.784752064210073 -0.3483759937138065 0.7491839799750839 0.21064379713593404
P 7.6728292362914745 5.943150774648882 4.105993021714544 1.0789798966938577 0.4485040067856598 0.2678403009515839
P 5.413992685480579 6.127091719667138 9.474175951858182 -0.4670383181444215 1.4599592782649824 1.2009882547785702
P 7.832184381167202 9.17898195223554 11.745967612308416 0.7643671154734255 -2.6867984326683856 1.1335929560530476
P 2.7202774774528953 4.421029295201272 7.584039586310179 0.26067412222044783 0.750305752284353 -0.6829695889315398
P 1.9155589325924518 8.164332814873344 5.825334733725461 -1.3219146926530139 -0.560944518676279 -0.24859765067188797
P 8.552219529518688 6.615796839404835 10.109232156892086 1.098216890546599 0.5626676720149729 -0.39461034209099777
P 5.612406188283712 7.215960049345399 13.614773810527655 -4.682515188821058 -0.3899530458246445 -0.14767490961288116
