# total energy = -340869.1890642509 ev
CRYSTAL
PRIMVEC
9.21668353175860 0.00000000000000 0.00000000000000
0.00000000000000 9.21668353175860 0.00000000000000
0.00000000000000 0.00000000000000 13.48954798537508
PRIMCOORD
 96 1
Ni 8.213825537719584 4.180328262643623 4.0570624918867715 0.03392159244810932 -0.43301491001112524 -0.6411446824759539
Ni 5.273675796520268 7.968412901603579 2.680953554652865 -1.1853274083128618 -0.838486106076027 -0.6069356406944127
Ni 2.6613911435605075 3.0257542991384567 8.918345150881152 -0.3639404238109668 0.5021251345452256 -2.509292555737001
Ni 5.513180538402963 1.5361170174464398 13.280905683073941 -0.3170010789469508 0.7539263797560758 -0.5668837669788495
Ni 6.531273850103352 0.06440249882165482 8.782707825632299 1.148139486408655 -0.18114835877997834 0.5841852343717745
Ni 1.7159990326594223 5.060189752641684 8.18324550296654 1.460849908400052 0.44505847143922056 0.7603425676950648
Ni 8.741646578208242 4.875985112786857 8.021830035157398 -0.7320313794551973 -1.4221226670331832 -1.0461600219503595
Ni 4.133313959236264 7.370987466029181 12.112063371577218 -0.44741720147938424 0.506174879134567 -0.8732247951087928
Ni 2.436245994837715 0.0676559881576277 8.257883129005187 0.4469518318071915 0.29835209638719584 0.2076410057538682
Ni 4.609457054379877 8.08881044040192 8.099718385526916 -0.14095584572149272 0.11868803546222784 0.19595817009930125
Ni 8.195816137825844 7.084284087065701 7.219984085763518 1.3520210251200908 -0.09868099621268166 0.9657657398620078
Ni 1.8101843230965524 6.741948805462185 11.704328345978812 0.5204861535509165 0.1832839170657424 -0.5712811247155968
Ni 1.4792039957760925 0.9096074148788517 1.1536062117196784 -0.5517505108818368 0.028871945839343823 -0.23225340498590968
Ni 4.315020877816166 3.3651955420691806 1.5811912089409876 0.13119593812125147 0.0024710872483118735 0.5858703353836814
Ni 7.868282850198454 7.469900915189694 9.930088167532007 -0.5772370851887156 -0.4046042200789161 0.003853569418135299
Ni 0.5374607699404798 1.4062631612013348 9.786424032473809 0.532499890182341 1.1801301803826383 0.42650436258611707
Ni 6.956946385462864 4.539225924804485 11.365389412308176 0.6080661547544302 0.612442686555571 -1.2628184007114895
Ni 7.63209611443743 5.935590367742832 5.425752920433639 0.07616198917455916 0.0569224242186568 -0.6436569073748464
Ni 3.2809089698950387 0.5833534029450401 12.491591658467943 1.4850830699158037 0.14750393125265565 2.4813575198896296
Ni 3.598902989922621 4.977746517201805 5.335359373658886 -1.3393434296524225 -1.3700699122020017 -0.5423071060807498
Ni 3.317526854121158 6.465604978945259 7.062506906887126 -0.6289998195833039 0.18487414437099772 -0.17652757217851534
Ni 3.492348909998591 1.1950352048222226 2.3229268690989424 -0.04872729000237415 -0.5388656844993688 -0.14917154876306565
Ni 7.097897128848227 7.270875847991397 1.0600900525170853 1.3095456295646997 1.0942859309233088 1.5474603466014445
Ni 3.2248623164897943 5.1538773421605635 12.895832639286557 -0.5526054026829644 0.01294036221075191 -0.3111482197105996
P 8.252194591843255 6.379622536975595 3.097834295458314 -1.287122267564177 0.4605321415947875 0.660845760449307
P 2.7830513680218165 0.38540392273118607 4.1594073123781135 -0.45857244676525544 0.0011168872132625925 0.3062081020965049
P 5.318164728601687 0.8980174351621777 7.1528331718710785 -1.1052141478000386 0.9341254872489073 -0.3765144038212354
P 9.062866437520782 2.4359510609602326 1.1734921284088997 -0.14252216176734808 0.4996928709546491 -0.008108745150063454
P 6.018881538080471 2.5499798713416966 10.922824539115885 0.44478824849696946 -1.7297191648367825 -0.6745209439435546
P 5.598997080066543 8.710936588215432 13.553353617403006 0.25948755811151436 -1.6612820551103067 0.4810747416328296
P 8.621838907164864 5.516480111157292 10.095105515319899 1.1698054014178627 -0.7810286352895065 0.6302267500118693
P 7.416287466273676 3.7876145880927194 6.496471652560481 -0.35666934407085027 0.31504164122773487 -0.6566751740113852
Ni 4.502681774047735 0.9774661700772481 9.227323410941459 -0.564455617153331 1.8893751580709395 0.3661209764020533
Ni 1.3285388678011667 3.614055217878257 12.978874037496704 -0.3765871660406998 -0.9060966061361493 -0.08431804262279027
Ni 8.823831746505324 2.336927011595664 5.35535036054196 -0.3422508546526751 0.5939502841783384 -0.293583728464275
Ni 2.8393192218351717 7.988191904762213 1.5307943826262576 0.960297517658585 -0.3022743142597375 1.4544085236500823
Ni 0.9907381945639365 1.1447397620278768 12.118430256657362 -0.1607098884199684 0.4016813900051663 -0.020191901566842644
Ni 1.3735623675355224 1.1553205148825423 6.411447745692634 -0.3259742289798386 -0.9254199890551095 -0.32549291846804584
Ni 7.550371780323913 1.520669855613322 6.9849282370889645 -0.5841194141308457 -0.09921167190517108 1.3684195210827725
Ni 0.3453297821283245 8.539395671724986 3.209554326580114 0.40750596710674336 1.3360652731217828 -1.8444356172457717
Ni 5.354644362572738 0.42138124744214966 4.4734575134627415 -0.8458502597505819 -0.19799782623714934 -1.1946160327036393
Ni 7.805093266947943 2.6900642464619566 9.14911063330671 -0.5860814229532229 0.007366981888032474 0.19184800458566958
Ni 2.7104239006918833 7.309853203237373 4.0806019019833 2.425574094371423 0.8405545585692814 0.2787021833667523
Ni 5.239297566426277 6.55031551856828 5.429057101529804 0.32088627293396993 2.8348206983183566 0.9599370489953726
Ni 8.995169895955 3.55496705886148 11.010600547727986 1.6745420054440066 -0.02229789216625192 0.21392992408637349
Ni 1.0515683067945911 8.397919577370358 9.887960549807177 0.40488704142665755 -1.591015862594892 1.2721116530879573
Ni 1.051245722866095 8.09015607621793 5.223584964103424 -0.9259658342562505 1.145402804203782 3.1778027747101016
Ni 6.533467420817123 8.601451602883925 6.264168827298548 0.30855757616528795 -0.18428690440896006 -0.637475975375115
Ni 8.200313879457443 0.4598977685045596 1.1247414017978656 -0.3448996051294318 -0.28458949538546474 0.3130796324053576
Ni 7.354471168890191 8.230175934552491 3.6953675662316665 -0.7807149607038296 -0.5362992093237732 0.6787005292425409
Ni 5.840621659193639 2.372097876485388 5.548332048256977 0.4803358065842759 1.738292251217774 0.5881213362013871
Ni 0.3460274850822428 7.542583682621655 0.8854283669355336 0.24776821279205716 -0.026254819931470913 1.3651992143732616
Ni 5.881525301326919 0.8828900922524545 2.1136233562704 0.21262997432802735 0.5907430900949503 -0.7344129923134964
Ni 2.9790994463942786 2.2045017006062637 10.833483537616395 0.2265069894204357 0.3220358131573809 2.4677764387710854
Ni 4.891432274619975 6.452250004305529 0.6504213666844381 -0.5697266357442833 0.29542746654123314 0.2512253181027222
Ni 6.639053748955666 5.490461413153182 8.934316742015168 -0.23936970431571677 -0.5323119425412509 0.2973737916343266
P 5.378478706546749 6.156219341466681 10.604713467205675 -0.4917905853884369 0.9801328072169571 0.5378526698538221
P 7.191796702091548 5.1992695092417724 13.333541241852434 -0.536267070534257 -1.0885122616643255 3.005370455646882
P 1.2388605356793079 7.649119329178342 7.558018862766 0.5363709431019731 -1.1799275774535292 -0.07706881725954469
P 5.811432422006597 2.753097146090054 3.405571068228094 -0.25880081645713493 -0.6621847909757047 -1.2400577099762062
P 1.9353653207203025 8.376684338191657 13.21893454540478 -1.4578183206625794 -0.058398237433234905 -1.513906164795083
P 1.3507602921326982 5.503761087690883 0.6457853747977687 -0.7966069493437378 0.07677519727852584 -0.34673742966911897
P 7.996293369709297 0.2818544816840036 10.466230030039123 0.4286520050567392 0.7778273547433894 0.7098245043408549
P 2.755963534711832 4.781477238421231 10.642228134753015 -0.775834749793393 0.15088621746132724 -0.22066004372135545
Ni 3.0919485212658144 5.411778584651197 1.821075678190941 1.634317867816637 1.0834433317818501 0.9149573989608888
Ni 8.797140230593206 9.06650702757095 8.117537921737028 1.0584038723147189 1.198080594213472 -0.00783440844275425
Ni 6.56612213106458 6.978365958314991 12.408428600033336 -0.2518860916151726 0.7151942532932005 -2.8863160379841712
Ni 1.8617885349722243 3.4721367227074054 2.038662224634891 -1.1058854628354502 -0.1971110527568218 -0.6815536824206198
Ni 4.790942772551668 4.160263542291178 10.016300104925087 -1.4672154456067634 0.30504879168108107 0.2324765767403093
Ni 3.063902152854014 6.761589558365749 9.492379564966129 0.12855541517461086 0.20012772809595858 0.9465925093676667
Ni 6.248893095781716 5.331916020639284 2.207793900013656 -0.16767757798705313 0.451749510306151 0.40353721226698247
Ni 7.939490948243005 2.113698933076505 12.745612677132955 -0.061442423576197405 -0.022305091255103524 -0.5056030657914969
Ni 1.0520291409781566 1.92367856582508 3.617815624816152 0.8889059532894756 -1.1132195346030183 -0.3020066624206476
Ni 3.630700548588645 9.069972500631364 6.1011072597857074 -0.3341598501144245 -0.6829536480919399 -0.4023470486136232
Ni 3.551713569525507 2.2930279472692088 6.400089104736109 0.24270776755001428 0.010402169169930472 0.4605534817510262
Ni 5.913378160094971 4.672582120844688 4.441811108408928 -1.0847054863237255 -1.7663977512047386 0.15751992072776097
Ni 5.545005747120001 9.18817646871593 11.199292790862373 0.8557528635762746 0.4046116762780838 0.39079302522743664
Ni 0.9740467804351917 5.8835806217856215 6.054621994021083 0.152023416389564 0.12270769814458221 -0.7421754098677348
Ni 6.567836434227443 3.2134612787883827 1.2338337564049748 1.9541415038140475 0.009661948569796262 -0.36614540188208555
Ni 5.0599040354478735 3.8055410378334202 12.381327863366211 -0.6479395939106002 -0.22865617455295456 1.8547452267018962
Ni 8.608271948800695 8.65700977205459 12.510787245550183 -0.59054254404837 -0.09775308508177358 -1.1784741328364543
Ni 3.399877922724325 2.904932792891237 3.9969263959365664 0.37086774705841935 -0.08087610682077684 0.1645544589770392
Ni 5.5330609250819816 2.9566476049709647 8.292605141400118 0.9402097457697742 -0.3482037298020003 -1.7820732529584664
Ni 8.559607859016172 4.714730015273594 1.7573644306446348 0.9433814586295366 -0.33924189262302223 -1.8451889504720287
Ni 1.4745680038894229 3.5418332846298615 6.1796831747571055 0.5754416838511897 0.4891019828126803 0.30131734966310686
Ni 7.837720327144385 1.267376954958345 3.357481177836293 0.22811315756529102 1.2851553736457932 0.8313950035572005
Ni 1.1589887549837241 6.329198060609851 2.9153338204143115 -1.017250795115177 -1.9223369577089406 -0.49828544908416117
Ni 9.059769631807221 6.152855251926653 12.580245095365553 -1.471189342652847 -1.4217123189686418 -0.5216853160653402
P 4.392146086777699 6.202588477017048 3.5051103302098885 0.7233513351826961 -1.4159319648414388 -1.6132682462351893
P 3.1713594677778323 -0.014419501603766522 10.534635334579228 -0.7909821469577926 -1.430402390543472 -1.5239620063691883
P 3.957035667338764 4.203858456056481 7.403940796827587 -0.9545469883280528 0.7990376702724175 0.26613334556280616
P 1.18166179681515 4.246043217220072 4.096303444285747 0.9356774051170594 -0.3554542407168266 0.40302350585535757
P 3.3494534463585808 2.6240267079570114 13.357997711974258 -0.5310361611526209 0.036653903777607834 -0.6672537208581798
P 0.5590158280425755 2.5280810309386603 7.964282905650466 0.21550960986866755 0.6720711968514812 -0.17425317432204182
P 6.124753583412825 6.839157168143505 7.377595828221511 -0.33489929938361035 -1.2238780148925503 0.24286923282854306
P 8.426316179761667 0.09824063125250711 5.427168603045551 0.5497409366509758 0.5995905131832513 -0.8255588564913976
