# total energy = -340888.6899910675 ev
CRYSTAL
PRIMVEC
9.13265154301277 0.00000000000000 0.00000000000000
0.00000000000000 9.13265154301277 0.00000000000000
0.00000000000000 0.00000000000000 13.36655867576911
PRIMCOORD
 96 1
Ni 6.849360684614932 2.0004524908475534 11.245005344030746 -1.0130370141441456 -0.09165648526573247 0.5785187801146165
Ni 4.624482418534605 0.34296759026172374 5.846506062121406 0.3130780897434608 -0.18018445220481227 -0.189799349586757
Ni 2.773915002282977 1.7114680029460856 4.756462930082437 0.33414056684071486 -0.8998531963295986 -0.7183456544379887
Ni 3.4931843603761985 4.5238679981822205 4.879635912630738 -0.6128846591889962 1.0225284985743486 -0.1457023592675426
Ni 3.6296444374303256 2.8219710138917855 2.969929099044637 -0.33101564805848804 0.4214084361204485 -2.0147997409260525
Ni 4.941732462484962 4.664666084646113 2.408386110029919 1.4123136513625612 -0.21674631048924606 -0.959794095659605
Ni 5.521153529858745 4.873612015774567 11.408625013050559 -1.0820845037611106 1.2316985393782336 -1.4721316519614582
Ni 5.897318307919409 7.98009251838722 12.662555400795037 -1.051809249816337 0.5824343131189389 -1.007809190086303
Ni 2.2565046378403624 6.486009016453007 0.20274486083533758 -1.4897097700545374 0.4432944375602623 0.2868188989366157
Ni 3.0694932644872877 1.828256348908351 0.387589724948276 -0.3755535825698629 0.15193445622018348 -0.7818729855676728
Ni 8.051263270661535 8.939651067175873 7.013152960745995 -0.0154772696999927 0.1849844446966169 -0.19466413387822604
Ni 8.790761451581345 2.535726321407011 1.123010177022907 0.40964435360598483 0.037186893462942405 0.2510723374646257
Ni 7.217452198847737 0.7621361971828119 4.952189348325344 -1.2454701392410292 -0.5872715866065822 -1.1370297496487385
Ni 0.7436526240366569 7.531058314893893 1.8240407170271982 0.8760085285015171 -0.8816055629733204 0.5632101747820042
Ni 7.766114496343439 4.118588327493492 3.55549096121237 -0.4822296811728792 -1.382641063998793 -0.8171505778230443
Ni 7.855596214652657 3.9832424339088206 12.439788115054501 1.1525265597327572 0.1380741532983235 0.2859110424103657
Ni 8.17594222742388 7.51587071563402 9.00124075487801 1.0376378434119615 -0.9789056196780755 -0.1688518008008124
Ni 7.240375153834075 0.8808871499285692 0.10856713318190658 -1.384030231036836 0.11140692841978232 0.9629035878228643
Ni 1.8027762515330992 6.7820165132726 9.36801899384108 0.9375280851725531 0.14766205409707472 -0.8349837493497233
Ni 0.03996174268275615 4.956892663790668 1.3405718514717244 0.1400842417498168 -0.03266817965698245 0.578931442172003
Ni 6.585691906363714 1.9912741762016293 7.000373641657396 -0.15656938388903358 0.544602586983146 0.0037206433846968174
Ni 3.4604620704494864 4.446012145091173 0.4384750319573901 0.06234153835169908 -0.8600419778699316 -0.49033791210231037
Ni 5.914359835411244 5.513746949582284 4.509836592588193 0.7185066054958851 0.826171807485048 0.13398455660998215
Ni 5.348098918688979 3.064324183801126 9.463456114121051 0.5580016339978713 -0.5566476910731382 -1.0003177668052643
P 0.11875643233659063 5.841919644593861 12.757430863014585 0.6020448882610148 0.1618350031633471 -0.8562200330206802
P 4.287341459859049 6.081204243636504 12.6470235005778 -0.4129772746339597 0.8538728729447425 -0.15693242365540713
P 2.6549256873359677 8.795802675148062 1.182646390592941 -0.47331335251985573 -0.6207049265643633 -0.9990535553808602
P 6.257172170599355 7.798343623095146 5.606309111205005 1.5103685839554697 0.9418562802342617 1.0555869716912143
P 5.106229779303256 1.3406366932965863 12.708509076054103 0.12922698732033874 0.32051526274779635 -1.1180544940978163
P 4.105665625778086 6.4387658108178165 8.165884438449197 0.19612040670877837 -0.4218488660919767 0.3784260190216515
P 4.873420230095399 1.1681483065129366 3.5204444115071625 0.011815247467373198 0.347797238392201 1.3276490240336298
P 0.20171469775866074 6.084501130787927 3.3692953779590016 -1.0639291730083227 -1.5386795150850212 -0.6500101032863839
Ni 0.5209748382797335 0.18980846014284858 5.11752047621545 0.4743621054993443 -0.5141550691265661 -0.3529024208292503
Ni 1.8104294133970638 6.762436108694628 4.476353552800779 1.5563381087070487 0.542207347278092 0.9551303716353486
Ni 6.261665435082733 5.82028439345337 9.10341503208763 -1.0798142196696952 -0.021670800105214293 0.42010565814862494
Ni 8.958427798431615 2.5292786695263922 10.130020027783335 0.4525555511472142 -0.4493483570638261 -0.09647036171460804
Ni 2.356580231760796 5.709788444298111 6.9597662205214395 -0.05061216572991284 -0.945635801881352 0.28389118376685946
Ni 0.7967133286066258 0.29289326269595095 8.88473826090422 -0.047547410761660046 -0.25680744017619 0.47706407781153964
Ni 1.6011455741672171 0.8624519798347757 11.619428525471532 0.756168381712717 0.36199229894566043 -0.8819601180992618
Ni 4.454222398689866 6.982925711178752 1.2301754482166054 0.0729689361585582 0.8006626074703501 1.1092330391514447
Ni 5.902039888687511 7.953342982468901 8.066503839299465 -1.4585981362513978 0.10126444066914173 -1.0672412681006909
Ni 5.3074312220538555 3.163239930995159 4.594299918959167 1.4503994024906892 -1.6094457871653054 0.5154228800953962
Ni 0.354586149358783 7.037420242016791 6.530940748021646 0.8535604839106461 0.8180959724554491 0.5631045024420753
Ni 5.1386506917341315 4.725590002061993 6.811932339427479 -0.01481521063596158 0.019212825483024977 1.1283731024150052
Ni 0.9164798321868376 7.480289905822557 11.428982606261732 0.07965123327474025 0.020638502185958002 0.6570515835141975
Ni 4.651003638168199 0.5646572231383596 10.517049007936329 1.5771167360152967 -0.2995949676553614 0.7724100403825601
Ni 8.035865620419717 7.442206749530515 4.5469690398706435 0.440304501694003 0.13163636809277973 -0.03189967692207409
Ni 7.400086961324543 6.032280630145744 6.843945022341267 -0.8693403724527222 0.30770756946016686 0.12434369108610842
Ni 2.4612312840271087 5.1677199211052525 2.5280302360815186 -0.7625547448550352 1.4331940943559962 -0.0921100278633833
Ni 2.396033285761186 5.460932826599817 11.405444110571777 1.1017809537487735 -0.8361541155087407 0.05572994657245241
Ni 1.2041674835910705 3.4511924292896725 3.559996098142553 -1.1311547789252003 -0.2525748901520812 1.503930798749926
Ni 1.7274044796198542 1.2312457949593936 2.5140088764040187 -0.7634538596305368 0.39498186649780365 0.06367105579640002
Ni 1.1614814709989818 3.400652336503062 8.020349245709841 0.1309614535129422 0.4615276727388374 0.2907529438836992
Ni 3.882774135978661 2.727219755731127 6.816758032421415 0.5847434208680897 0.3407025363289487 0.22887343277008326
Ni 4.473766272662281 6.806674672022843 5.860875375816827 -2.3278030115675197 0.9077534250132819 0.272603269557866
Ni 0.7210630108260169 0.3616265103145471 0.4499438155716702 -0.1838374755763673 -0.007402977332290475 -0.4712634119693625
P 0.3549386697023976 5.593666781887241 8.232302558940686 -0.3199753310839264 0.7281947793179265 -0.7550463522931319
P 8.658036628945311 1.840037469200134 7.939441260524596 0.04516682634462544 -0.872350877144272 0.5949301315931045
P 2.027329883885319 3.325088778910648 10.260851651786433 -0.980224595599815 0.16028591350867236 1.4004778350698979
P 4.044157218673312 6.318424863465238 3.405719131493667 -0.04521130642931569 1.060894757057373 1.3273543756113462
P 7.062169727280924 4.06833134689994 10.313315994220702 1.7557752384938858 -0.36464182075336554 0.20067408751773183
P 6.486739628564125 7.984220476815039 10.472792179305335 -0.6848881461104914 -0.04553012322131514 -0.8610439367718848
P 2.531844944566695 8.61779816692547 5.763753281355589 -0.45867349111949396 -0.17340265339628846 -0.3131876187381316
P 6.904229654159919 3.854700365608939 1.4779808110051662 0.7170955840809715 0.5141098177109275 -0.213678984417832
Ni 5.506970522251661 3.539678688597492 13.116015287151463 0.677051423674892 -2.051480641286854 2.3098266295947574
Ni 1.954962754279048 1.3801080125997542 6.823053169023838 -1.5849866256816767 -0.6288846341616783 1.6184860429907029
Ni 7.021438102086077 0.5921063201530755 9.166157260395057 -0.8468465622255803 1.6555862902771101 -0.6262793353283472
Ni 3.136079425764335 1.7748577362369897 9.18817242983333 -1.0319996712895774 -0.05765673128152006 -0.4156021138513165
Ni 6.818930690186853 1.7969222219927634 2.6108232005134484 -0.46325262584974414 0.9776565777623228 -0.07915166793050239
Ni 4.259751720012943 7.083978498797807 10.646971933126224 0.8869945951993756 -0.4911416389505283 -1.748531669557595
Ni 8.19364130581572 7.750926897083566 13.351641346047682 0.8817027506728171 -0.8151602868658928 0.0655019383575517
Ni 7.812508365399453 4.075016447716672 8.335840341002681 0.49102593930827043 -0.5852321875790502 -1.0944432824367796
Ni 3.4214017204588227 8.30861225415158 12.427396933649936 -0.48123980645578407 1.271800806715758 1.1060440999005015
Ni 0.32122731363025886 4.935723177871015 10.418470255578548 -0.5833254574746405 -0.05159458424784018 -0.43046180457196836
Ni 8.588509753921013 2.50881239776369 5.832698406486409 1.9723220313778158 0.06358929471587112 -0.3202460682468098
Ni 3.975963710751804 2.956074866887556 11.484640636886725 -1.3646757377696237 -0.5421227579840857 -0.40707350755501504
Ni 1.369742453273263 3.243168895951505 12.411143553972968 -0.4441542144573964 0.15468142283770134 0.2311493732884535
Ni 3.0236930177715573 8.626063216432495 8.053685249809892 1.2724551524703054 -0.5803442633591296 -0.6559912605704831
Ni 5.6040780044706775 8.192189214244873 3.399223076560687 0.9324211029632908 -0.4296380231190923 0.5612674492333367
Ni 3.268420677042032 8.589505212922411 3.187149212331507 -0.16509541908217373 -0.5948817948536722 1.4782580765741702
Ni 3.4424068186534744 4.450414083060662 9.24512729695556 0.7395837378811585 1.2593561531945023 -1.1304947767436981
Ni 7.579397438695759 6.289017725992726 11.286388127269628 0.10678022828104836 0.04345755696300258 0.17764265961956502
Ni 8.328768015767057 9.127619298063843 2.4578558560737416 -0.2291680811923666 -0.3760624038854814 0.016150641617933476
Ni 4.780833410313927 0.5729204461151081 1.3608892610167864 0.7618160669167976 -1.1939166926437697 0.31159353477813434
Ni 6.449971574072095 5.8074073549949095 0.20949115041637648 0.08830813761878985 -0.6124845955371 0.3139358097580658
Ni 8.347069849150571 9.05390966870339 10.938068803293962 0.5256407011686625 9.410237570306374e-05 0.908177399924578
Ni 8.948062239105123 4.888096400877488 5.330303034192415 1.752826183167891 0.7838583914288177 0.9236855228625062
Ni 7.257462344582855 6.216056974046172 2.4671328033546667 -0.1470681292668177 0.9609829737613836 -0.305320557285229
P 8.942683107437015 1.6964904546681596 3.6894779162703615 -0.7569607957070255 0.3201578794083777 -0.30062186625797904
P 1.8777005235282844 3.3403311740788544 1.5042728010888982 -0.6900889735851405 -0.5791988369007767 -1.1305469701378725
P 4.978564445536716 1.1950896281104253 8.075285796875107 -0.6432470735309374 -0.8041191985603828 0.9334886249958569
P 8.822186905010822 1.597638636033849 12.260983586570234 -0.06176792523641621 1.2842117787856013 0.2992951770267555
P 6.530010130845109 8.196655080774082 1.395989693365189 0.6719822366821008 -0.6988111839494868 0.029395422442981635
P 1.9242496476579112 3.480535638202462 5.905733132909215 -0.7972337842944592 0.19459831363729713 -0.20062472233703513
P 6.977418722391198 3.946273461086233 5.992896071030771 -0.15622279918289222 1.0439167344421378 -0.9565028265028429
P 2.7306262346992156 8.756139570165725 10.246630287043514 -1.395317631025197 -0.5973734509272743 0.016796502732048493
