# total energy = -381173.74500693014 ev
CRYSTAL
PRIMVEC
9.13224159778945 0.00000000000000 0.00000000000000

0.00000000000000 9.13224159778945 0.00000000000000

0.00000000000000 0.00000000000000 13.36595867949275

PRIMCOORD
 96 1
Ni 7.27663419656994 6.34982124018089 13.121227857206552 -0.10738443752395055 0.3810526580112211 -0.5481023726062882
Ni 0.8527376902053229 6.889902020577079 0.9045028896574323 0.44597069884084484 0.8865220264383312 1.2891308133537733
Ni 0.9505476528423763 1.8355806029698007 10.020312139571944 1.2521958880006372 0.18278100928739488 1.1484004533795253
Ni 1.7200760086097904 0.2856072095802952 5.470860317630154 0.7158912793602251 0.3814812609082075 -0.05861472431941518
Ni 4.8059609694562 1.185648085891404 4.702197698385932 0.8394644108288961 -0.42284491145665887 -0.5136701590703476
Ni 2.844446751984143 4.554824319796153 8.248414311610848 1.0117566047698254 0.6209412109448854 1.5654436705527428
Ni 6.6070947563344475 7.332760954708509 6.111397584338723 -0.32199981771312286 1.375784960308908 0.3986462027232683
Ni 5.626629879336206 0.2980179261944044 9.602572349751602 0.06589017493490588 1.2285728492650583 0.1653497011848249
Ni 1.8781825109939503 2.1366340863404596 12.441542496324795 1.6106236095234907 -0.04916797708421854 -0.32614829266385764
Ni 8.659337796147325 1.3227230353967607 8.246743111360383 -0.9017961789885823 -0.6203567991963252 -1.02176333827355
Ni 4.854891521051783 2.3010783645378585 1.8711543377001916 0.6872736156235325 0.011872840178186005 0.8888406472691789
Ni 1.8833604920978504 6.8109811868911825 5.574566968801227 1.329219453844543 0.48061014329158513 -1.1616061534365218
Ni 6.788406285147197 8.376402680519414 3.790278515157994 0.9876573977287764 0.09119111559353972 0.5144458608941076
Ni 5.22481123988013 7.679795275571471 0.04649224303342913 0.9116674153557074 2.6439898221432916 0.04254918621612027
Ni 7.647439742853452 3.381477363617188 6.8044625926901885 -1.0092076130957264 -0.8064743290561208 0.8506273694242511
Ni 6.596108669442047 5.905071931995654 4.2368223088580725 0.6725923594622739 -0.784400637085533 0.2371899230555786
Ni 7.041789466291475 1.5690104646579175 1.2205323363654552 0.2530166056751901 0.514658748235862 1.936523533621968
Ni 8.146589815475956 5.499700850477115 1.8634951264976505 0.5090252040991684 -0.06173964310164205 -0.024539122791944833
Ni 3.386746667139146 3.372062022315388 3.5401208418195305 0.17035461059858403 -0.8095174867578188 0.5885445397817347
Ni 1.1179781741102786 4.485930687613047 0.8873488866493803 0.3385127277664815 0.37252173772207453 -2.29577555081833
Ni 0.1187565856670626 7.893928081434336 11.590665956999496 -0.6831701349781202 -0.2616616829446977 2.1944378337090917
Ni 4.490213709019977 7.71597721760613 11.023186624737487 -0.820572973241032 0.08856961881029263 -1.0279938925642942
Ni 5.974979243019206 0.3347468895132315 7.201939764391778 2.272460530241473 -1.6101587540719302 0.7070423136100275
Ni 6.2376864430472265 1.8299186130501923 11.39890440388835 1.332954238296627 -0.6234791468753907 0.8627388079758045
P 6.572255253845245 2.1322688747572776 8.423935999118706 -0.23119153938029863 0.19070720611300704 0.963319078093728
Ni 5.474322350498742 -0.012522129964140252 2.125548458012375 -2.1504033211966966 0.0397327998132477 -0.048058546070123685
P 8.308011321635629 6.326123072694787 10.392260129305363 0.09263093336385982 -1.1820371675973644 0.9581617022625046
Ni 1.2304599964325622 4.205579996416182 10.504909071652692 -0.24007290103032847 -0.18695519526974252 0.46419210694487795
P 1.201319012830191 8.829179229251965 0.026526422773365074 0.1795488755033424 1.1183589127121127 -0.3567246227888179
P 3.8415140445853657 5.550466982675667 1.0374171897960576 -0.15430861287931488 -0.6867126009137399 -0.9180956874795544
P 5.49608448272201 0.8365197419823672 -0.05769567728080899 -0.7451188087667748 -0.10218412426993369 -0.6505353796622345
Ni 4.9681404516857555 4.871731374941715 2.7817904409544125 -2.8375203566377065 1.0124479744098949 -0.053913462189003926
Ni 3.864262458923663 4.497903056620477 5.860117558482326 0.07572104498239862 0.11878830848551801 0.7011277478978054
Ni 0.574450885656573 3.8048206970095815 8.326110511670583 -0.2845213611516907 -0.5553048038919985 -1.3013980607569007
Ni 6.714626903597977 8.10618877772701 11.427574163813539 0.32866180311433074 0.3720779653164366 1.4595286184854668
Ni 1.6327078512535116 7.9284844844275595 3.4899318673031057 0.5255774520308948 -0.8354429483743289 -0.8238133345552004
Ni 6.088602595567217 6.002001546522627 10.365020478446963 0.4384119126569804 0.45575246081795706 -0.4201313691802377
Ni 3.285278328434681 9.108616696268248 9.265764313262796 0.045903961620966105 -0.35369766303703604 -0.21485012190779773
Ni 2.761224632407706 2.7310060442722484 1.2732198922399527 -0.5377822216272029 1.1609451228137553 -0.6793913846619783
Ni 0.5208345807904237 2.557840475150291 6.088608988136482 1.1416831892603498 -0.9925836313858001 0.7846034971249585
Ni 8.905049894174716 6.417810780425219 6.506976162968884 -1.065535598263494 -2.368852987530295 -0.20423429406516438
Ni 1.8971319127410269 1.4104382179416608 7.872015267221272 -0.3627088653967108 -0.23069608780111883 -0.20615850767107077
Ni 2.5384161968293117 0.7942776442853667 2.694430502615759 0.3431803084454799 0.5553654819266048 1.4172373139164236
Ni 6.722763731046962 3.767515489232807 2.723033597175767 3.242349548243235 -2.260838629731829 0.09767620909725112
Ni 4.777587094165517 3.0140872757690533 12.979428799015045 -1.5098080834663095 -0.4080502696459876 -1.1975560891685697
Ni 2.40545988837838 5.569041962508705 2.7617415172939155 -0.18075703687883063 -0.5744800912688688 -0.13048759920031722
Ni 7.6847723473556435 5.150191692084776 8.435283722786618 -0.12159441047574542 0.1937233672315115 2.1176976034335593
Ni 3.325250150818755 0.4867567072678261 0.6411838294284212 0.37714509542669883 -0.11931487041294934 -2.100043637797222
Ni 8.904337579313863 2.8242462331096694 12.355786179647243 -1.0574749327425466 0.5852018485617471 0.06477817281764973
Ni 5.507262346692333 3.8412218128475795 10.59855016590539 -2.9547932569199626 -1.2935808787053271 -1.1180418956923261
Ni 3.847313018132062 0.2436801742255954 6.78812957822048 -1.0659793706691318 0.887373318695033 -0.3268504609372048
Ni 7.868531316972351 3.0664698147672365 10.031125627094216 0.474521513895344 -0.8617335066397418 -1.8805107657017743
Ni 2.9770651674882593 2.261508360793241 5.9747710279060335 0.10872423938129663 1.3135023002196025 -0.13247454772335895
Ni 8.154397882219932 0.7131632461177132 10.644235118763184 0.22180675573128894 0.545630256916712 -1.1318114386725926
Ni 8.115932879733817 0.5641488036754274 12.891520926168042 1.371567579793451 0.12963245028887352 -1.5846037884209614
Ni 0.8188945152971349 3.350455138202818 2.6353531171497293 -1.0426121566981013 -0.11144446652593709 2.5271429536548604
P 8.76362799756979 7.540820819770504 2.729849902459631 -0.8988975172845487 0.2033755456092949 0.2272271554159119
Ni 4.120211800015378 7.179357556854347 6.850508269099314 -1.2174006346983228 -1.5518733880674755 -1.2372485226621852
P 1.6746887668348656 5.139698746249888 6.7007294580178804 -0.9660506180922782 -1.2137165009785162 0.13318802885061579
Ni 3.71798220967804 2.487914899643128 8.83832060329959 0.6930303156016516 -0.7630373409184085 0.9542148017996148
P 3.2559090387871645 3.317551670976449 10.83385790084341 0.053738627174036484 -0.7728849231364495 0.42756391419888296
P 8.15092763033372 3.324172546285668 1.0795442212463047 1.95224325835007 1.5627445264540247 -1.066755586713524
P 8.886922394190163 8.37691408606054 7.291090535348554 -0.43840728467129014 1.2845177400617942 0.9478006707431548
Ni 7.445270173756211 8.34366359364555 1.0731890941736346 1.062228645377448 -1.0805413276437068 1.2152229103207135
Ni 3.086131531375167 7.300779843904528 12.812287769812388 -2.112208041073898 -0.9666550844454964 0.6663908586372523
Ni 5.183834870897416 2.3861178002336536 6.835164276417175 -0.5160651416650854 1.1246876831436179 -0.7239987389587079
Ni 3.4472751658281204 7.49589019008587 1.7637719592022776 0.2316255415939237 0.7035420137662528 1.6883981946008084
Ni 6.2166274934430055 4.374827833803442 0.5921601289664189 0.4883849021409975 0.765477832039101 -0.06482908066024319
Ni 0.13237915076880416 5.786590226806947 4.025586250096014 -1.0278920768791073 2.8236873074093563 -1.0149059490320844
Ni 2.3466117221816765 8.846996233015119 11.386513778206213 -1.802321718794857 0.5398571018783607 0.21995016213852442
Ni 0.7723876606768164 8.431963239666022 9.616540113593603 0.6420412261482942 2.1203540672198 -1.7804334033621985
Ni 7.77635960042621 1.0830930104120464 5.666832747437966 -0.3504629581498222 -0.07355000547300881 0.7112972322316395
Ni 8.421999963855873 3.815907238561847 4.631799072753228 -2.587198267075544 -0.7890389071884928 -0.8896268906159003
Ni 2.194313325586018 6.413746932821629 10.375766387379871 -0.6444673190912837 0.8187369484735577 1.7092632109752757
Ni 8.987979782013367 8.194899374628744 5.105609000812944 -1.328151931811977 -0.6930066614525677 -0.332619245100182
Ni 1.952400240149849 8.117485360840806 7.566135394056237 -0.21032215213045713 -0.2578057995337173 -0.29046523743995134
Ni 6.097908349967348 6.712179462794018 1.9263021195171766 -0.48107602718441017 -0.4583045378158494 0.9937349713814241
Ni 1.4794688337518536 4.273852636156492 4.671602861888075 2.825017853295322 -0.0062362107176989375 2.1314152101299677
Ni 2.7357913389784976 4.877722125566333 12.279961175933519 -0.7841460978725656 -0.5415913109606479 1.0815926517263565
Ni 4.860526114245974 5.733586695365968 12.41984976913925 0.9943980588867196 -1.706732731243938 -0.2580626527395298
Ni 4.008606672906453 1.1949355758079228 11.442356523624621 0.3136876983030017 0.436473557983687 -0.33022220562291515
Ni 5.30789637582948 4.352974379162115 8.186890398565039 0.5480059562377401 1.128146845336812 -0.26194219029959404
Ni 7.263821661316375 4.439730676317404 11.620391404077441 1.6398400831864468 1.594276535624035 2.3958603693570737
Ni -0.029477050100825485 0.7144536318848755 3.4380452090349785 -0.10830129291126508 0.4793287054760003 -0.249655402512441
Ni 4.066276779910205 6.38051470489025 4.510556690866621 0.4324564664044939 1.0093279407236746 -0.8002723140104668
Ni 0.26465602042938313 5.653761769741296 12.459105623765748 0.0213830936614664 -0.9182797784659025 -2.138923088471239
Ni 7.466456974745713 7.974967595219183 9.246891622346888 2.304974443708779 0.3361429419827243 -1.4239067555167992
Ni 5.535782337851909 7.23698200264907 8.502393828145047 1.0794267544232894 0.46898567167877936 -0.8776933724031079
P 6.847701931192385 5.328334332990904 6.580115374367515 -1.5650916865299624 -0.11833450877755103 -1.724077907390605
Ni 5.795941642416107 3.2937895777977055 4.680116850923641 -0.13508833119712219 0.7432552731954748 1.1160971132611295
P 7.168782420843207 1.7445321521657762 3.757959511407197 -1.2137409264585484 0.17311057607716637 -0.49367237579218204
Ni 0.5669067407007851 1.6242148663740992 1.245377513422369 -0.10671029427506137 -1.4081057839288007 -1.8843159983804774
P 1.6974006522059397 2.125711925140699 4.221811643001846 -0.33098016683486225 -0.5847827587464574 0.06999082736684074
P 3.8261444816261707 6.484841435279937 9.221495771109085 -0.13766123413062098 -0.6805288407005312 -0.9840084881222795
P 3.886289426159301 8.548691554428013 4.086816104955675 -0.7341394269371356 -1.1217977631903324 -0.6290707820305553
Ni 0.557510577106777 6.38656938120751 8.67075127195624 0.4266511725766265 -1.3753033926867992 0.2800214163988081
