# total energy = -340893.9282171562 ev
CRYSTAL
PRIMVEC
9.04651794266117 0.00000000000000 0.00000000000000

0.00000000000000 9.04651794266117 0.00000000000000

0.00000000000000 0.00000000000000 13.24049344513832

PRIMCOORD
 96 1
Ni 6.532644253709873 2.124864180735092 11.516726407000737 -0.49767095542861384 -0.48957712267688586 -0.18165846564717747
Ni 4.441686421479115 0.3096957744911526 5.957043278518945 -0.16697438127244146 0.34088996974940644 -0.4158103732073807
Ni 2.4550439853538766 1.3236050576354597 4.669498545262655 0.9247905830012266 0.9678647884828815 1.1448232775512284
Ni 3.3961170401862977 4.483770822023983 4.5884535067499055 0.5677443152069319 -0.36246178238291127 0.3537519133137391
Ni 4.929067564934566 4.226496903903713 2.503697967084403 0.3451865402422313 1.4700279753548942 1.1662035429992175
Ni 7.164932518387957 6.202256379182977 2.6880985661700367 -0.084361494266216 -1.025920297864717 -0.8940787557396667
Ni 5.054841301128739 4.229898394575439 11.577699031943204 0.700241231527794 1.1021247102414375 -0.47390907712232583
Ni 5.860388473639006 7.943864835695514 12.294963047093784 -0.6960377349694078 -0.03260055964384063 0.6982362852826233
Ni 2.045616685298066 6.365871699100105 0.47335813630054924 -0.6829580189673141 1.2503341522015499 -0.0851402814137695
Ni 2.8322294961702394 1.4299468737156233 0.4208937612962701 -1.490334805233046 -0.09893682097722961 0.18236886145064077
Ni 0.5181573968203773 -0.06690985453782276 4.561296765134334 -0.7072870826309818 -0.6169279760204344 0.49853150365669624
Ni 8.674362097001948 2.2462865418944244 1.3032368229349502 0.01830445473614267 1.175298306211634 0.5665760059304437
Ni 6.7176274485382175 0.9334558868920126 4.843769758430385 -0.37724511133967287 0.005368720511081076 -0.470952308486847
Ni 0.5323441459464439 7.2559676264453525 2.4818243918312994 0.41201748182385173 -0.12780928103720568 0.033154632375097734
Ni 7.417601758976555 3.826315144982223 3.932823416988875 0.49163837608128885 -0.5467191191055165 0.624587292337905
Ni 7.693366759365465 3.8685895223997133 12.826144715510132 0.4041704749756072 -0.564367428314899 -0.22705900526916378
Ni 7.924695264596078 8.952642029323677 6.71585614036395 0.6941297193134175 -0.01563410699283114 0.8368411142734361
Ni 6.913629301978696 0.8060863449678054 0.3339024466704212 -0.36284693363647186 -0.5132626392192837 -0.17612210920998053
Ni 1.7452722961988378 6.56683104426427 9.39369324145702 0.5830300377214087 0.10492517735018059 -0.5761507941030722
Ni 9.174164109319847 4.840049830334071 1.2799601327797598 -0.17945040225226513 -0.24891235369882936 0.46700000870731834
Ni 6.443364170094804 1.8279212823075892 7.130534943970125 -0.0761326785985205 1.3050372001713846 -1.0328129112194924
Ni 3.4781599096062044 4.428641342892336 0.5550192426716613 -0.24194569257300916 -0.9157104750768295 -0.4021179633219527
Ni 5.834189758252519 5.6300731783957145 4.788305558142212 0.84444643742452 -0.18038551247202483 -0.29568843351210367
Ni 5.606787441722781 2.828828005498513 9.296163638311244 -1.2197138562125316 0.4479193379267834 -0.016383583564345976
P 0.3236681211466876 5.703422344263682 12.471075226622409 -0.3780557801664263 -1.9757259148530426 -0.30252293993543383
P 4.212737150415161 6.139925871927144 12.459688374738096 -0.3073954375363867 0.016217747410443035 0.7249294783030935
P 2.3006832530888124 8.411271267972317 1.4800881029632553 -0.14780809275663576 -0.31090370779996135 -1.5923867748004898
P 6.45232926917906 7.932674293246245 5.589765513935759 -1.2504470236303304 -1.2984610896157638 0.31036120503292997
P 4.66850976087324 0.999712582848722 12.779433021139232 2.290658284196423 -0.27396466868176683 -1.827502331825543
P 3.8836610209611386 6.489392852376034 8.000501464683303 0.7070405138378146 -2.8964765234569403 0.9523001012754051
P 4.625312638645867 1.1286435537355355 3.8224902772800795 0.21267625418493047 -0.16053325363278803 0.7246343156601779
P 0.05014484785472967 5.2154712701903625 3.5766276366420313 0.5332614509387138 2.2556113198946184 0.12390300400426404
Ni 1.400925644793023 1.0721118643535754 2.5706286286130364 -0.6249511034352269 0.19402212941885297 -0.6969576756805158
Ni 1.5630663823178867 6.507232585367109 4.8189035951075825 0.619346612764256 -0.00150743778346192 -0.3066973830280976
Ni 6.053070255067453 5.712930234412577 9.049241650445378 -0.6008922627138102 -0.4303846714771297 0.6218107580340323
Ni 8.630287462553412 2.37943319004992 10.15943030798325 0.44008981458003565 0.03576327364253841 0.38916885936045237
Ni 2.1961778801106706 5.2913806005798705 6.920329153019867 1.1854341090940554 0.4501633967659538 0.8102530793722627
Ni 0.7054791164855333 -0.061042283129095064 9.080740720578047 0.2423151600972859 -0.8745471134646422 0.40525805161283107
Ni 1.4374102508543842 0.9223829491734146 11.396211411571123 0.25882704170938003 0.805807127785767 -0.003548636583206792
Ni 4.2082681706496485 6.7715808803631505 1.4295497315866637 0.1308382976715166 1.4630582289052805 0.7816248741126087
Ni 5.640277650410893 8.034067664120466 7.663001217906113 0.0727388224256231 -0.5753208420026092 0.8012166802016072
Ni 5.357040226365479 2.982229806882718 5.233662008069904 -1.5020428376985937 -0.4541054121328373 -1.0671656776677492
Ni 0.6049089787260113 7.430673977116567 7.053925413107237 0.4834545547189158 -0.47977479187448346 -0.09996603357269236
Ni 4.964683705292508 4.677140138800971 7.0889860972757 -0.4565235346560267 0.38216594568005796 -0.07531275380038642
Ni 8.053038211829534 7.191936373853656 9.031260791777497 0.7836434472045343 0.4528959652057684 -0.14748670486147503
Ni 4.831500871066036 0.369866877961505 10.408960406914696 -0.1959823384690173 -0.1434629284140626 0.050533489973177484
Ni 8.176631737247416 6.986906095704712 4.723334372356917 0.17297816426436016 -0.027310514889494902 0.2720196291402541
Ni 7.224440512107678 6.00390243112907 6.857237833621767 0.44533692191158786 1.1748869297058282 0.471722096773336
Ni 2.1809797303008303 5.248780548523597 2.5912175983464985 0.418042604972009 -0.23001088880863615 0.46849407675434157
Ni 2.398548482042892 5.362603834778009 11.539196147773167 -0.4086251683128511 -0.38694485512594 -0.6344292181289912
Ni 1.0102427295026828 3.3018251857410785 3.756658767657336 0.11309254365232135 -0.6945061288162298 0.127535972771161
Ni 3.404159394460671 2.5221510539785172 2.7652237485443303 -0.030921115058888685 0.6280881064023118 -0.39848602299632013
Ni 1.2072306533772525 3.412825958459378 8.324443695317633 -0.3003215614087409 -0.391043707785662 -0.7244275989660105
Ni 3.5044943227588505 2.8388696401943 7.381852634807777 0.8423347903981557 0.36248903607642086 -0.4942099934632069
Ni 4.120001297021902 6.830808432032809 5.839070354575381 -0.7922517576988356 0.8580378029557093 -0.28578917212052074
Ni 0.7938337413353959 7.595591995588824 11.8182920759954 0.7303753319090132 0.5301722704904288 -1.32868903526237
P 0.19539030884098743 5.555394174419384 8.108212923549901 0.19118054620499977 -0.055837675794910294 -0.8878417736910194
P 8.776415863671478 1.5076293215829448 8.169582690621327 -0.4764974066747922 1.2715781491819906 -1.369326606278074
P 2.075524472959574 3.377662143988634 10.306161207183065 -0.7936602080105879 0.0788325940281868 0.4993892236713013
P 4.145394872329177 6.204092822285 3.558422424334101 -0.7693730533284491 0.03201563367464809 -0.34747276517324677
P 7.052031976943427 4.047104457041131 10.448350754475415 -0.5363125790602119 0.2845105625184132 0.16745800577707934
P 6.338334099087513 7.5441806352499405 10.178893890909363 -0.010807632138465258 1.280048391436531 0.5041807315226736
P 2.223995922173325 8.329463608013754 5.877865441268548 0.5617927256091872 0.879355333486563 -0.4459545008909287
P 6.948621232612305 4.010583664908794 1.7768211221790984 0.6883071990943694 -0.47387642411217745 -0.8184150463577649
Ni 5.364277440560641 2.8583467928970308 0.49420493178971375 -0.25624668257671357 -0.16873558693792232 -0.4775847262017
Ni 1.699894963195171 1.202517417632653 6.987180205192354 -0.4309557134892514 -0.2741724138171988 0.1613827461172769
Ni 6.906364948230301 0.7073806945153122 9.06389881849413 0.25688740148450595 -1.0876900228733462 0.6962609067238074
Ni 2.8591157469052666 1.5641429179294173 9.22589662103864 -0.42804831003446925 -0.6823772067631797 1.0164033595132171
Ni 6.336235306970916 1.9779849186442764 2.557414380144445 0.40814411491137453 0.36709671005176137 0.6119966001570879
Ni 4.1933323698543825 6.9304739180179356 10.43648805575777 -0.0669569256365234 0.15361030126070965 -0.6958803834559371
Ni 8.088437235761623 7.1828898561097025 0.2663602405422962 -0.19505417022779312 0.36050825820096627 0.8011133218545236
Ni 7.7265222468970505 3.9051103145320507 8.256784789110611 0.30167524722315786 -0.5566926853784606 0.06570479839697717
Ni 3.228331275589207 8.378875687931222 12.383105078776666 0.12587941100434447 -0.894159488378931 0.5539670589171815
Ni 0.19364614021995336 4.7964546613259635 10.159006930952833 -0.2060286669614258 0.26518229450344655 1.5234475286266151
Ni 8.704930280458765 2.196241205734878 6.0065232073194945 -0.04426025536995603 0.6990071020103767 -0.5573796841431561
Ni 3.6401739958826527 2.4380093924420136 11.448207176956265 0.01913697793976704 -0.18921288095566766 0.22376105124418236
Ni 1.2146397514095497 3.326793574714388 12.45666955176694 -0.24656210829909794 0.09010045363252224 -0.32116960850234366
Ni 3.110219939924161 8.405192008048381 8.08825992401384 -0.13402955091530466 0.7607318327136834 -0.3507722618601249
Ni 5.5821718669414855 8.045882416294068 3.4710746769091405 -0.48141515569138377 -0.3230704250694823 1.1518871263765451
Ni 2.8683612880395866 8.309905036651328 3.491981179415415 1.3038346952228514 -1.159012681677733 0.774275375726073
Ni 3.5619849430216695 4.681192978750262 9.45584372300975 0.7718598243060448 -0.11678387646097951 -1.205909860449904
Ni 7.218270787006301 5.919000862102075 11.695937018856666 0.07604140443629484 -0.10625726589804282 -1.8490183515204481
Ni 0.4313452032458587 0.1012893359201661 0.4449430240667939 0.40576250205307546 -0.3416700424485406 -0.02515078823401475
Ni 4.691804544063919 0.4038039846261691 1.6672822667282217 -0.3707816151025162 -0.7175987489696352 -0.11816275908637712
Ni 5.861980660761941 5.359057599822381 0.46439575117161536 0.8114604694168025 0.9537334912878219 -0.28143295203435403
Ni 8.032828291189546 8.998887828030762 11.01756036488024 -0.23796845309281597 -0.2271901315303894 0.8612748218357683
Ni 0.1814215807925501 4.713317163259039 5.901341154814105 -1.0770441131237258 -0.6605315716429979 -0.2358092406579681
Ni 7.880647769700773 9.035390527127612 2.5194805219405025 0.7917125973659139 -0.5624205890011733 0.15869594331373316
P 8.444851941837868 1.6490173474031813 3.730959420050315 0.5456677950228668 1.138246652774975 -0.09911011333030027
P 1.8007364964870116 3.078321918358984 1.3734893657791634 -0.7729031779688947 1.0299389321058068 0.79511982327525
P 4.722227983236832 1.0491518023194235 8.124803332440537 -0.11433824313396437 0.03229974057397018 0.5357315097457612
P 8.65754462051594 1.6928839119436077 12.35430729884234 -0.8988517516482778 -0.2639371092424358 0.1589823642059004
P 6.421652527509318 7.901373341852168 1.4441535251807267 -0.8709755940632999 -0.5496188092508146 -0.9780944366306897
P 2.1097836356559228 3.3377217681490827 5.814615807809928 -1.4441169119160873 -1.1691443707950961 0.632797081842207
P 6.86431673375641 3.9847377637143215 6.267824635139371 0.7780991203475374 -0.38438069394318963 -0.9759719909710483
P 2.4901173346471808 8.418716552075589 10.255423812416106 -0.06326122195249106 0.8526130323957124 0.7722496035452958
