# total energy = -381171.6746889259 ev
CRYSTAL
PRIMVEC
9.25083544771088 0.00000000000000 0.00000000000000
0.00000000000000 9.25083544771088 0.00000000000000
0.00000000000000 0.00000000000000 13.53953276649695
PRIMCOORD
 96 1
Ni 7.335347997433769 6.8233327718464745 6.740670083921339 -0.6302162084889081 0.5423281891266725 -0.3814923166518011
Ni 5.44300640368311 7.051550875756978 11.1004665936112 -0.6803005267398091 -0.13461499110512948 -1.5829063461138801
Ni 7.6098665314242115 0.6684496237452926 7.4580214725994125 1.0257526619386013 0.200714453837364 0.09362954983170327
Ni 9.052349261167416 9.063228243340046 9.884833769255257 -1.1796370427963039 -0.257321403698131 -0.8710442425177063
Ni 8.20056936105945 6.257597946364235 9.000079267145304 0.34208578982972054 -1.19800037579484 -0.08400308248553275
Ni 7.99669945534483 1.5955748011503774 1.6180284283012318 0.1603918429589173 -0.7568039584141869 -2.0381409867551543
Ni 3.307266085490242 6.7547655814863345 9.546046908013198 -0.263119755547463 -2.4927961007438744 -1.181060662616708
Ni 5.112788591069029 8.135424979716209 1.5846264377138926 0.09703497596882643 0.4210142860058233 -2.0975748645417553
Ni 1.2847929932511728 2.3022553514473905 1.4887119283922514 0.5274957520995303 -0.016864379855506442 1.2803132150621435
Ni 6.445621171414132 5.351450887898665 4.73834901104014 0.27033298546645057 1.80782182267748 0.3819054929298197
Ni 2.6964241876663877 7.041291699541464 1.540988397998991 -0.4605208287408778 -0.4527450414502009 0.268618316768189
Ni 6.887737086375251 9.064356845232105 11.402385176323676 -0.20800944483688047 0.9757742731379454 -1.3408148719916262
Ni 2.606228544653521 0.05799533591551404 2.1810425831567968 0.33473860543602996 0.9262571402444243 0.5373101670867908
Ni 8.639197711157404 6.484409923327255 2.3422716891890065 -0.45787079271254044 1.979207959864372 1.2706895759294503
Ni 6.393094929257511 7.2806663106800205 13.091373986046321 0.6616939673822152 0.18160884335616465 1.979205645871527
Ni 0.14094387464773636 9.068279199348765 2.30796219167043 -0.6853941392126325 -0.29935585506136186 0.30258233241845955
Ni 1.5814950300051895 7.746908403792683 3.692095278510697 1.4684971405326643 -0.5059679053300834 -0.25942919406975323
Ni 5.145286775059205 3.613191204919523 8.896325600091448 -0.7453769475241679 0.18944402312986727 -0.798039053804574
Ni 3.852649073574707 2.37907428678881 2.6619666767849184 -0.9015318695836022 1.2020146391605557 0.9985768728547576
Ni 6.2850821776864105 5.818682820375675 2.327648894018705 0.6984466015212164 1.0311303813107469 -0.35278312164256664
Ni 5.677126540438969 2.024628536836197 6.739221403132025 0.04043522519691101 0.20170767098856876 -0.06915624728068735
Ni 0.7985061904687374 5.026385790480295 10.120434964723565 -0.3053136153066935 -0.3502942937824419 1.0991728267019651
Ni 4.232294098559838 7.869574478290182 7.727377115475447 0.5531098531232087 -0.03232750848811207 0.2670692271135143
Ni 8.800078985786815 2.32621501456568 3.5946645573029214 -0.47379260614911944 0.12750923329828362 -0.09457802978790163
P 9.03586427287522 7.842478782045599 7.920084963460905 0.015632821441250496 1.3914800024466616 -0.6049880300497387
Ni 3.640767944593508 5.538373263562048 7.038959563992382 -0.011354248670554639 0.0011662523939592819 -0.8148435269564224
P 6.127762474601611 1.360483326700534 4.495219485901693 0.18872951356134593 -1.0090610602155332 0.4126651427101797
Ni 3.51833314097553 0.8887480876575078 7.462773626631793 -0.3873361770270878 0.014300732893388275 0.19088281245892288
P 3.752157251005603 3.069380858815795 7.06518568172997 -0.43515021118657315 0.8952213539845421 0.36799042551062433
P 4.972018632122693 0.06385296475200092 9.135650256720028 -1.0183052045216203 0.5649281859143754 0.668275734364791
P 4.974830886017658 6.934907094962186 5.70811776337819 1.028129903921526 -1.8651741353447038 -0.23195310013667148
Ni 1.4529639260030598 2.842402366819519 11.319414435587019 -0.5264284871772805 -0.27399115104432814 -1.009264948696223
Ni 6.280891549349505 1.7110622275475695 9.390572746546967 1.0609276671778372 -1.3339911642015736 -0.49669779288206717
Ni 4.045871267996219 1.4398184892111332 0.632726598611089 -1.9616529816997441 -0.9590816429736129 -0.6008261853625653
Ni 4.499837502823952 5.715295486394977 0.5812586519991523 -0.2134226454326518 1.1503521777892576 -0.846514118586826
Ni 6.70712378030518 3.518758679393847 1.7823981928773251 -1.0647285289811663 -0.1569213679118136 0.42687640121355513
Ni 3.2031386846950807 6.863176118970209 12.150877651470898 -0.3147997004202578 -0.13960550234118538 1.0792588613868574
Ni 4.252312905891104 0.9554540099792695 11.966197678255345 -0.38668337393443725 0.3190150240531861 -1.0451398082159613
Ni 5.913207854253158 4.943489056425085 12.680191938846301 1.2745984240655532 -0.9925450648383808 -1.073871628933015
Ni 1.448643785973623 0.44891250356845774 0.2815463934773009 -0.09732525351573561 -1.208673796348286 -0.06781156032733483
Ni 7.9990029133048495 5.135231117217667 0.6418969515258228 -0.1107708374976802 0.09768880750274143 -1.5645653817128473
Ni 5.686275616432787 1.0886105315718029 2.1903035942563025 2.664363243593321 0.6911919768413322 0.5306479245752669
Ni 1.8066973616467505 2.399629642560563 3.7927073619371514 0.4570048451678194 -0.43534458658556635 -0.17381223012988128
Ni 2.207036504931346 5.186665760822953 13.701329653859855 -0.5808021768321546 -1.3515101469219435 -0.7062419291959191
Ni 8.599715146605721 8.628401986501403 13.036524859175799 -1.2626767329273028 1.5422551482514213 0.0626950650363759
Ni 4.2088339805413115 4.97726385567021 10.901462627201685 0.12898967449855206 -0.22013553867645316 -0.7689843025304628
Ni 4.277290160879282 0.2134722726322979 3.712851377405873 0.5373973274839583 -0.5311778289368078 1.3590951583580528
Ni 0.8282892543333449 4.771608538765694 2.136606196365791 1.0608273941545472 -0.7282459442708361 0.3946751338906622
Ni 1.5783867493844383 0.3397387721821662 11.615429135287101 -0.15667711311149146 0.328744335525808 -1.9172906535342848
Ni 8.641177389886096 1.967939418848213 10.455132031732191 -0.6251120544931235 -0.013552027652821822 0.4048633872775737
Ni 5.52110195427948 2.8947898464484276 11.159918936067692 -0.24817059043679843 0.31534760250392785 0.529546721091288
Ni 5.451406162027283 5.962514805766859 8.45287941503133 0.731310699239089 0.34679193705613826 1.055644821512343
Ni 4.469726034310425 7.192191323010785 3.358900547135433 -1.276107404510912 -2.0465281823775854 3.0341670681636006
Ni 1.0664177779730473 8.337157942504062 6.0655210053381055 -2.092132353369945 1.2292436500798378 2.0237710911867275
Ni 1.2524983276349764 1.8837383170325095 8.698188436938374 -1.3236103351878816 0.25421062598329125 -0.24172689169398373
Ni 0.6080379696805519 6.948394812655802 0.19597894330539223 0.47089985798235673 0.12528368640187457 0.877157811614612
P 4.356680828400966 3.4471109609184984 0.7200184044607001 0.8965364732515398 2.2862100186170817 0.28880841856281875
Ni 5.475782112728708 3.3695334570922526 4.134567350626277 -1.0600136400040003 -0.520423418633781 -0.8936439821950931
P 2.635747959715476 5.8120407207158555 3.5882472529379954 -1.6139130789080396 0.05423922095953884 0.5950106071220527
Ni 8.087440897633362 0.3117549957602256 4.965082355904124 0.31263071779339713 0.40346136472372446 0.5315768641474394
P 0.24912499141912733 5.517494128558966 12.272678772878992 0.710498647589744 -0.31755335190599504 -0.2588159859657865
P 8.011713560843278 4.465100616720022 3.36292188518853 -0.03433116918170216 0.3349093266859393 -0.27216386802760223
P 1.0078414896081784 0.46921993695736486 4.420440359717641 -0.37272279798928715 0.2396129306747744 -1.3374837507358643
Ni 0.6224775983142731 4.266013392793878 4.614759703191597 -0.006038749994912181 0.12958951286608003 -0.8843011075276126
Ni 3.168938347031638 8.038355966164001 5.702647744535778 1.3189689797611284 0.6793232504282042 -1.2032582817596698
Ni 3.2365619522033353 1.756215554065088 9.724335479202333 1.4388314951474317 0.07463912477212953 1.2872122561748218
Ni 1.5573133468425604 6.117142515814044 5.724405708881036 1.2007308873521256 -0.752905137580413 -0.5636871144184228
Ni 0.18426831105000888 3.3875355823541025 -0.07630921432295729 -0.1976694963634531 1.9433169023947177 -0.07554029643016023
Ni 5.799561344056946 8.84278084098142 6.002047324828519 0.2449937353707136 1.2673581975633723 -0.1373781556725634
Ni 6.807023549422713 8.126127890359497 3.6654630491086717 -0.28630210720119725 -0.4594201394775313 -0.5972220129510747
Ni 7.833838501986726 6.938218893956914 11.219614575489437 1.2260045743172499 -0.9639346001905399 0.3013749423739197
Ni 7.344145541690716 3.2007519692184325 5.384983315262053 2.137644478869132 -1.3797565433621464 -0.11041653948205499
Ni 1.8044124053570911 8.640122794675484 8.512128239113842 0.4192708209521553 0.32295498253754057 -0.386620896127618
Ni 6.827255125963136 2.605645742037131 13.078565279654978 0.742111903619651 -0.00944931833835792 0.18745707460682556
Ni 8.791947501662886 4.808917157049888 6.5311590189134625 -0.355591023405007 1.6717785837662562 0.7787154137752975
Ni 4.1819510535058875 4.866577612731857 2.58062130778953 -0.2976023627053649 -1.7147417175913435 1.0626312801325055
Ni 1.6416809636915186 3.8961279989244995 6.940025582067725 0.7172899594799645 -0.0742539735185689 0.05301049075876032
Ni 1.2840806789422508 1.7027919808959284 6.158077461489114 -0.6540716749502671 -0.5134701272443996 0.5101611174758246
Ni 3.416546201481113 8.543793847937744 10.633326244402483 0.6364179664242459 2.343377211856693 -0.46212056912782995
Ni 3.291289893132989 3.408969767468032 12.403836188988953 1.1931795573674289 -0.24300215886198148 0.30004542492921876
Ni 1.3440168400786978 6.131287042805497 8.08184136709842 -0.4598963077830015 0.8545133347422186 -0.1871979074081679
Ni 6.710185806750026 8.041760273510539 8.949359713099495 -0.2384510491561893 1.1860552876178219 0.11890709345156943
Ni 2.723926920658926 4.468421666549932 8.950281096283504 0.9850071045901231 -1.5686732332336337 0.9900809195686046
Ni 1.2154764852413873 7.392046366256935 10.428744024378938 -0.1999960876141007 -1.092790577324705 1.4066220002944227
Ni 8.95491021420798 7.07518675964394 4.73111855826282 -2.6625202768473115 -0.8357373396862963 -0.06574413627534484
Ni 5.936991751503013 0.4582003420899877 13.384125916178133 1.5892104339550372 -0.8605379436697438 0.792886305959041
Ni 6.51782394000033 4.468051633142699 7.022237754319557 -0.966521901301742 0.4233215939827613 0.6571978792840746
Ni 3.2720481559569103 4.129082530447576 4.8971673494242305 -0.2958642969683356 0.30213650313029256 0.055375648556827216
P 8.858118725711197 2.8344929027399295 7.314759338655366 0.04524524499104466 -1.3207304425369253 -0.17903851152582714
Ni 8.070456364241402 4.138888415739231 11.486072856786844 -0.6650312592855643 0.05478172372657016 -0.14215012313991002
P 3.4627818757147852 8.543914108795095 13.660982136218767 -0.17891715545661444 0.11171443235787211 -0.8236649819027945
Ni 8.028707345070421 3.9007719181852645 9.016678965793744 -0.16241144449210737 -0.9742634929203736 -0.14871132129719553
P 9.204941787474825 1.5600978482319832 12.591981525063238 -0.7673904756807816 -1.0962366268917765 -0.7758961991589476
P 6.488776317532596 5.064591739777026 10.163233028604047 -0.789563412233395 0.32855304545060837 1.145542157995124
P 7.309362401410883 8.223946221561349 1.481576759217295 0.7999720091612288 0.29538427200812356 -0.3490907603926439
Ni 3.530211213347686 1.7641805231557626 5.235954210666292 0.9357779352506659 0.09952611782179634 0.20979816130618706
