# total energy = -340862.2927250037 ev
CRYSTAL
PRIMVEC
9.31161932608853 0.00000000000000 0.00000000000000

0.00000000000000 9.31161932608853 0.00000000000000

0.00000000000000 0.00000000000000 13.62849611663954

PRIMCOORD
 96 1
Ni 8.152061814963835 6.469256695825725 10.716835562370957 1.000045486980484 -0.19354287578958926 2.1331676740447008
Ni 8.034316391180758 8.936332935416948 10.09425884562748 0.13666467454530656 1.4445236604362026 -0.8007371694620273
Ni 3.0822111103333216 2.1730246193740803 7.050307315937884 -0.18583368007078963 1.8312173187832848 -1.2835288937859637
Ni 5.794816122902969 0.9509118562397446 11.385558801153513 -0.40664233355486734 0.0016398495962681437 0.3054383138100159
Ni 6.617041402892645 1.9914759813749785 9.01852101042517 -3.0067807057308475 -0.18404676337369594 2.1630603478390746
Ni 6.078727389897513 6.047915242226639 7.911028691696954 0.8722994550810461 0.3626142488003755 0.30552136044212547
Ni 4.143400471821225 7.103964589959837 4.518432450046616 -0.4353109051341535 0.9519195780075347 1.637024982335155
Ni 5.148142798198571 2.960778285378391 1.943805147285816 1.9364386872176458 -0.5013129230565753 -1.0832476708312764
Ni 8.838225716359732 2.0899556651970284 9.214989655741599 1.7485072440775626 -0.7451928565378199 1.4858266329500476
Ni 3.1184519319516477 2.0196436292155324 0.7720449645474458 -0.4440364579326095 -0.1610904116878387 -0.672392841856958
Ni 4.662448744855331 5.450882159055463 1.217471852164507 -1.5227469030151646 0.778174196559847 0.8190675923400991
Ni 1.5465481965427945 2.4840140747720394 12.018534734131148 -1.5049705528683501 0.45723367334917386 0.827773090533897
Ni 3.036062725970417 4.077753557019273 10.801836677515583 -1.8228128967696735 0.47821901735158934 0.6307911071557717
Ni 8.166448266505538 7.087948605071985 8.241683355516225 -0.011376617268057825 -1.5621775982069612 -0.2862972221051908
Ni 9.145416031156387 9.178919236753185 7.9764726132020725 0.5648965613454916 1.3820108866139618 -0.822394342720487
Ni 7.981174980858098 7.711072845019767 1.1969536994317265 0.21860161853042998 -0.1313273214927932 0.5257373746475268
Ni 3.2649516355798918 3.1956173196060846 2.935360358664222 0.0947361526323207 0.2969904401529789 1.0128621791291783
Ni 4.732211395308696 0.9010509293333594 7.8089100271224785 2.473090394784831 0.09955825661131242 0.37397955321452364
Ni 1.5659815456479964 7.915611870628234 4.487700382300181 -0.17443520842586088 1.5513046600481992 0.5618415765692517
Ni 6.372229624586526 6.838974533018849 2.599771467872816 -1.960807345869997 0.1983320696481165 0.4369255579194411
Ni 2.365197814790066 5.507468868452834 1.8991168248010597 0.23957127880356163 -0.09429417999889567 0.8179391351626106
Ni 7.647111333278687 3.5321299230142786 5.512645197522111 -0.49759716476788496 -1.056144129746265 -1.004623850379786
Ni 5.765363471623738 6.95479245164391 13.198857881813046 0.09595177020697668 -0.11749864313981699 1.3038670911226835
Ni 1.9154559228724053 2.3459600096864017 9.05886080678049 0.41188892666578747 0.6010393298146358 1.2019804434885106
P 5.251697314441481 0.6054060910846396 3.4906662142310703 -0.3369746938554003 0.32997229439563813 -1.2385119627556411
P 2.9012211694814702 8.120895825766368 6.205736012382006 -0.7920514687625715 -0.8103242989298303 0.2856909559797595
P 4.067911175608541 2.958431757359938 9.232964805292477 1.043179599165797 -0.809177844030213 -1.585653312731398
P 4.733887486750448 3.6917124515073088 -0.0792483968517699 0.30208276707422166 -0.6478655461395552 -0.11563665023041377
P 8.223323636095657 5.441337749456597 6.004115248206011 0.3420837329471915 1.5098453644621481 0.9352637146184086
P 3.3089955940214857 1.82915583686042 11.288728205077765 1.5093601972956137 -1.1299551021901444 -0.8107729564314746
P 8.876198499134535 9.246335359188098 4.393186517061699 1.0953930479445586 -1.3384949656091982 0.8693190322964836
P 1.8217251648019863 0.016393105462246454 0.9942155409612312 1.2309521481305123 -0.032763053363633894 0.6635024813458638
Ni 0.7791916322226938 7.190050508732043 6.804448911642582 0.5974081608199517 -0.29665054031505683 -0.5118559886797444
Ni 6.86545677779853 0.8450704063407554 4.897645345257265 0.04063011481653648 1.3190769660939023 2.5572719118297567
Ni 0.8817386312767282 7.665073446562796 2.1159741913444914 0.3168344714620995 -0.2986688562966663 2.0564284722104325
Ni 1.6715101251445252 7.33681093769567 11.24425870564235 2.3805057412778745 -1.8006690136827828 2.8881484632072194
Ni 7.319472702892659 4.270131608055918 9.801873074071056 -0.28324892219717024 0.14502641624644055 0.1514482606123843
Ni 3.531804016345049 4.449855168707334 5.270384802855104 0.6847526489738917 -0.6610519629228422 0.05457320726018988
Ni 7.2249132107204845 8.557499023104517 12.335832811483481 2.3898619856817938 -1.6230844609946626 -2.379135343292909
Ni 6.727356154617288 4.959135553283673 1.0416154069339771 1.611773663967534 -0.31504189833805096 0.09375553388660628
Ni 7.40230886659169 4.8765042452053 3.2175378021784646 1.3493771597393407 -0.0843632940384289 1.4266280111027043
Ni 8.823252632813414 1.0279655044647313 12.89833561746883 -0.6600124659147342 1.7271830286784902 0.5754113448338865
Ni 6.842345339140594 4.897054988605004 12.42868362154698 -0.0958134448568995 -1.2764768720351887 -2.4808142457916498
Ni 4.315507128031792 9.02656252469793 9.812830056290553 -0.45715576892338683 0.4522678447034662 0.7943186675301933
Ni 8.72582516195202 3.9308813886261955 7.809973414026079 1.0565125688292774 1.3449558907431933 -0.5757558726574988
Ni 0.48946246560144635 1.6179776268187913 1.4924570010698097 1.942223926440855 -0.1855629429079062 1.2710855258162883
Ni 6.450065448817664 3.8275689744804273 7.482711904214445 -1.3537246380747587 -0.05233377640670986 0.6984414593148939
Ni 6.829253202656687 2.617710302109123 13.362494689271294 -2.1992676509975673 0.5868206151120926 -2.4950627852908642
Ni 1.6384631888846488 0.30786820066865217 10.070722797137634 0.08575246107647168 1.0666779393980532 1.4520742190899507
Ni 4.3647842164193 5.100951512494132 9.109232010414697 0.48669877268782635 -0.44842430258766 0.6976174207517019
Ni 6.528525151529898 0.08730760320086067 0.4563065833978559 -1.745520136424781 1.7118397134532002 2.842248101130679
Ni 0.7990616962646635 7.661302240818855 9.403539700157665 -1.2805775244671238 -1.4559445006786345 -2.7437429683742294
Ni 5.228092359970141 3.4722934585437324 11.464768089204975 0.3310614136947589 -1.1679845461590401 -0.8674233579356674
Ni 1.2106594716156973 3.5694415808315014 3.5234291461077616 -1.539767091722245 0.3764701808468613 -0.4446949174522148
Ni 2.84045354309884 7.323616373401434 0.13325765007649124 1.506406513983928 -0.46084195952572243 0.3474146582418017
Ni 4.994640756991452 7.8858333126797735 7.001762120813273 -1.4290990983510161 0.2088298838556468 -0.8622793518408827
P 0.84472401410946 2.1943761620181768 7.191334581008807 -1.8345394411779825 0.5914257179842717 1.3071061668852715
P 3.7788878297166533 6.964700014388489 2.542150237591119 0.2635851252196557 0.46356758598700165 -1.2414317075055976
P 9.403245452993447 5.578646885012568 2.662844651149767 0.28626996841168123 0.38637355600350237 1.019648348813076
P 7.6382280486374015 2.314449490581464 11.023572401316425 -0.5937196562247711 0.5347105246804146 1.0795997896660439
P 6.67245484828079 8.566670967938549 8.09454953062585 -0.07969211381500468 1.521198327581122 0.5394364694011743
P 2.5753517467284017 2.1261313054815085 4.861639176440785 0.17736600891941065 1.2040476104301843 -0.8489273560140089
P 7.763990776483525 1.6674968173034412 1.2291337239514526 -0.477866519108177 -1.2376668411465266 1.9862314423700567
P 5.490428605461688 4.2052016879262695 3.839364933582713 -1.047688028559112 -1.0564835153635548 0.6643447747415011
Ni 5.833282421491177 5.805375498986006 5.482539801742509 -0.2031310336986566 -3.2398913165107297 0.12766941302523174
Ni 7.740348575535702 1.605732847674881 7.233665201532165 0.26850364556719564 -0.23886422543420796 -2.98756736602719
Ni 8.602669687459732 6.964420665814864 4.467352632197312 1.8017720169389746 -0.676069519377597 -1.6538142859783518
Ni 2.6289494263879822 -0.012092068590328457 8.074024859759685 -0.5441264186776757 -0.07075007413036848 -0.8585887903631729
Ni 6.293946842637587 7.498758617445396 10.387843953726668 -3.078975996948175 -0.12986179269086023 -1.273657657418839
Ni 1.757679848488819 5.754189528678725 4.244595423778914 -0.31205299091305616 -0.7532550647206641 -0.01159644658834777
Ni 2.208837106512848 0.14010075896839974 12.469119327579246 1.1687232240972776 0.4284758844901911 0.528082992061568
Ni 4.100688074913912 0.5010749858070513 5.341552576633806 0.09430574996312145 -0.3113737054578444 0.19554756492444386
Ni 8.645922158276056 3.6285051809150173 0.8600043810867655 0.21582174179244767 -0.43955039713679783 0.365182523748184
Ni 9.125330868712727 4.144424749924519 11.469319608631245 0.35010171815566155 0.1674556917842342 -0.012937791107590621
Ni -0.22498920352166507 1.9996888294395632 4.3092757925161225 0.4236352685684382 -0.3209569782709053 0.7401941177716479
Ni 1.0357407064306365 3.965241263182111 5.9128185473737815 -0.07899868729240588 -0.061222080035275205 -0.1523895414797311
Ni 5.362263479882388 2.520496998487508 5.958269491464534 0.030174980921483515 0.31794004582145247 -0.8776890015277335
Ni 0.6183985932439537 5.445863196349327 0.4821221162484848 -1.100504143918879 1.1998880797358562 -1.0360823259993834
Ni 7.133892133814231 2.5138857489117084 3.108823717780695 -0.011697748052902435 -0.3905793665547338 0.43154475322350194
Ni 2.9113335878467073 7.023856730663213 8.552657912323589 -0.09480634374862382 -0.2020354866416327 -0.6372119230804509
Ni 4.15216270541394 8.970562447305172 1.5748136163841173 0.4569850476734775 0.12217290868703475 0.10576952762834688
Ni 0.6307606987887866 7.785621667701246 13.515720175390523 -1.5456063241118412 0.48070501699823664 -2.5062509406972
Ni 1.4665334534373788 0.5692025159427968 6.016926173792469 -1.0849276296368606 -0.661021623905539 -1.4223142142186989
Ni 4.142152714859033 5.581188957032558 12.485624172470942 -0.9726904920062991 -0.5619451920266515 -1.5072122977146754
Ni 2.024048025059692 4.642493945079361 8.125090710180308 -0.1387387834655159 0.3189126941473669 0.06967998099464127
Ni 6.75462057540312 7.708921861002852 5.24398636264751 -0.9830607794970295 2.516076925648686 0.5417337500757832
Ni 7.246450985746997 8.935345903790138 3.0948953978997356 -0.3936693183339672 -0.19517784028985097 -2.325787009578756
Ni 2.5760221833051027 0.4156380868875683 3.3041200302498113 -0.16371602223614384 1.007805076321245 -0.6952761742130349
P 3.993818622263982 5.723479808818181 7.059561203020178 0.3151270018526895 -0.3753453232137987 -0.5933779566146361
P 4.122253784797788 6.988956782198288 10.32481174157385 -0.04721573845385417 -1.056417952232942 1.0491018781875028
P 7.850654015641224 6.45243991169348 13.201174612650313 2.043619236260906 0.4449461142310724 -0.6962729909086653
P 4.726009856974214 8.709976786208344 12.938253597477976 -0.772547851512005 1.5232230713206345 -0.4990087004034309
P 1.9372357999960603 5.32624613712296 12.473290001783472 0.39360118410019307 0.3458678825799721 -1.6709365474809352
P 1.6154076199414382 3.5401472270773255 1.2586403826215842 -0.23533950011040117 -0.8627866304946044 0.09157806661931324
P 0.22070120291651624 8.93986203906375 11.605809321704582 0.3125397007414875 -1.3139481295077693 -0.6839257821972221
P 0.035191402143407005 5.433841896064318 9.3926776964532 1.2441997571690377 -0.991025285759745 -0.7890779879565443
