# total energy = -381171.6393629713 ev
CRYSTAL
PRIMVEC
9.22453300107557 0.00000000000000 0.00000000000000
0.00000000000000 9.22453300107557 0.00000000000000
0.00000000000000 0.00000000000000 13.50103647715747
PRIMCOORD
 96 1
Ni 4.213333101636821 2.796823045316997 6.956706435641984 0.043698983549847324 -0.21861601670813316 1.7660758490889454
Ni 7.614981099335131 1.3022826647152397 5.794793488931021 0.6144394052706257 -0.9159377605962871 1.0528562030236126
Ni 7.319224123672837 7.274844895617466 0.7297583369356083 -0.3223908825039544 1.266093986138968 0.36929988835066724
Ni 2.0798369967134334 3.7064819137901366 6.542169761360904 -0.1614475379169413 -0.6347971429913712 -0.8384495964111366
Ni 5.379683048700025 4.456307299720061 8.732713145449296 0.064878702951256 -0.41868435232106604 -0.9512670320252004
Ni 2.1646473527186463 1.5508008071055417 8.117606528634285 0.8251971022766046 3.759218159646223 -1.2943830628916482
Ni 1.7392856890127106 9.080906978704762 6.562489562558237 0.8985861566917169 0.23451211911309935 0.7063386026747835
Ni 3.781505040328139 2.5918262494170796 2.6881506674590234 0.6996041121644274 0.9036440308305986 0.811071718618816
Ni 2.3050447443217936 5.431663291911835 9.130332026287526 0.12268198711296938 -0.7621050589121262 -0.4835316878137544
Ni 5.52149179384557 6.834926918905633 7.301698433508131 0.4291621119239383 0.24090233891015933 0.14624074826951589
Ni 7.880177197311404 5.3687888752779935 13.150846560434054 0.039002092294810255 1.1191703528698145 -0.46582552878324285
Ni 0.05723914945050528 0.2514985889886579 11.094639127342868 -0.2976111044561133 1.7922530217049455 -2.2101876403441807
Ni 8.949955508849422 4.001759213738675 6.244890737760731 -0.9398551906438329 -0.48622594681646586 0.11651056819493483
Ni 4.851984416370875 9.828739865516006 2.1013283135962855 -0.028801754723040716 -2.146647710809006 0.5708682055478942
Ni 7.074866245646071 3.0505622733608724 11.610404903839045 1.0993803147270809 -1.783768381272702 -0.17876134660504053
Ni 5.695254321153618 1.8896455762092486 4.611157689559989 -2.046360032230837 -0.5415244622784544 -1.1915471639703286
Ni 6.067205939039433 4.056119386453349 0.09490845223306855 -0.4791250741056265 -0.5749107510483841 0.8253585675551334
Ni 0.720669404613231 7.2646425621671975 10.29896873507073 -2.666133448119867 -0.5412131016856228 -0.25280526099533235
Ni 7.790053510323051 2.657883129921031 4.057614683245654 1.5073922749359654 2.55884568407478 -0.5118919841240023
Ni 7.79350348564891 6.319210954887422 5.412511316586838 0.6659640555124788 -1.3756682322253857 0.9775678747032583
Ni 0.19410538983777334 0.44656517516053423 3.813300160523785 -0.2626703267148702 0.28539425067494717 0.46671615891831236
Ni 7.172351109933986 6.768556404281148 9.140188439751912 0.6140092597117425 0.5029982811787982 0.806070665859799
Ni 0.13345962036630601 0.8754284715768872 13.279146899517597 0.29283039523801824 -0.7734806477389196 0.4072105473535116
Ni 3.2386228267520263 1.2862504264362469 5.465854023316372 -0.4705915827133185 0.4469500320349787 -0.7836994972534502
P 4.798795759341721 6.8871101018424925 1.1472007390980943 -0.8867523972815825 -0.20358251941377845 -1.213614171072697
Ni 7.56224444442086 8.47698603055322 12.056533758590723 1.050263502595772 -0.5940796106673512 0.2887986483708059
P 3.4901666159521727 3.3961225024571604 9.277156150001705 -0.025389900828014338 0.07726113577600888 -1.9019427103233053
Ni 1.5943406026618396 2.7952917728461615 4.004771946202379 -0.8607078935887047 0.14697659799427593 0.8009685687465431
P 9.386239019576259 8.826374440826598 1.521742605838191 -1.8099386119101668 -0.49677595441817024 1.3995643221166927
P 8.179734680551917 6.431215234049407 11.41828555594688 -0.16615497069493965 0.17158025547556902 -1.5402175489961023
P 0.08508155727414392 7.716312593866049 8.252616792990636 0.03428411799385063 1.9778951545902195 -1.2475715018547482
Ni 9.28098709853868 0.9052772153186391 8.26881784022274 -1.264068213958191 -0.7678373334102131 -0.5431691969707291
Ni 7.24210702815363 0.685626326363481 2.931642361841142 -0.8339378245837122 -2.461100055192174 0.40827498406228396
Ni 2.3900857136509277 0.7622628237156353 3.1726757181902614 0.775055191314891 -1.5084402565845052 -0.31405639449633005
Ni 1.208542960807803 6.014127976405759 6.457114032779039 0.9599961843680822 1.1104311732246037 -0.7749189228473429
Ni 9.186112777077554 5.626125671175038 8.278768343923286 -1.1659050379221922 -0.21602717293503443 0.8071001355655777
Ni 8.395238219489679 3.3389765207895192 13.438432444803176 1.0880818589951262 -2.0196701816444764 1.7875299051976634
Ni 6.857932904099998 8.315750419000565 5.034873696586424 -1.4565610512167109 0.9924890147894649 -1.3337829048455094
Ni 7.549136383089187 4.443872629294236 9.846292306826289 0.774979343771633 -0.2615251573668335 -0.9315266161734795
Ni 4.676487676866942 2.7560782832466226 12.057870393416168 0.439202783989392 -1.3531034595509923 1.003110499059053
Ni 9.094356347755838 8.302716153932545 5.8643234060932246 -1.3893285033212976 -0.7071963226893885 -0.05448116176701585
Ni 2.0486027281215637 9.095186555721954 11.750627029316012 -0.28746501716104683 -2.2679978664844294 0.813832569193405
Ni 0.5866802960552023 4.738365843941443 10.729935225001244 -0.09863883012083657 0.0005322183543861801 0.8267701031906795
Ni 7.372422005234949 0.7160313094425306 9.737568271583756 -1.3050212593317845 -1.2634714609144562 0.8510724273814697
Ni 1.7845043495671542 2.42025916095276 1.3836808659797162 0.5187182630172164 0.17099481528574423 -0.24627748717914358
Ni 2.4298618997608337 4.578181829145868 2.569382038279785 -0.4277536616121859 0.857612799603149 0.059183966559323876
Ni 2.686626774614553 6.403292572789044 0.377650534346553 1.2776025009991998 2.05212778795255 0.9960091121275815
Ni 4.493454493937267 5.752474099084914 12.85015169227996 -0.19261702154121021 -0.5040742878517964 0.44069453804357
Ni 1.9425574972496986 9.029378737607837 9.40583469493648 -0.5530702581345249 -0.5082065648526151 0.661335555601532
Ni 6.348720235816362 2.6464539335875026 2.1616106364692533 -0.47995631175767023 1.3192546293223475 -0.5030826133624884
Ni 5.771578106838535 7.496132216719167 2.7665647323119615 1.9978384304813657 2.149065319111563 1.771093356908195
Ni 3.6617798270812765 5.4319215788346265 7.094943441626638 0.02355413317085621 -0.6195895820129974 -0.46591963115894597
Ni 0.5191115145996245 7.030302526931563 13.052491822688307 -0.5228474546942415 1.4875909239393217 -1.7519833755516214
Ni 2.8738294464407206 1.8761500844933876 10.591738806961597 -0.2590820951429796 -0.5729649401759228 -0.1457617517505683
Ni 5.69013470536257 4.79008780023046 11.271002972944745 0.24972893606285376 -0.21396977618537347 -1.4295390141019122
Ni 7.1904496435953105 2.185826880387557 8.006856785954431 -0.1356920262193921 1.0281219335017262 -0.010407311376253045
P 5.602621561201003 8.386225850790844 8.941533510259823 -0.14319733345750177 0.10859876954702587 -0.19481248653063224
Ni 6.279425544244559 3.418464321278634 6.220264924579143 0.7588852664232479 1.6793895633442948 -0.3638846308723669
P 5.789778110362386 0.3613480172519247 12.194176704652957 -1.8112390758891452 -0.02626536145443218 -2.525477650137296
Ni 3.6088310079089987 3.954843239120172 0.5467565174179867 -0.6653181943983638 0.29751828763199084 -0.3419893734611723
P 1.9400023016206533 5.563998441710702 4.485219753366693 1.0644390227652054 -1.1963155318932495 0.09780836379974123
P 0.4942117327892187 1.7739791574633965 5.950582013772662 1.1131675983191602 0.4426984558474763 -0.1443651285133578
P 6.116474169561931 4.391873937016514 3.819820982870977 0.05491207865684737 -0.7005873020133031 0.07421669252273025
Ni 2.1202957982621458 -0.5088427645120671 0.9164047694244786 -0.5389929541058525 1.0221523461818527 -0.9217014025529418
Ni 5.495266446649266 2.3329581810492 9.917834094626379 -0.39187854498213154 -0.28280849222564197 -0.5659463427662447
Ni 8.270024409133494 7.527412607975822 3.031724854609703 0.24196651850861553 0.3767481170985963 0.5930866506264624
Ni 4.734113334248339 6.44026450088007 9.72714547179582 -0.9199178282899577 0.7525598384258523 -0.4204424726627533
Ni 5.506621846719139 6.278475417350004 5.04381134656831 0.5410148696318876 -0.4442130927197898 0.8450138798922157
Ni 2.7885117411228815 1.4124328127528996 12.997676880498862 1.412105134896181 1.842970602664471 1.5295605835028883
Ni 2.682226672394139 6.836061536459324 11.01665677063231 2.269080558025647 -0.5701413546841987 1.7585777409396877
Ni 3.5694883748480644 7.6575246453320895 5.852483718043116 0.21423948490699235 0.06177409588400328 -1.0090687735250172
Ni 5.149863034613244 0.2888053676260173 6.5386865777164 1.0069139319655434 -0.27727933487729667 -0.3579083586842739
Ni 7.277104906191892 8.718096872979178 7.316117300972972 0.13600801479791416 -0.17321676263772748 2.1466353695138323
Ni 3.097155389325885 7.537513471563564 8.203283990737441 0.6340391817794242 -0.27999544825687905 -0.2691186534433752
Ni 6.97597002781576 0.8102433094373576 0.23047587838001313 0.43845382163850943 1.4241836633272698 2.416749039880625
Ni 1.3676569297803847 4.816045635971016 13.408149225559155 -1.7398971338110487 -2.694299369031121 -0.45815515672217866
Ni -0.15278501691089166 5.003977045900775 3.9143420047198583 1.0067846054765306 -0.02849167968178964 0.06564926256869338
Ni 7.51529157167053 5.286801226357575 2.1366066174364353 -0.594523125962673 -0.7889792575951509 -0.03792685695276049
Ni 2.988112185243047 7.609132745440491 2.6103712504735164 1.3841276758466485 -0.34802220991881355 0.06584723751211241
Ni 4.002598646237748 3.9314037008768348 4.799307720920825 -0.23723491736090108 0.25312150668417055 0.0805979134587257
Ni 0.787694861077651 6.4074712862184935 1.7080698694867547 -0.6370825965914383 -0.12909328995595185 1.62515008527444
Ni 1.586518198714437 7.624131836028318 4.3519372440331585 -0.7456803376971997 0.5956649528765999 0.41875711454053044
Ni 4.11201083163886 8.595825688636227 13.238198275268877 0.9855956301037413 -0.9281281320148919 0.06916961701712603
Ni 0.7596965586470417 3.5228122380864395 8.489086772886006 0.1117152036888205 -1.162268212500553 0.8756228630273242
Ni 8.851824927254528 1.8929202854089275 1.8228156798435138 -0.9364433367488066 0.4141399274834932 0.9367886359033673
Ni 3.203302090060275 4.305052632826709 11.18200375652383 -1.1134154526639082 1.1285440807752305 0.48618712315873036
Ni 4.089908850674265 8.912955907159525 10.834352325806226 1.7288187645097002 -0.0623623642873055 -0.9481662816126897
Ni 0.9977716072769018 2.651591998444464 12.118246806525296 0.09657192028947884 0.5744278978746946 -1.620893366880615
P 9.61851275942956 4.057927394912891 1.9704626318974439 -1.08955330133433 0.11725721655297225 -0.7765160921311337
Ni 5.739098526297492 7.0865906270342185 11.699809077256766 1.049185953260877 1.459304675400119 -0.36282507925960095
P 7.143690486037075 5.082809904549953 7.4516810373067335 0.23177260869474922 0.12801831172421824 -0.2234777156758087
Ni 4.385675050869516 5.823853535104964 3.2615531707761463 -1.3729066103198484 -1.7595940980193436 -1.5150929860143325
P 4.694530863330526 2.1388463340383566 0.7027415248116071 0.23386034446171336 0.38477664383002763 -0.47474957074575014
P 8.83475031675141 2.380427627645113 10.007170928953514 -0.3019662961010155 0.45048941264680475 0.7339980162632649
P 4.630604849939606 9.116559798582959 4.393696704728786 -0.01874514181798707 -0.45927152971480906 -0.7761653936599342
Ni 4.092750006824972 0.6618058149090259 8.491409510284539 1.234077066912739 -0.14172846222145913 1.122346179494635
