# total energy = -381171.9597484444 ev
CRYSTAL
PRIMVEC
9.13900454752036 0.00000000000000 0.00000000000000
0.00000000000000 9.13900454752036 0.00000000000000
0.00000000000000 0.00000000000000 13.37585694003191
PRIMCOORD
 96 1
Ni 5.348081571872732 4.992519455382479 11.327157497499762 1.4013656369914897 -1.5840723413975237 -0.01586499205671461
Ni 1.454088758302862 4.564329668616484 12.45812577816286 -0.21291433833766557 -1.5428336464627106 -0.4409619327723438
Ni 0.7144197580719154 3.289986854567215 10.24797995641797 -0.3106399126156134 -0.42162286612409966 0.8600584329301639
Ni 2.090529044952253 4.550511493524383 8.731639039864538 -0.5017284133274392 -0.9665113597787808 -0.48033734924617283
Ni 4.323827621180164 5.989374670012801 0.9442712094418777 -0.4974506118876917 0.04925050949569583 -0.08752009449985573
Ni 2.245005641236496 6.114533339249784 3.8453851893222812 1.5757262834256733 0.4003999521895814 0.22391608876480792
Ni 2.213704550171387 7.469473035664948 8.45173600150588 -0.2039350176571907 1.58563325812674 1.503322732852282
Ni 2.4524976037305763 0.7333731398996318 2.286441888503416 1.4210811131425463 -0.39239636515881454 -1.2831545411656806
Ni 5.996905209877809 6.313653973447327 6.144333805744705 -0.9453560658574042 -1.4104547437769515 -0.48627942576222066
Ni 7.765448841572863 6.1603837257822365 1.3667719657880104 0.9823411277221856 2.2468747113525693 2.051583742523621
Ni 1.5522325296745996 8.16672425952521 3.6387011148428448 -1.0406671171565882 2.5504003815209044 -0.29576145284188415
Ni 7.181713194973831 2.1755035105649188 1.5968902760949366 -0.4918108971034111 -0.08779983052380362 0.8729864538457417
Ni 0.1555705351457006 6.265774727873574 3.27613486515776 -1.7381009611425742 -0.23143090908461433 -0.27599841128234404
Ni 4.232638632377929 3.6434287219692627 13.083514266439977 -0.599100203810394 0.2890151352569861 0.2643651979187899
Ni 8.45841387223326 0.4698773566619058 4.258444439922614 2.1018845476607027 1.1714984728495694 0.0491018997329735
Ni 7.145568431422736 6.436856895680532 10.02097804671052 1.4977077006583497 -1.3198305564304755 1.2433160690125038
Ni 8.336490410656731 1.480966571097748 8.854202231769406 0.8899493069523254 -0.09281862389463369 -0.06394179295928343
Ni 6.589076157806211 3.329449076820979 12.943428860841932 -0.21942514287298984 -0.728393525592294 0.1673567043125247
Ni 3.762537370101105 2.0462140112078115 9.613536542293462 -1.930407136311585 -1.61994000182841 0.4267529882618134
Ni 3.286047943545592 3.98071282907843 10.928944560019216 -0.3824353972913607 1.2217663678661863 -0.52985473925001
Ni 5.782622966898655 4.242115780242021 1.5342908356661262 0.4955572515197207 -0.14090648054079605 2.1749704690130995
Ni 6.956034613145571 8.684019342023996 9.375726845638976 -0.12079016940689519 0.3043898179408435 -0.3099058626630663
Ni 8.03671277879755 9.201332702532165 0.531856258672228 -0.4647996586218898 -0.7409160835393369 -0.33475891715100414
Ni 4.58260767799757 2.0829985050872457 1.8936465530034234 0.3206520454359768 0.9762167599920026 -1.2020902295934977
P 5.170318791636987 2.5570660953997657 11.380005619923763 -0.015973749720437004 -0.05644111370686408 -0.3498978296749716
Ni 0.4316973367662257 6.589112713824973 12.52622232991303 1.2641723436362229 0.8536075350984977 -0.06519597708135869
P 5.4046428719025 7.019961950955917 11.178070172281531 -0.028562385018725 2.3754877192379924 -0.34840941805490316
Ni 1.1692990941361716 9.342804495141765 12.730057776630426 1.0099591465497704 0.28712228910964743 -0.24915018074124837
P 8.134664631070786 8.231346161692038 2.5960530894096205 0.6527686398681274 -0.9151039518410821 0.2573627984590277
P 7.146071076680715 4.748370945074633 7.131886427500524 -0.3603300807518891 -1.0601699630762065 1.5569893691378025
P 6.02370077163048 0.19814733019800074 1.400078154482224 -0.7551484250886349 1.9384138086661453 0.7080093055089871
Ni 3.459085858356326 5.860925959087225 7.54886539721263 0.9360990660355103 -1.2067192437250767 -1.347802616163369
Ni 5.65100302134546 6.489287365590175 8.455521377248704 -0.8390589478603615 -0.9338287819440949 -0.443715584258081
Ni 7.46579915577935 7.562434991377148 7.312754641530115 0.8559454392030548 1.200041574594585 -0.024018988622416696
Ni 4.74091351724715 8.62379330111332 9.192143433315824 -0.3693525959654736 0.456720224047865 0.46897564437645034
Ni 3.6937389427907 5.860642649941818 9.82230613764328 0.1583023074197403 2.4790255293223433 0.029409049289736446
Ni 0.21966877234375967 1.2214279768910268 2.0915827721930724 -0.46460476900226433 -0.46213650996742994 -0.2318579693197039
Ni 7.715814907098526 2.538852059051514 11.089548858948467 -0.7228432851980261 -2.2069714473997277 -0.9065964285907032
Ni 2.4636380504483477 3.9381159282158102 4.059104469612498 -0.5084652178306405 -0.3572974645731524 -0.8095007745872704
Ni 3.4514090944162708 6.126825300558563 12.187024515221664 -1.130475750580305 1.3319556218287836 0.42751094947376056
Ni 3.505055051949756 8.788651806726019 11.004906139206069 -0.9848744356670007 -0.44209398949425793 1.8669247994872233
Ni 4.998468947436023 4.13750159354938 6.897501115903583 1.963862330646237 -1.915269252228882 1.5116173687609062
Ni 7.755935137690008 4.003021139528045 9.197814185726305 -0.842185152194169 0.6871082936902618 -0.20488195495149233
Ni 0.5691872650321567 8.944974481957752 7.496178121271183 -1.5374353582652749 0.27524482094577113 -1.2693047797667816
Ni 6.934521396104033 5.836652762629144 3.8096315751719403 -0.6028311316077359 -1.4669670770413832 -0.8926708196485464
Ni 4.369988733872095 7.992196686949917 7.16689155716671 0.1786926981506342 0.7121112434925027 -1.7911034814815348
Ni 5.256910861079879 0.5958905228374533 5.67244678195135 0.826727679988518 1.1960121417202176 1.4402103777728292
Ni 0.9958956191378151 7.8716989101051125 1.1860234727198646 -0.39631086972187235 0.07563645568839232 0.8920033612678766
Ni 1.8725637830828106 5.629800530463401 1.1984031684736738 0.12987824775109244 0.0271891588202822 0.22536541961682477
Ni 5.044191387902808 3.9288032824361476 9.3393983880936 0.9790359746083526 0.5924474743805668 -1.4591936037435516
Ni 2.28987815426706 2.33551834369163 11.6824335631432 -0.9071602715139733 -2.722270657433066 1.4549289149299265
Ni 9.563237288277653 6.262566937227193 7.627783444416874 -0.5511175052835282 -0.9186219922966695 0.3079991325586567
Ni 3.0323857293548895 0.05939073588196055 5.277097094640349 -0.42191211522974437 -0.09132327029602982 -0.48449148062386244
Ni 8.639439277143529 0.26853868602596753 11.096263285694608 -1.4882288146336369 -0.15827531083654678 0.4416967540558393
Ni 3.8786667027038306 5.1212880314722256 5.388772076356904 -0.36443047607350787 1.3297781545614904 -1.2774772882752452
Ni 1.4684918296951572 5.225235070822458 5.8750237877228555 0.3921791069416859 -0.1649828047637094 0.06884154425374596
P 2.6693387680230822 7.247925283956813 6.0494051362231005 -1.2027448324583607 -0.8206470210120771 -0.4686627411217219
Ni 1.1634227141201525 1.3129276918527402 5.735727992130074 -1.0651165084482044 1.2838474534676472 -1.0927103589060732
P 3.0479494543428833 8.118433758740382 0.16335970884345008 -0.2326030750158446 0.08748358483496546 -0.28448356593521973
Ni 0.33064279240055017 7.612909714283015 5.393894488485953 0.6496051545384812 0.2032629312908306 1.648801920365425
P 8.603943382925461 4.613451818828151 0.3805582082193561 1.583567890957279 -1.8700101232807667 -0.5469227504758905
P 4.631044402857446 1.864521458955133 7.61456752973388 -0.4666698790614092 0.2893702046035597 -1.714728090744589
P 1.502964155387884 2.0711543550083027 3.5523201564083045 -0.9639232873366301 0.10439347321642668 1.8236958135952595
Ni 4.510354706914139 5.813997170001288 3.2455447886575755 -0.32629818797816057 -2.4216279652394808 0.010923074670406995
Ni 5.296108052197616 3.5952021942172685 3.9203433057941126 0.9455926073482425 1.4078872401600915 0.3410740607357545
Ni 9.078778649631987 3.3948386553818115 4.798936144126936 0.9931647007002509 0.07032507077780792 -0.8789501276283443
Ni 2.7803593970037945 3.2528368005001593 6.602496786194274 -0.3889978810002268 -0.6892705914489032 0.2542425076624912
Ni 0.7255008012591984 3.739973167520155 2.22124879854343 -1.5171197866363744 0.4313601480165216 0.214600724901153
Ni 3.240581395210142 7.60323150831573 2.29728988707109 1.09687528891704 0.05722247195757887 -0.6581977813034986
Ni 8.005484799769967 4.632040554368715 11.70984052430967 0.9184756965267924 2.10907258076871 -0.8150268466118221
Ni 8.306697255365561 5.637513850422219 5.658027260350611 0.10387513881911141 -0.4398519875376167 -0.4918024124629788
Ni 6.332964690358444 5.6911872249697755 13.236882301455257 -0.5277019545730653 0.8324044186583213 -1.4842245785702504
Ni 8.837088531585897 3.2393476295769186 7.13242197317539 0.679080795400095 0.4240101354093537 0.06472546520284336
Ni 5.355027215437545 8.065765674708786 13.271030192481469 -0.5169922814650451 -0.7537667142497599 -0.9463397699269122
Ni 7.117511687022769 7.975042775145768 4.945977246194953 -1.1351980957566383 -0.31937369294418544 -0.27833914360037876
Ni 8.907102446520142 7.800030835321876 9.190899614777441 1.8703358820513012 -0.34716628967642144 2.3625509565716665
Ni 2.5454412814333955 0.8574150227634292 7.508403367845722 2.1687085472637873 0.45501069755592605 1.5517772288092437
Ni 2.154191351626573 2.680232461614209 0.6002936952973568 -0.03755687520785145 -0.7356324665428944 0.6233408215253136
Ni 7.617342131557928 7.505133431967446 12.257340931211168 -1.584237149110162 0.532180044949077 -0.8110622055371193
Ni 4.6424041856877905 7.54226520802512 4.761591429259972 -0.5236900052001948 -0.17806123521422237 -0.38914391965978784
Ni -0.30104703961069684 2.242583804993502 13.390570201634706 1.0105098768469178 1.4361801735675137 -1.8058186762045223
Ni 4.068639193206141 1.0896069732346396 -0.296992063229503 -0.28582928132983676 -0.3054915356454545 -0.22100020066959358
Ni 6.956710899492671 2.623524937509392 5.771213833442982 -0.3593078101349618 0.36790172245155994 0.6029208631080648
Ni 0.5761557561086955 5.641480178457914 10.147955377880917 -0.2237757065322017 1.3171692075482284 0.3228745070085923
Ni 3.6904397620974136 2.0873395323152537 4.07928887537203 -0.9558348539015409 -0.7602564357391617 1.6463277477933196
Ni 6.440713555659942 1.4863951398839303 3.831701357599132 0.4019176743856885 0.7125465312577083 -0.8698707910348955
Ni 1.4797602224785964 0.7869386741918404 10.131475924622931 0.45344309595849003 -0.03488498480264314 -1.6176584048830849
Ni 4.650903460049995 0.30526012077303694 3.2825294267397327 0.13185234075832777 -2.9982965795192364 -0.5041048839794157
P 3.4170921318032828 4.029825840285406 1.7652517622055204 0.2217044258254698 0.6896302887811671 0.9380412773635459
Ni 5.891696987880282 0.5650454681064027 11.065230881367402 -0.12792420934851517 -1.0141379605178082 2.7175894499073134
P 1.3069690607945061 2.477035831324683 8.379345945352092 0.5432758977519224 -0.8631051901762877 -0.4886872638727648
Ni 5.83153492000244 7.458743844158251 2.560607459717351 1.2406593481159471 1.1870760155728526 -1.1630922510637451
P 7.598488364881339 0.5703232433151911 6.384470292993404 0.48706618332957413 -0.275324525143771 0.0724572866294623
P 7.549265685618076 3.628788036455013 3.3383733149012937 -1.2509478745261489 0.1257714246715705 -0.2839300074245949
P 1.550285921675514 7.721535924034805 10.707989015815027 -0.5320111234713806 -0.42408829694545674 0.15694425072994905
Ni 6.011536756387367 1.7558038591564373 9.213384308017583 1.6417450135186435 0.8719400148590983 -1.0720070649204507
