# total energy = -340896.19978647376 ev
CRYSTAL
PRIMVEC
9.02429832919243 0.00000000000000 0.00000000000000

0.00000000000000 9.02429832919243 0.00000000000000

0.00000000000000 0.00000000000000 13.20797279483316

PRIMCOORD
 96 1
Ni 6.42494831534483 1.851181346691225 11.401465197040979 -0.1629842862764419 -0.23519114745799494 0.45393597643450856
Ni 4.593430914261773 0.1816022681207324 5.930155073605407 -0.758661580448216 0.5038485449942355 -0.22571586097770804
Ni 2.704546050016201 1.803009643315182 4.835768513604207 0.4967880386030283 -0.9385799234758353 -0.09473718107358522
Ni 3.513141210357185 4.300754877564168 4.853798158822452 -0.5772915925757348 -0.12245624425540845 0.6406520591102515
Ni 5.109792228513138 4.512383692826734 2.6074518216603524 0.2728390397177559 0.4090784538001858 0.34811682651514886
Ni 7.4127028663048815 6.06135031970524 2.5346491989897104 -0.6234025280011845 -0.4008609509864 0.3305412795252307
Ni 4.988785414993213 4.661672656661479 11.44551369860501 0.5897578433635456 -0.15575794373133175 0.1677688521492788
Ni 5.727171535943862 7.860885608243394 12.290362171792113 -1.0359434864286738 0.5681245813644861 1.0398173675617834
Ni 1.7381159155187935 6.622427031151864 0.4608366127653933 1.1428784951200317 -0.4407099646625377 -0.4402440807697128
Ni 2.5923198785691297 1.6619147421753495 0.34877919569320626 1.2351790417276662 -0.06466787249203056 0.09202492434874474
Ni 0.6048174844446899 9.080248770508453 4.808072040237513 -0.586331591290816 0.150089946812277 -0.6788221424220696
Ni 8.783069609047894 2.355107178130265 1.3840367495384478 -0.4389706133739279 0.6921276012817241 0.1122782752811421
Ni 6.791343843402288 0.7400465918051243 4.806380886769421 0.5031486907137335 -0.3603853594698568 -0.8316004346997872
Ni 0.9206318215274903 7.400456893753121 2.633009536372097 -0.3110777714839804 -0.11372914879505576 0.37483547345691576
Ni 7.634032802048759 3.878498944130595 3.938578208878816 -0.061595661324610036 -0.5469268642409484 -1.3499448593173526
Ni 7.526923407636947 3.9274828343376313 12.404848929918785 0.5489477513257192 -0.5181716464851269 0.3390017515877581
Ni 7.957626084112854 8.98361658621646 6.846312648123935 0.43250943112961643 -1.055500325514679 0.02540532744698205
Ni 7.233362989723372 0.5221377674793536 0.516198876885166 -0.9555983124107027 0.5173373235092897 -0.5296835037794684
Ni 1.875438660043567 6.376713441881933 9.298016815783518 -0.6447825363388574 -0.39415988481714054 -1.407698778298369
Ni 0.12683109552796065 4.9888124878875795 1.2060802978590646 -0.19991252676135896 -1.0595660109436205 1.107958286204079
Ni 6.353232218168096 1.8695367690716802 6.830965024307592 -0.08363335785093984 1.147783902841449 0.6196775137411134
Ni 3.7198427588450564 4.194033527971609 0.5299925165648739 -0.7128581489608562 0.4552516099221385 -0.08925841734720111
Ni 6.109070808175175 5.5290701435664005 4.682648735216607 -0.8702975941596689 1.3250455249725117 0.675399489893766
Ni 5.21849892369257 2.611334074712502 9.383419163492308 -0.11488357411447311 0.6631227294089418 -1.3746259070038005
P 0.23579949535293537 5.683358568560818 12.391151850228983 -0.3238093601180359 -0.8167183753816322 -0.24324024301471656
P 4.014711699986344 6.114783188886498 12.700482229111017 -0.1981073552318201 0.7332498252433307 -0.10277547799702946
P 2.41214074226226 8.521175453244947 1.483374418407463 -0.11276447088894129 0.5721172474636469 0.08620240412969671
P 6.312866532667713 7.753505484887918 5.951274638500678 0.1471714876139014 0.07600746587456586 -1.4156612276785554
P 4.55474374821211 1.0164427946903687 12.524961435494802 0.6205519459262668 0.40028862342269766 -0.10663804627622925
P 3.9864746711621333 6.137831246290471 8.268599787682932 -1.330508862079928 0.1616210873803281 0.6167618827562152
P 4.6811561163072035 1.06536351481055 3.6968326034931955 -0.4937438524600658 -1.0098357335980286 0.10332080897753819
P 0.1894416758994451 5.498811671962828 3.617993627808647 0.8844103794119672 -0.1318220017410246 -0.14398023437011334
Ni 1.5949634744071104 1.2566876592982756 2.5673658894017573 -0.5628566480973274 -0.6545095338186341 0.4955973607290369
Ni 1.7739062818712448 6.436336979574985 4.8232743728540886 0.7885683953099774 -0.051859664983768754 -0.06440793396242456
Ni 5.807596080808473 5.476007270608152 9.237140705511111 0.31455544561993565 0.5447177724047716 0.0786212493483291
Ni 8.5143530838646 2.410263688252853 10.016041412881156 0.2526682211968358 -0.3340906874393859 1.104584998856472
Ni 2.384291758257302 5.150311327081596 6.93921779729148 -0.8811422501836567 0.6981028450285526 0.8410512957000419
Ni 0.579961860126849 9.038917485109 9.002355541267105 -0.48607425172995 -0.17519676918223376 0.055351223076795
Ni 1.52616222552383 1.2670565778406275 11.40480689463561 -0.4863218489643818 0.3072470848839805 -0.4791988647663554
Ni 4.041766545756553 6.921826169950471 1.6000928854597412 0.5179613302465338 -0.7332894202320146 0.24097098736456565
Ni 5.600154539874585 7.693123906152604 8.044460587933628 -0.3269653892485143 0.6877371855235124 0.3760904289099394
Ni 5.288157480897455 2.8368603090831805 4.64964236483484 0.5686629703664594 0.5704887107212885 0.9132370738356723
Ni 0.7170454607513856 7.278818379364647 6.950484633496986 -0.017959155581581975 0.5220056755192365 0.09787906913667659
Ni 4.824254411630154 4.678674434323613 6.949440522204253 1.5446370182200366 0.004338993694986076 -0.20499405504932436
Ni 7.962020917298342 7.164002234356519 8.982240380752831 0.7071994080131822 0.7709758790391947 0.6066132243579876
Ni 4.523113583293971 0.3291937614787017 10.300105561880795 -0.0901557323504899 -0.6523174112633217 0.34824409612163254
Ni 8.15016850884707 7.051604601245127 4.777600595198257 -0.26153981265485277 1.044709148436446 0.17024713848644227
Ni 7.245816521131941 6.090363438167955 6.996408384210802 -0.9920964073367367 -0.6256018496453484 -0.13083495523740693
Ni 2.639652322219812 5.103168393691479 2.781969113325384 -1.4540038320124957 0.557177338324363 -1.3763197497664557
Ni 2.502464942166871 4.90059094944543 11.518487782939975 0.06602541496118952 1.5491238503467966 -0.04574018234959219
Ni 1.173998015605005 3.40748472794304 3.7936073716955194 -0.7287671068816288 0.383287717989327 -0.16905671772276692
Ni 3.5879526417898178 2.7105111110749425 2.6881001691183926 0.0565861239251606 -0.14921371485491075 -0.5056094935494002
Ni 0.958588019429258 3.302432873503079 8.16326637514156 -0.16539880925520548 1.0158027498147408 0.11492985397137626
Ni 3.7219363960093954 2.706233593765043 6.961089988650138 -0.266792833523676 -1.2612525988862666 0.3386942476496683
Ni 4.00357571610361 6.846013041426279 6.1105498906373965 0.4077553641133881 0.2846679140318839 -0.49299566144013157
Ni 0.6228209591983813 7.318236513562203 11.118630157445581 0.15828071015318546 0.425328597110461 0.21237080712936973
P 0.08526247108789595 5.57823451973588 8.095562480909933 0.9824221174717661 -1.1819255817201646 0.3863434740965153
P 8.390404349156855 1.708227440138229 7.934650221093857 0.1502609251725025 0.05600634016229065 0.08070075758517714
P 1.7912600071601414 3.3067103908129782 10.296023871840145 -0.5880560301810905 -1.251521744751748 0.38972216076076105
P 4.085281711301565 6.165102675215611 3.965006768359348 0.15609501535577633 0.7082687298179609 -1.14000760133014
P 6.712300016150366 3.8547921129637044 10.365313335251832 0.9374021011176501 0.1637759289398018 0.20817039589477696
P 6.418279359032561 7.785668083395264 10.261551053013527 -1.4998190905743976 0.14899697085841435 -0.561916138560929
P 2.3284494014774313 8.354659104295013 5.888021528102895 0.14646443424454775 0.7493654998582707 1.1776657780025461
P 6.981548974922867 3.881296476548462 1.717049593982444 0.5700264263728892 0.32996766640994785 -0.6866539797616626
Ni 5.550177976874112 2.7628520401834193 0.4113058500921547 -0.16388700059636935 -0.47879674423193025 -0.4833445115036127
Ni 1.412022902874863 1.2049874553564721 6.908166089882971 0.12689448253242017 -0.5221324309050879 0.18422262682992788
Ni 6.686977835619611 0.7025434136690888 9.108970404141823 0.8015344685523421 -0.4335599838813179 -0.04071907498591697
Ni 2.576419065277899 1.5701827517636835 9.195139817190995 0.6101058108922783 -0.14947133939167162 -0.6669968676523674
Ni 6.3527900275601095 1.8954004074897652 2.547725406968708 1.093828531670916 -0.1051025834683093 0.07359371422675068
Ni 3.7962875882377984 6.886351654032295 10.435499813896863 1.5609028452595957 0.3039439886526766 0.860866016433124
Ni 8.323435032792371 7.321277702029368 0.38471034109636315 -0.22509956754994784 -0.8571862535886915 -0.19359481207344723
Ni 7.488136974307943 3.84487440932746 8.248906964320774 0.16191187914786953 0.020336140454190785 -0.5053706380657168
Ni 3.166842794217758 8.264542463247214 12.599547259474381 0.09935925322662889 0.4688200926351926 -0.7892924179601954
Ni 0.1673168041933672 4.8586821089661605 10.34325614578167 -0.5562869652996096 -0.36605747015396956 -0.5519636553339075
Ni 8.591655221578947 2.5160735837350745 5.6315753410762905 0.24208633191593146 -0.9376756664940109 0.9383606083761775
Ni 3.796820021827006 2.6440110582128113 11.210715900343635 -0.8677974534456345 -0.44204693830640646 1.191606299343038
Ni 0.982601676732302 3.4430585111405594 12.548801826273902 -0.25896073907376693 0.01297661476532604 -0.07338828308416392
Ni 3.1310885250577956 8.290505368944643 8.192799293176112 -0.1911124119712257 0.3062633808144725 -0.6189066970133599
Ni 5.462768625262957 7.991097205847912 3.682039071581553 0.20349741589913983 -0.9082874431398809 -0.11217954491974874
Ni 3.002131304892256 8.481188788265696 3.852580257493965 0.6058596340214146 -0.21039697123245055 -1.075147153211329
Ni 3.348538012609149 4.092916267512906 9.095326567810943 0.567862328842035 0.9995279239141174 -0.2801761968091175
Ni 7.238849762981639 6.151836956976049 11.459474287799978 0.3587336827990467 -0.2899355901887265 -0.5377256573576545
Ni 0.6415581093894037 0.1596858577012762 0.16796474879853765 0.5502800969838975 -0.2349191247435309 0.4867720491279229
Ni 4.678909066074788 0.20434530424817768 1.4656750625004882 0.08898099531609836 0.8048997854801493 -0.11345686897027557
Ni 6.126487703550927 5.482955980162209 0.42948259136979144 -0.7690506369920239 1.0219577136725433 0.005957760245331675
Ni 7.9537456359203285 8.896983324243807 11.299262313518181 0.5212831955309152 0.5602996860034285 0.19503771516756088
Ni -0.026344633507995752 4.970863158922621 5.829431272544829 0.6439119608084459 -1.0403953515524405 0.3972218115719159
Ni 7.826196206261845 8.545974224484617 2.7205650816128313 0.1025008841794041 0.7113589387075104 0.49767686896588487
P 8.48125195835255 1.5396806241108125 3.5071265156587716 0.21946910873704784 0.3351348124331841 0.2588005593468188
P 1.8302269264515898 3.466494613363786 1.4000323179599607 0.10876923368661913 -0.5488780744300482 0.9315584978526795
P 4.679089552037232 0.9705091172486197 7.989238200434749 -0.3155473772195598 -0.14659838871925077 0.873906651667166
P 8.528133187097126 1.819009723885756 12.336655918728937 -0.7363348919265577 -0.8425350793344198 0.15253480880834375
P 6.417665706760254 7.6168144412316945 1.3332786823205967 -1.3682480285019145 0.18496001921658467 0.42020001763464404
P 1.764719546382895 3.325517028099541 6.094528151751328 -0.41445463051043463 -0.8334691124774097 -1.3112276452528127
P 6.743000678361924 4.010759057408842 6.099348931808182 0.5267352197844218 -0.5687313617105495 -0.31083814466934856
P 2.2577620742866213 8.55013442591893 10.325715617521645 0.8776290948240756 -0.27567110984991233 -0.28241074256659104
