# total energy = -340887.2592086126 ev
CRYSTAL
PRIMVEC
9.10740779065287 0.00000000000000 0.00000000000000
0.00000000000000 9.10740779065287 0.00000000000000
0.00000000000000 0.00000000000000 13.32961189251082
PRIMCOORD
 96 1
Ni 6.64657690027386 1.857428441365572 11.193074879160422 0.021806811462446316 1.5657748286399165 0.7758226656085347
Ni 4.5826106711826124 0.25278338162784714 5.811657137411448 -0.545036589196771 0.47659536570523725 0.08421802670981625
Ni 2.892494413356524 1.6422204016813968 4.327231678411727 0.26121662498747916 -0.42142052030530647 0.5017978331127938
Ni 3.4259243791771676 4.579404863735773 4.739556803483477 0.8465002346297551 -1.3488768230641544 0.5144052374641592
Ni 3.7897379873559127 2.551212531380853 2.0823386022801977 0.3976905236782183 0.5023195099442188 1.2596831975166176
Ni 5.1325979038735845 4.499724155348263 2.720080260124655 0.5186182471042423 0.4271882760270192 -0.2556666417035275
Ni 5.12625004083254 4.695260194790466 11.452401933090982 1.3061312045665117 1.2727132912276984 -0.21687460853699422
Ni 6.002655866427469 8.33653833217212 12.215429642476503 -2.667559896153748 0.35811738937128645 -0.41918546032720067
Ni 2.084385036749814 6.399584008346869 0.24338818003080123 1.5283884175716582 -0.4263673227876205 -0.5099790833720056
Ni 3.002958159159713 1.3686976316502995 0.280999951604551 -0.9879296775535568 1.6218079082750843 -0.5983946931029371
Ni 8.289425713074099 9.116697075101692 6.59637140558224 -0.829878566912674 -1.5381604093567574 1.8371061734638943
Ni 8.789294882185636 2.5735074649884226 1.2301102114271045 -0.3608463582666753 0.13610571671804303 0.786392213594265
Ni 6.908159859046983 0.6994142893437939 4.799086461993492 -0.6659026061469242 0.9518478442293348 -1.4537053269354707
Ni 0.40498546535184066 7.452819258339086 1.3618060563803454 0.16589194684154013 -0.02469673141573166 1.5222828188945523
Ni 7.553000741052837 4.628083956927137 3.7234934372818214 1.6932349538678193 -1.8962464312694762 -0.0012349008483656153
Ni 7.886987589605443 4.237931726202194 12.747161076794773 -1.7918462731848301 -0.1229684080051366 -0.5946683932912855
Ni 8.598704165026485 7.274450682071014 8.902008157646124 -0.7884184999956745 -0.2598158879852106 1.3569832542213727
Ni 7.105508272585553 0.9631083451799204 0.4119198454371361 -0.38684406788201764 -0.12761464852789633 -0.8978047984410022
Ni 1.9896679985477228 6.745574420010086 9.182755834062387 0.6857615498543803 -0.12220993257255727 -0.4210757353713781
Ni 0.492057745682121 4.978072520491383 1.6260656822234287 -1.524097246395472 -0.007496051266729025 -0.5228752226083834
Ni 6.424492767912515 2.050915314115902 6.811111324519917 0.05369337575839785 -0.14339376573902402 0.9928661956232255
Ni 3.8262313692862766 4.363422694412446 0.30036503221311894 -1.6909052772933781 1.0438388300163508 -0.24457721665858523
Ni 5.99590727745557 5.872183146304088 4.898125875804307 -0.349862605561662 0.04032698175382087 0.12880918305662978
Ni 5.608359765281185 2.773296663742199 9.089382138469412 0.009490455988938495 0.4860557397871887 0.09550465536722907
P 0.09134092223463806 5.996353540424022 12.746774011975198 0.7830024711864257 -0.16031419564344648 -0.1012227887979289
P 4.15431661776629 6.4910132724344445 12.558733368921487 0.3182380366778455 -0.9729889970833244 -0.23220609668774206
P 2.4632076525205826 8.49682870451412 1.0147364169260757 -0.5905492289165893 -0.39846956793608795 2.2502811659309567
P 6.392534874926828 8.086020873535107 5.8966338032715075 -0.038929587185661994 -2.4122352111706715 0.5902494382879835
P 4.8790203563100425 1.216221414959971 12.496683690750846 -0.12432363648145042 -1.0419848075267475 0.4880313754563208
P 4.330845497715438 5.917483391305742 8.225290438581506 -1.5218177063326759 2.2361784079809874 -0.7856877313280728
P 4.988837476179352 1.0852386800155018 3.6925956465313967 -0.5965591825560952 0.4352509984304956 -0.7980753063591481
P 0.26429241251015323 6.119467475271702 3.4097814993489752 0.544920889554513 -0.3559718037831934 -0.5158368277043631
Ni 0.43698525241211644 0.09700481897097275 4.703860319711065 1.0770654532799644 -0.7580807682440815 0.32374096877394565
Ni 1.9520179758623915 6.687004682252618 4.808377839144817 -0.32047875308290613 0.977569160254839 0.2489205812289455
Ni 6.2042938689076905 5.731327981608555 9.167666681284194 0.9398580188573105 -0.25533831182983124 0.7420594531151607
Ni 9.068883185624676 2.7473041226817405 9.872576380325212 -0.7783852841293885 -1.109756258644766 0.48872711597176477
Ni 2.492369571397804 5.188854360121115 6.960896302288254 1.2747254365617209 1.267935667333397 0.41855888248679535
Ni 0.7141992547108397 0.12936525936901808 8.798943269711721 0.7834205325604507 0.9079226036012945 0.8971846483585
Ni 1.4308283657478635 1.5374761078004109 11.576620596470768 0.7539220088807016 0.4464471242566311 -1.624252513160835
Ni 4.266155582104913 6.690010126734031 1.630451809684787 0.40266612251593875 0.9496081562655388 -0.37128657976339285
Ni 5.559507631346953 7.929136671605374 8.127077066632706 0.11297118758310867 -0.1869171429429555 -0.43503322599273464
Ni 5.444098563260712 3.149642064667683 4.753819003658909 -0.21787785299052798 -0.6370255181012577 -0.21759965962847685
Ni 1.1271054323823302 7.601470363871254 7.042526906625674 -1.3944277722210758 -1.172461093873155 -0.04546533142165073
Ni 5.539689912584669 4.546253900365041 7.121598329450132 -0.6025405969505107 -0.7863803865197232 -0.34788568434094924
Ni 0.8823784634461724 7.563046211546771 11.312121445809925 -0.06501548563943642 0.14523287583029182 0.047806835070633796
Ni 4.683857720576137 0.6599855899699175 10.40082969571181 -0.33559786811253167 -1.514797309150785 -0.6944235964047524
Ni 8.344762321162166 7.194879262573737 4.838888565075666 -1.4077136906967047 0.45770572788958586 0.42699724306213555
Ni 7.5555326003432395 6.330176455641277 6.96049648709815 -0.4167033173352953 -0.3024398933033243 -0.39131907293423573
Ni 2.7690981488757416 5.02799022110539 2.410353723722312 -0.8702986226009335 -0.7542570236226172 -0.13548788062838601
Ni 2.536212631196349 5.606210417106599 11.272279270134666 1.2924804465522968 -0.5327945386046243 0.6504572181261313
Ni 0.9631629896250371 3.3034024258182506 3.6361980254673147 0.09463510827808218 0.0081226291071344 0.2219635930241274
Ni 1.2006204258791842 0.5949313780586157 2.655578867849783 0.5444208099896429 1.1864517517252922 -2.263882301654159
Ni 1.1952470554427195 3.500541368983873 7.800915302620797 -0.3987385053267584 -1.6334714606559415 0.33394464877982494
Ni 3.7860585947180625 2.6079881098569913 7.114720415291457 0.31954235731156583 0.6708383528856446 -0.8361726274515018
Ni 4.274324926649844 6.90468993678208 6.149296056379346 -0.6632096326957934 0.07114550979657426 0.26649098601254106
Ni 0.7002585460208453 0.35664516772020016 0.0512464713710912 -0.873158974867864 -0.2888595835157283 0.32373839767078444
P 0.4716471346903222 5.548023190464949 7.953819567464538 0.16667793307794518 0.8386383153831751 -0.17495020038906642
P 8.484315126582421 1.6252168718426174 7.958950680860985 0.5316892213555876 1.9701692467008716 -0.01154348186322528
P 1.912992734641626 3.577917903268966 10.462679010917025 0.7033337544101887 -0.6819568313963094 0.11242174283754185
P 3.794783491121678 6.344065252108411 3.829304208583333 2.7095323839307914 0.8965120477715077 -0.8052134600658263
P 7.124533646893645 3.993980708386692 10.411226712135994 -0.20082115461855737 0.6759365933441585 -0.394344747134437
P 6.807067635581289 7.887825471097231 10.237554825925692 -1.0687309652723402 0.2141734075557473 -1.1911015917924779
P 2.3413778621331427 8.717355470189643 5.777306728470406 2.3014327491041073 -1.0035475865964716 -2.188538180395205
P 7.0002630712909975 4.375799661231354 1.503540085901504 0.16851472917636784 -2.0466983894068624 0.6146286384632963
Ni 5.542695357066082 3.039724763315659 -0.07625359093794724 1.5334514339168621 -0.11201576564837482 0.9618869736328919
Ni 1.4169486766882495 1.251266719094745 6.539987445629438 0.556911486257486 1.6236015098403973 1.8180879804901786
Ni 6.967631230148873 0.5740936296541556 9.126878245967665 -0.31262403292517776 0.6441919539427099 -1.379946033665133
Ni 2.876155724266663 1.8829656120500589 9.18462194186312 -0.9815510277207224 -0.5936378951442421 0.5659072619981931
Ni 6.59721475151854 2.06810099210507 2.3807355237283674 -0.25489248254166424 0.8708899763280292 1.3661062995685633
Ni 4.346473809018783 7.158394988050893 10.227637769877783 -0.015678844187837514 0.21247262281455664 0.40551541903927585
Ni 7.977852194426815 7.767361791837705 12.962527585369786 1.8671631407502747 -0.032464805396924735 -0.6886368145196462
Ni 7.91043916396798 4.151229206617202 8.201803345329644 -0.6253704503608327 -0.6748775559520248 -0.2629310365754246
Ni 3.1252068902930468 8.494488100781627 12.329890629439971 0.9440694858354968 -0.3956961189560088 -1.2866916077846615
Ni 0.4030428553279458 5.15270705967649 10.492710687212352 -1.3032597965559878 -0.2003961512659968 -0.7103423245175379
Ni 8.587219724144482 2.322999113758929 5.7498879673924055 0.3496808285681591 1.7816868161533252 -0.38826331682704746
Ni 3.9010122924283315 2.8106825716094668 11.24283411088359 -0.7646249971205025 -0.657312550485068 1.0219284030965046
Ni 1.0440823054351893 3.846704821389959 12.687230692353904 1.638035168767224 -0.35472224764680843 -0.04659918791577781
Ni 3.083904797192423 8.758885248478254 7.918935464442858 0.1688461443738576 -0.3064140474597239 0.22387675088644024
Ni 5.637375965638095 7.871741789417913 3.585105469283302 -0.6043406262737269 0.7469702601532167 -0.0390440012763392
Ni 3.0364643114237024 8.19291451559068 3.190255637759837 -0.13700354594196404 1.5754241788042223 0.036104201921724914
Ni 3.749856649828321 4.300344789932861 9.40693375941245 -0.657522609613345 -0.044661090352800505 -0.632707093231562
Ni 7.467782728893513 6.224949469161762 11.194834430293175 0.04899082807640595 -1.6341155219978438 1.1388351782885935
Ni 8.061494625085277 8.563312779405974 2.841526628655527 0.030170095825477073 1.7115589489879879 0.23691121547289518
Ni 4.6599052388000315 0.19353969571394283 1.5670961292758592 0.9658917239169107 -0.18114013124986225 0.03606923491873143
Ni 6.018739548106785 5.780107256282632 0.28169757902053943 -0.06231299910660882 1.0226390560102838 -1.2243151024299688
Ni 8.401583436675901 0.2983577595958362 10.996383109704004 0.8304632357715505 -0.5302609735494932 0.5496463200546405
Ni 0.4267248471007245 5.189664919390345 5.559634224311473 -1.1669118819201516 -1.921115169486698 0.5802308777097168
Ni 7.271991682040767 6.396104978674445 2.368965110250254 -0.155176617306565 0.10568828076845024 -0.37640847437099045
P 8.546373001419829 1.6543150388672023 3.6170833985655313 -0.5371664424200748 0.4587367402572616 -1.5143532796348307
P 1.717912065575395 3.1678113426689496 1.5037668603487377 2.2073211174296627 -0.47572479017482583 -0.2858282528885723
P 4.798765881248809 0.9334637337041698 8.0769717534238 1.222121951433392 0.952198028479902 0.0712007885145419
P 8.48544444511483 2.090131810894576 12.410481167838672 1.095421844299965 -0.7496303234838833 -0.2804096529761622
P 6.70270585281612 8.122432288797796 1.212034739723288 -1.9825185122948439 -0.45395217438442464 1.2354811463491175
P 2.1896029158218107 3.237492117600122 5.746808752910085 -1.9805745011945952 -0.5288255266545473 0.37681805110458333
P 7.1622656362466515 4.108743150539053 5.800180893196212 0.4643237474267358 0.030781761267546986 0.4044126728934003
P 2.534400257099982 8.77063380417832 10.204644298113474 -0.6178018939849553 0.31760657374143364 -0.5170473030726966
