# total energy = -340898.0318678599 ev
CRYSTAL
PRIMVEC
9.01195978592419 0.00000000000000 0.00000000000000
0.00000000000000 9.01195978592419 0.00000000000000
0.00000000000000 0.00000000000000 13.18991408955854
PRIMCOORD
 96 1
Ni 6.460971394192574 1.6791444026869138 11.288311486409308 0.23875366799827272 1.3829753074097602 0.012310956156869121
Ni 4.488875213430139 0.28992646316181225 5.770627334417849 0.24360611099456755 -0.048935292248122174 0.7086572235056311
Ni 2.648560921208582 1.687606632963867 4.876984275312207 0.26776291074642916 -0.5902584371490479 -0.44871612279646594
Ni 3.365318134038389 4.387310426187049 5.070901824463881 -0.8366670505894171 0.2799669090117888 -0.9714015979915464
Ni 4.987101412430514 4.556771318761943 2.8147540771504382 0.26773694260450015 -0.07564391188756005 -1.2884150182336715
Ni 7.119610478102178 6.096951300926369 2.668570175611052 0.13340117330268636 0.34970859648230096 -0.5831573073278925
Ni 5.001962134184184 4.501374801709302 11.528828978627109 0.2139407227196509 0.09243244419980855 -0.1763331967795221
Ni 5.841507299648161 7.937535951942715 12.324589537274713 -1.0140911664402728 -0.2923866228323803 -0.41214140899622564
Ni 1.9077597995620432 6.561607949573549 0.4117600492503712 0.0636186052919098 0.09310247368363965 0.010728699271413782
Ni 2.828646914418757 1.7153905051085383 0.36190768988290667 -0.4754285990906458 -0.938979472907099 0.8243586655357092
Ni 0.5339613232998457 0.19402298908164226 4.57023969272244 0.09576433678651894 -0.451479544474216 0.6330544492686516
Ni 8.594111297052082 2.4972591276838045 1.3377740680523016 -0.42601559587515664 -0.043506665033383136 0.3809801529020729
Ni 6.789727688658228 0.5986744044209799 4.595788598830174 0.15746335645821266 0.7642185057107032 0.5078707787797512
Ni 0.9241404323540299 7.523075919528367 2.5243653004495337 -0.16698672256761565 -0.45776820569640514 0.09189919740415786
Ni 7.54124403053831 3.973571350558808 3.846099882402878 -0.19279005678396474 -0.33444549967564335 -0.6351187879968482
Ni 7.493048069386931 3.947490738821319 12.554371081751373 -0.16742535276693102 -0.6902260133836372 0.3055301021928738
Ni 8.007360616677362 8.812398987966203 6.7724932166862954 0.09668350616667866 -0.4699660333141777 0.23496077661474374
Ni 6.836436676438259 0.8538651696280657 0.3030433706890809 0.31188535498694026 -0.710936506458111 1.5240761633495494
Ni 1.8567430949850128 6.332965516818941 9.210398675757704 0.820880991399754 0.6920610097098469 -0.04681207525753228
Ni 0.02343199674452161 5.1195862338378495 1.1853349651974376 -0.413711581696823 -0.5047602581752275 0.6146463790751092
Ni 6.584651530849555 1.739515521563707 6.870441504451067 -1.2487094721139333 1.1039620205604923 0.3900330071329605
Ni 3.4739032379862147 4.213992414806471 0.5124083201791204 -0.6779862767843355 0.562556086137773 -0.34327106838707333
Ni 5.678796364983212 5.453136890931128 4.835395883105516 1.3680703652734698 0.7326517866480156 0.9406540323960445
Ni 5.287506081282437 2.760858952604868 9.199925877243489 0.017953242044311014 0.13712978710718318 0.2321168794080454
P 0.28142908624153634 5.730912528659058 12.283331883993649 -0.6472538806974852 -0.2331987996183145 0.27958355753044106
P 4.0019680359716725 6.121256556578064 12.801458292682597 0.13588691583901757 0.1169139742809406 -1.2856343701647406
P 2.4740713550505777 8.561370847002912 1.395413661905725 0.11604391297116143 0.2404685938068504 -0.6623765952715366
P 6.355044818393525 7.738380651739961 5.784859021375638 -0.40093654141934176 -0.4982947050555418 0.4239134619304893
P 4.804690333585139 0.8822915945083566 12.561375176928422 -0.22249375449598457 0.6491094458489852 -0.023140699782521437
P 3.9966419677142926 6.137766466979958 8.10576941558926 -0.3090010914606097 -0.39293244016794265 0.4011291170461221
P 4.63967233720464 1.1798007206680692 3.729144470168328 0.32911071772629125 -0.3916026656129256 0.21078546492012087
P 0.22421215330396943 5.674164217632462 3.4737482322772015 -0.5335100766144102 -0.8811165391520438 -0.38803783107980266
Ni 1.4853962783799755 1.1281351549835406 2.5816750565733124 -0.3787674615214703 0.903249109385025 -0.8113601963935122
Ni 1.778915809924558 6.5555879604095395 4.727700259592552 0.5599728987916291 0.23757635986071984 0.41699282355125605
Ni 5.943288373927085 5.590001524814075 9.099445228767511 0.08283271632651541 -0.12651421637486598 0.34660964584200304
Ni 8.662746383089651 2.2908491998208294 10.23476652051659 0.12625479206589224 -0.2296203382384368 0.8521278652291776
Ni 2.3044662711184607 5.054303596855689 7.044667020186159 -0.6730803548422859 0.4548032095308103 0.48065230938343023
Ni 0.6947545129137465 8.867389966826659 9.050088527190496 0.13794765502278825 0.4078690068731169 0.431203053613367
Ni 1.5527516661221987 1.0315089217252966 11.487847992512716 -0.20535246683000763 0.4771574088562943 -0.4532291801754711
Ni 4.103226416580666 6.941570199772587 1.7169180322991067 0.46250597749170674 -0.14410904663849375 -0.3589733096136785
Ni 5.5223217065181025 7.870342779477367 7.941923875182171 0.38698573566620453 -0.28379142496420157 -0.5273579409700854
Ni 5.1011117161938095 2.963357689903203 4.889382028445333 0.9560942782105146 -0.9349981196618478 0.2584902271952516
Ni 0.9134882958392709 7.322785112387491 7.124044362336749 -0.2716722731031644 -0.21483983749515256 -0.5249647581475604
Ni 4.982090762767057 4.3579044012736325 7.144079751422714 0.5532772319390085 0.14121449869951808 -0.28393257852775616
Ni 8.318453469883348 6.860363429777247 9.2917271072107 -0.02721049897652088 1.0084072286816181 -0.3304240372210761
Ni 4.770012312173301 0.21576434216273851 10.388495234822607 -1.1294293115936611 -0.42697513157494854 -0.47627937712671525
Ni 8.16522311695573 7.243128399482284 4.597832511318793 -0.07712178198466718 0.028619720619221675 0.5396424147643932
Ni 7.543397888936811 6.177094659662198 7.00764318563152 -0.841833425281705 -0.5605593674227184 -0.4752455365455622
Ni 2.2405985118290395 5.144837745271314 2.473570290084232 -0.01997412912908173 0.49952574924916554 0.5423227898100338
Ni 2.293435632290995 5.328177055978805 11.417716921143974 0.4813099975720872 -1.1443460808044938 0.4851669094243322
Ni 1.0349965501780984 3.404267824407922 3.7601014533678616 -0.10022108700629191 -0.28517827800939916 -0.2337158484640491
Ni 3.51955782646656 2.7828481345811893 2.670983578452551 -0.19872853375558677 -0.44512300612856887 -0.003984181458728622
Ni 1.194841681618266 3.0818919974993313 8.357195885176875 -1.0526068060169678 0.8988316970436198 -0.44415524289866093
Ni 3.3685714515357055 2.630987599547178 7.20261603527886 0.47640973205699244 -0.05086876182540916 -0.5922381865832381
Ni 4.065421245109081 6.8344179974371535 5.928668271500779 -0.2190325354202615 0.3844596268102411 0.3914643402628484
Ni 0.996236110964919 7.539270411336338 11.285646649888651 0.33199832368673143 -0.43862762821221235 0.23905988638478182
P 0.2751558610064063 5.329402682515189 8.063957526778875 0.3252458354542463 -0.18494819214204278 -0.5896352017427523
P 8.454425919743485 1.5663146656608722 8.200143560086897 -0.0010549236270756025 -0.3577962585864418 -1.0799736280656949
P 1.8026352881875407 3.1576285078800708 10.510646943093038 0.40980607599482965 0.46964207431585575 0.3891768297802523
P 3.78571704797831 6.164009293994321 3.7685168214537175 0.01963268662926296 0.09953897333760277 0.20448651928528655
P 6.8743409794679335 3.8320835812849383 10.42344812100915 -0.6240705006024865 0.37031470276842676 0.2356200074652974
P 6.356955353876714 7.62012571489845 10.080589911807206 -0.3051881454724228 -0.11246442315001921 -0.04767390903719532
P 2.292714675504886 8.477604680416887 5.805355822804715 0.1603897860763883 0.1822685884273506 -0.377153322956815
P 6.8052192475997435 4.134146450744911 1.5817611648032552 0.10813108588198797 -0.5446776631954555 -0.17969157172879377
Ni 5.258812001195302 2.7882823463564854 0.4305202460209072 0.5348395940591111 0.04448548400688467 -0.10189307539207615
Ni 1.1170053845979848 1.0288594055363465 6.877590692181319 0.9720577435183064 0.5013574031412655 0.09450346779622434
Ni 6.756870083131315 0.5929139596999697 9.091411967778292 0.444701345210118 0.0285191904856154 0.013065574934706529
Ni 2.8542408803256225 1.6281096741902306 9.296898169759066 0.2059726169125098 -1.4278387435813538 0.30666961511395574
Ni 6.3430498998646385 2.0455166174677997 2.565543648484126 0.2222523279091398 0.5247683258660382 0.01865746720018722
Ni 4.071486294072222 6.699418839238264 10.486179472164466 0.48692220155254207 0.47138271115604624 -0.3988344074746744
Ni 7.988489572800962 7.373765769125215 0.08081925572280674 0.20698768844058546 -0.8057716465621413 0.5035225291133845
Ni 7.626533218334993 3.6871712672770514 8.402134022851024 -0.04285283349946813 0.415343203762975 -1.5058205595734713
Ni 3.2087173081357117 8.23449805214097 12.361060037496015 0.4785427192395952 0.4132163872279593 0.513888959949373
Ni 0.12179663705327086 4.765911870452306 10.269508526843195 -0.019674081390159665 -0.9395137481440142 0.10743688802844079
Ni 8.492798844684131 2.400939301059657 5.592259921946561 0.37176249095854685 0.10016863650180169 0.2019071885938845
Ni 3.702807017575788 2.4859491181017215 11.509123427270788 0.3032557043364003 0.5925811717449536 -0.8165114015771486
Ni 0.8292742348498741 3.3986894212754044 12.56760063877647 1.0793195394214636 -0.033642370644793675 -0.55405216243182
Ni 3.1659375348399754 8.306548670952726 7.914054389419149 -0.7854272785778345 0.09858972205045602 0.4263452113004335
Ni 5.515977286800345 7.783845989063953 3.7610909665567958 -0.5043059442466283 -0.3694148166619767 -0.7417606909278194
Ni 3.093922963867523 8.483300239027146 3.549603700527648 0.15785853501410232 -0.13577095908644357 0.8302102392204798
Ni 3.387370399733495 4.271380574980738 9.295670740830715 0.26551062437714273 0.2170882672096971 0.27034995474731505
Ni 7.23949657967226 6.002379794508535 11.259320011647903 -0.2802818691490463 -0.018134504817181672 0.5330259378891401
Ni 0.5400452973786221 8.976245429569275 0.3546755921222518 1.0353102237200493 0.31883324705968313 0.5143815833150754
Ni 4.588655632627609 0.39401099437235293 1.6384644160307196 0.09264044644555658 0.061642455402145455 -0.34189218576167574
Ni 6.089363230752572 5.781496659164423 0.29445136819062817 -0.6710157590037734 -0.007503764576212884 0.7839504369219917
Ni 8.043020941710273 8.677435877606618 11.138987818066415 -0.5648076011761112 0.8031126116727395 0.036390879924208294
Ni 0.1351929153351567 4.872252996403368 5.547374954835387 -0.191410917048251 0.016906803057667657 1.1621558552924047
Ni 8.035036345304116 8.818148618335421 2.512507363710008 -0.4327716836520676 0.5401268105999795 -0.12079968248859196
P 8.389521785074033 1.756656269153446 3.4808054980172245 -0.0112064102387807 0.1325164567048879 0.03715089801868441
P 1.6639862862589743 3.236600311838473 1.5100475932890038 0.36985344686129207 0.004233064244741097 -0.1002308571983048
P 4.64301577430022 1.0269308461335052 8.035520287546793 1.155149856288217 -0.23860043024986005 -0.2911697197061437
P 8.564867487415542 1.5112696150414584 12.411472039568695 -0.3194940205721336 0.49387523583160753 -0.5642069914776348
P 6.352305182606312 7.9553075367203006 1.5105486582553493 -0.46016267407051076 -1.0657955367930998 -0.15230263819287965
P 1.6263613539839166 3.15666422817865 6.03929278195731 -0.517651769425915 0.3657327398246991 -0.4703496419058416
P 6.861435852996584 3.969912494869306 6.0072804982621095 0.24084526041997875 -0.1449783366173245 0.44085111822609235
P 2.6197677095633582 8.520735920145851 10.165440217160342 -0.42172622447118335 -0.2263750918282617 -0.12040013305732813
