# total energy = -381168.477421391 ev
CRYSTAL
PRIMVEC
9.19450039653698 0.00000000000000 0.00000000000000

0.00000000000000 9.19450039653698 0.00000000000000

0.00000000000000 0.00000000000000 13.45708072467101

PRIMCOORD
 96 1
Ni 1.5806449807412633 8.450647078210558 2.225531619560688 0.817481735910218 -0.1648809890785225 0.9480420973299994
Ni 2.856915214853677 2.7425907948566035 12.591615671903007 -1.3589007829590596 2.049670327550993 -0.89474929944413
Ni 4.892724751452679 1.9417773793438888 6.872410137166677 0.4913211019511861 -0.47272379856497293 0.630575905821172
Ni 0.05282976133337492 0.6461499631967448 8.46504198829158 -0.12188983022897718 -1.029397200669724 -0.25237382988486856
Ni 0.2991724982104529 6.639054632334465 3.471482988067476 -0.7024935178970805 1.0467683449583198 -0.7771616961349326
Ni 8.374213195032524 7.636189023862742 7.129184954382236 -0.7836606735957149 -0.45443425622716577 0.5942665298671765
Ni 1.3716723719513741 0.5739317585267262 4.487048675423817 -0.0254066129985627 -0.4216750595182738 -1.9969871382246638
Ni 8.718804687122786 3.490508248631892 12.82252543958553 -2.0556304017891693 2.352915747474748 -0.05015193826404266
Ni 6.7352750807235084 5.702521194015188 2.077975516179714 0.06886725528535881 -2.3668351857693173 -1.6088793731388744
Ni 3.3677524716187888 3.2296878511687277 2.9405603448230657 -0.2826017755314746 0.23853229601608594 -0.5839525495356781
Ni 3.4903335531211996 0.34791070679340974 5.607269845985456 -1.1832826099686913 -0.8659274901164313 0.6594141702091031
Ni 4.742946337285691 8.419725972818073 7.428846600022626 -1.066850974640808 -0.15086899107014662 -0.4878567975516695
Ni 1.510031216419442 8.57810124501122 13.389068497460041 0.3403153281928591 2.0259285038493626 -0.11123492161829229
Ni 6.596070342203668 8.72009191720157 12.85721812910885 0.6642545290205398 0.18309159854927823 -0.2249774401497867
Ni 7.145294638818208 9.163478317838441 6.034383819526395 -0.6632998784167544 0.10584254695812739 0.5157000450161828
Ni 0.46107570026952194 1.7623099228598234 6.299339903342679 -0.6556446758643418 0.30835985833218504 1.1685566166124262
Ni 0.11972435017756881 3.0749352121972997 8.814455076476941 -0.11180544940978164 -0.7485327195443302 -0.23949491703967138
Ni 0.7589471766503475 6.076084557378633 5.699046592252529 -0.6528149197250306 -0.4509370417071847 0.45459829260885576
Ni 1.814819715573615 5.187748691009225 7.53039434203772 -0.00649460658540817 -0.6940217329806435 0.5439659818404116
Ni 3.7270091921066157 0.9908821311456164 11.841100771718745 0.3843272149974349 -2.7307185310901034 -0.6705385622570388
Ni 4.6386898954048155 2.173662683536119 0.6203051415649471 -0.7679034107614582 -0.20999330803612865 0.8503604889161097
Ni 3.1294677950348935 5.181064289100115 4.405444724579356 -2.356099030298736 -0.3307207425258885 0.7414881539927229
Ni 1.4101973293092427 4.891547855380648 12.389382632025605 0.19858738019203218 -0.6025627084376978 -0.7736832506680288
Ni 4.395881524544053 2.1833628816298067 4.5654354705213755 1.8126446979874205 1.0922899835392026 0.529004989655205
P 2.6473357690266472 6.1272243695085775 10.636705787405361 1.426703601535646 0.6253812489941101 0.9728298457976406
Ni 6.279669188838758 7.059997257097695 3.5815889712063655 -0.4526856489671752 2.0972244231808723 1.914832164691464
P 1.7943067848181482 5.29438650853585 2.2110116642720135 1.1417508092734918 0.8712116213335062 0.4744364103807055
Ni 6.698359160964119 1.9817458732901072 12.908973972776497 1.5890487115661922 -1.8066028626687145 -0.8809363048204376
P 4.187800782308749 4.10667770384372 6.152806228424281 -0.25845294619941295 -0.6998319119045174 0.46265304459253226
P 8.689225978812463 8.028545946376424 4.991150960526722 -0.06711736247378762 -0.910338926352271 -0.8839745774261292
P 5.701684494463978 0.03569489008465804 10.801595363247205 -0.9352092072313893 -0.47776624608488677 0.013285404254996476
Ni 3.38186602998259 8.489493843088123 9.947137553651258 0.990151882015856 1.4552749854154357 -3.8150872028997007
Ni 2.682605873185307 7.164501950493766 6.887777825407236 1.526848326778048 0.3362028486863823 1.3623802568672279
Ni 4.011450261515451 6.294242472230697 8.785428038200381 -0.4608586716962708 -0.07418352529194966 0.325063287129795
Ni 5.468907323717163 0.101555097615544 4.407085942929805 0.08752883625060409 -0.6201606240251191 -0.719924054668702
Ni 5.753449532632188 6.205120178276086 6.92891677927509 -1.4150415918166854 0.13527319351441866 -0.11452927609884793
Ni 2.3884646056827834 1.5390582546960034 1.0755689980287628 -0.12853356079773992 -1.0320109841434872 -0.5350427112088527
Ni 1.5268203744470004 7.205776063519892 9.128274414083835 -0.3344673540525143 0.8541873188613676 -0.4807368986774366
Ni 2.413280562701611 7.3169191863222585 4.723933029572007 -1.300275002896051 1.7202171388836183 -0.9879175933686987
Ni 6.530835360711048 6.357059300075317 9.23196079692982 -0.29981274009312237 0.535669031938942 -3.2172761502143756
Ni 0.7900981445569009 3.2402983048181264 1.6392341772271368 -0.1482868321652672 -0.4519289733068088 -1.5608632502709119
Ni 3.9313385781123227 7.465575871420593 3.1730589222028303 0.5901553359122804 1.6054749754430155 -1.30373647908209
Ni 3.758242910518234 0.7587384614875733 2.697431085892664 0.06778919172983164 0.11144343808467258 1.9366094084675554
Ni 1.459148850305255 8.92712448637272 11.10853813388323 -0.6434213943252725 0.2371593269279593 -0.7439422719601704
Ni 7.367240687902119 6.101654463443605 13.350393669743 -0.11062685572064818 0.29064238644776397 -1.5995758363497612
Ni 0.7872147491804264 1.7908864306088101 12.779651483461487 0.6403029033009489 -2.2369916479109024 -0.639485549605976
Ni 8.478773055431972 7.639416293560263 1.5893484949739503 -0.5840980739746069 0.31416155261562667 -0.8439198754970885
Ni 6.963831975712028 3.329199930759232 9.173960967930018 0.34130417446868966 0.26075768307318964 1.0495646767565343
Ni 6.141310344370691 0.6966222545858339 1.5957138477135333 0.8682905910319693 1.0055666739090294 0.9969012849245475
Ni 2.0035460341243567 1.745594320836767 9.507844544664916 0.4602598617700073 -1.0614632279663332 0.3373909554572125
Ni 7.772865274727829 9.175458752071687 3.457837429782318 -1.060679041502141 -2.4724216508525805 -0.09000275171239339
Ni 0.3252683297076134 6.919348981989506 12.375212067758312 -1.4353553636733731 0.7202924937517143 -0.649018943017708
Ni 6.472873229163554 9.120457249705396 8.58857837840246 0.7242982724769977 0.12419816664717967 -0.5446342115520298
Ni 7.620300926890333 2.846240399700339 1.5519112470326535 -1.0471974620759383 0.48308380164305836 -0.5416332199421768
Ni 2.0425215220097996 6.521466164637619 0.4745612742448885 1.6830217607802433 -0.5857793183317718 1.0434860746626222
Ni 9.029725918152305 5.174683305709575 1.2879840278293408 -0.9431189489967693 1.562078867845568 -0.18858218935020424
P 1.5546889056526563 1.98766713165251 3.027708579506857 1.511626881842603 -0.7157686377394319 0.9393021463538404
Ni 8.651923890029437 1.8463844360054913 3.3221091319252487 0.9382078848483971 2.236094332907613 0.9058618644175238
P 8.685833208104812 6.537694458130851 8.786532297717965 0.6464043882129965 -1.1383890918901105 2.5057745152814133
Ni 2.6591874802520152 3.030010882447766 7.456622266772599 0.3625394296983821 -0.5747811674490553 1.6046092850086107
P 4.630414844898351 7.388130593180657 5.275242638914175 0.44015100683527425 0.2303243062839969 0.776310918098863
P 5.722804262256585 3.212990638146797 2.668498750971899 -0.2951834688512271 0.11698956471388239 -0.038606913738920605
P 8.59697755466652 3.5395241311318433 5.7316806330998515 0.009892576523363608 0.07048807871823344 -1.850448141988439
Ni 2.9556825398985995 4.112047292172358 0.8759499546613462 0.1536951476650321 0.7099813416336934 -1.4902057358543497
Ni 4.873287577263052 1.6504496290135635 9.60909622376189 -0.2737965185350188 -0.2414309577201197 -0.9397176366247041
Ni 0.8042448031227282 4.441559803339731 3.8126063145454734 0.060647438478727805 -1.9311841236869256 1.5984684622181955
Ni 6.831504723613115 1.9894232812599928 5.151788079858303 -0.3858775902036903 0.8920668675159604 -2.9181144134416903
Ni 5.248496756227228 4.782942414733597 4.309481722206068 2.8235284132339893 -0.6641766245947529 0.13329807206591882
Ni 7.672075159559106 4.088353064222185 3.6617925996151213 -0.6759646183686164 0.1712454978439696 0.8090480033205679
Ni 4.916189116888784 2.8576323858975705 11.56903917786758 0.8545660423570252 0.701248846856702 -0.16232839785999784
Ni 7.585729604774441 8.01297965692371 10.410572562765179 2.857749796310704 -0.11235669392756133 0.3866923727955018
Ni 4.20839646356928 5.457147557497422 2.2595246075911835 0.3766969521456867 -0.452509271290311 -0.4745608517737117
Ni 4.046095139635844 8.642747778467825 0.9288845333011362 -0.7015964600041079 -0.4278652474893857 -1.4406109556453577
Ni 7.409866392510968 5.993894916848327 5.431829580747869 1.0688289243027853 0.3643762257968048 -1.571514559337171
Ni 7.66392883206052 1.0370753019728076 10.252438186486776 0.3111230228996191 2.5640529393073326 0.8399313231629856
Ni 1.1678394889760548 4.885580624515432 9.76256071320448 -1.9234458745024032 0.804571455606453 0.3410234100034772
Ni 9.188947084397224 0.8084908234826002 1.193239296780616 -1.3575064737146942 -0.32176327622228457 0.7028290468596283
Ni 4.898903455830838 6.375834470224426 0.17897095345367797 0.323621669587262 0.2498325515202536 0.11272153346614779
Ni 1.0492580152184343 8.67605025950606 6.294912751321721 0.7161134226733603 -0.5121598930734083 2.605442815108029
Ni 5.939904809543934 3.9760054618461 0.08656346444800113 -0.6509822373916659 2.6223629879021355 1.367992717957999
Ni 5.9300391104401164 6.932883286817854 11.377436819540812 -1.5951854205915494 -0.47312309088592075 1.4187534934506338
Ni 5.326107535477292 4.922919491300707 10.384156762648434 0.24532026547219687 -0.8580136345859932 0.028782985669963332
Ni 8.348781206475994 4.901735362004161 7.340191386696603 0.8225398671594156 0.7705686162984471 1.6077540012851796
Ni 8.066418094194338 5.5765657308062515 10.742827793450415 0.5442362047826628 -0.8209372985589862 1.183241986538743
Ni 3.881154994040904 4.953298121159991 12.085723217540535 -1.054938282363622 1.0110942885954781 0.8681790051547693
Ni 2.182893962101107 2.7728131182063205 5.312963077472803 0.5928210556699016 0.7592038261049312 -2.3699310510858216
Ni 3.1195929014305137 3.7549236958150853 10.05636913978663 1.0186949837608714 -0.3184149285753419 0.2839253794389045
Ni 6.486959204025667 3.9507205852985723 6.544730089961457 -2.20414683346674 0.9192495985783394 -1.0299391892161232
P 6.010187571845497 7.852967763630396 1.3923903400693896 0.7861664707367042 -1.9379561523034363 0.698725566214216
Ni 7.456031979836471 2.134917058164745 7.205432189198846 1.2827786458835007 -2.0831972556638445 3.1245459722684896
P 1.0194494443940405 3.078419927910577 11.120555346118726 0.349520648841211 0.5114662094404934 -1.6713173278591216
Ni 3.7565051499118765 7.9084106020237 11.912275400574893 -0.37492880450167043 -2.464172780580227 3.050230549384366
P 2.6638582865378857 0.5396647743794611 7.680884410548264 0.22316764063455757 0.022466556533632276 0.4971161113664083
P 6.817455526753252 3.9258954337791825 11.63834272585921 1.2532158446247192 -0.03289880761054979 -0.8524243134236739
P 8.72882669273617 0.1334425450171726 12.069992346527748 -0.47761480810868717 -0.8043629391400727 0.392673272969285
Ni 4.896080744158078 3.8634096079548206 8.420754837431044 -1.097923527675896 0.5325867934691924 -1.4860603462274082
