# total energy = -340862.937849227 ev
CRYSTAL
PRIMVEC
9.30012078155545 0.00000000000000 0.00000000000000

0.00000000000000 9.30012078155545 0.00000000000000

0.00000000000000 0.00000000000000 13.61166683442169

PRIMCOORD
 96 1
Ni 2.229666720388328 1.8312588527504297 1.526249306556242 1.2707937056074823 0.5952957424626393 -0.666744128211613
Ni 0.8039080072676887 0.6951635567735965 10.051548985852728 0.3307443966749723 0.9572654157004803 0.27106626408804924
Ni 8.851594411574915 2.1970325971001703 6.119219900703332 1.139256324986412 0.22738733514286 0.5456333422405054
Ni 2.791849712307918 4.877717967526257 13.451892570765818 -1.1947229905951489 -0.1568123531377751 0.1895638365371832
Ni 6.021697905772597 5.4446440209667815 4.570593573900969 -1.7655721699796498 1.328323424392835 -4.639720719363352
Ni 4.536682544050411 6.937573785344488 0.9885088916745361 0.6079545688772303 0.5926835016507728 -0.7108179786023758
Ni 8.775826328808138 5.943930297070524 13.06865598991047 1.4264022682451434 -0.022070349536478122 -0.47058618339667985
Ni 0.7293684704360403 2.525987163878576 3.410049190801812 -0.44389633281031937 -0.059594314623865115 0.685595199479845
Ni 1.242245012815355 8.331280562728361 8.630477533529247 -0.2696696408508388 0.03187885098646768 -1.1925542650786043
Ni 3.044459588840531 5.248764880272801 4.42530243936998 0.723019148654258 1.5339900800291517 -0.014068562277924157
Ni 8.803949893591094 3.330084893607102 12.775202773610232 -0.7207429510255715 1.1312236844899226 2.3215991967496534
Ni 3.3469925129111404 0.6790343575662291 3.78705190079935 -0.26576850602421975 0.5253450243051145 -0.48158356294844806
Ni 8.749107082240206 8.235945026157571 0.4784530758820831 -1.6665188780292137 0.13326567616608662 -0.2918582611327361
Ni 3.2660907635569982 7.6339947184271635 10.483827892822477 -0.4126515158634248 1.7941674651188393 -1.8027600918838564
Ni 0.036210949682180284 4.668967459881347 10.65664180434377 -1.0941195805487738 -1.9715090485582176 1.2079232913355067
Ni 4.287011505636652 6.766395765041885 5.7303753471085255 -0.19921370092212143 -0.9483444590617666 0.7147592226383109
Ni 3.631966809233661 9.111244479423895 1.648440801468216 -1.2771638707998842 -0.17650108981595408 -0.8424774866236071
Ni 1.4555990801717598 0.8423026252736249 5.302234063806743 0.29622527985218017 -0.055520658775123743 0.6746271305041156
Ni 4.931500565125406 1.7921704457455487 2.3061974130467062 -1.058335738080945 0.6349552658357902 -0.5590496156464114
Ni 4.9710167776792336 3.3002780069902466 3.8837489750302674 0.04905561987607035 -0.12865903063201067 2.9224490362613023
Ni 8.726117184044616 0.6665219752715904 7.902117196169421 -1.6673339177313415 -2.6650702969626745 -0.8143719866366426
Ni 9.26979293591193 2.5686654174463603 8.817024933183804 0.8277594636871423 1.759270396131338 1.2731969157323362
Ni 8.386011772631699 2.218766979010807 10.947836021343157 0.35082008437892487 -0.4842230574538241 0.19723523703951196
Ni 2.7924263197869337 5.13382468941548 10.179702788100135 0.10362677025373121 0.8908059985256658 -0.2176341124108381
P 3.9246323053166 3.178195323489635 0.7206802977441631 -0.36512184571357764 0.06739169918109683 0.43324913750911836
P 4.3806079196497665 5.126133489655062 8.322703991484037 -1.1598475188742026 0.2550752879764317 -0.967485807876908
P 1.2382924615479094 0.3512702062283723 2.7079598341955875 1.189826581734796 -0.6675136593877858 0.6227934336622758
P 4.381370529541368 7.636794054736578 3.129744485047254 0.8691426546196193 -0.35432989730439624 0.7311476912986634
P 1.8738534052325504 6.831226905948625 0.2405076295577254 -2.10144308924791 -0.7403509550644862 1.1193583005109047
P 4.876787955463328 -0.03594031617186812 9.583620856486807 0.18598228983351195 -0.5526480829954418 -0.13097790857317443
P 4.081581141056398 6.235303076385992 11.774772057301016 1.0271212601513535 -2.3452474322962127 0.5669716987069654
P 6.651808978768477 1.6694646541627753 7.7409544757724955 -0.2112248664503846 0.47933693300611635 -0.37562763034090796
Ni 7.196954149695219 0.7391949778929418 9.638339046221262 -1.2025059769746775 -0.1628806708190421 -0.3246668230223247
Ni 0.37176023199881086 6.694747635713882 6.97132392310816 0.08638263846130284 0.8282294613450252 2.6347086539516815
Ni 3.1793113379651494 0.8654041249167664 10.6932303389235 -0.4910843033500317 0.2796650615006538 0.5209880328879996
Ni 8.355228373348769 8.785265951246862 5.8346817800383235 -0.3096526090016796 -0.45834053326010743 0.8579259599681933
Ni 5.166895918373214 2.1371398202475813 10.063308988388457 -1.5413472917251714 -0.8894520556009328 -0.015066664525135342
Ni 0.2381407488575726 6.912500660127938 4.803135650139713 2.1371569977097518 -0.5299925503794549 0.048379933965284415
Ni 5.840159551088973 7.34826711233367 10.786170164420186 -0.6714651878363662 2.5938026597659394 -0.4795932719912966
Ni 6.2270538693878175 0.8746121743518206 11.795216512480371 0.3531525891668434 -0.7448038486295173 0.8488440522715833
Ni 0.7816732788671964 6.268634708721346 9.446755631245948 0.10557438089840528 1.2797668556403703 -1.0948328045657143
Ni 4.205626150009787 1.6277908136229535 7.690727314289922 0.5650109754361688 -0.13958081975083703 -0.4614006602426699
Ni 6.343584380872746 5.9249394507455255 8.721457823609345 0.40898178032132143 -0.23239635832167718 0.3507609490062153
Ni 6.875160675801363 3.3365205770825663 9.451206668979122 1.890025390060429 0.5681060694217249 -0.6084171103359457
Ni 1.5524040358019773 8.930040929082926 0.6738718606049137 -0.260716545422609 0.320864418557099 -0.6709293699375543
Ni 5.110360485067797 4.8894826201223 -0.06623824915794961 0.6765629140742478 -1.5211677314535028 -0.9414788422901851
Ni 6.987859537587026 3.602913232387778 2.4034255241655558 -1.743452712372791 -1.2258955595432113 -2.147852015529753
Ni 8.1626879759607 5.049658597720459 3.3888830462616237 1.9276465428473126 1.806346266573218 0.9458949690800098
Ni 2.458189284491095 7.844512248991637 4.218908582292531 -0.19421239105278812 0.07112956895697427 0.44418738168817695
Ni 4.3346653237411035 4.109221099566629 6.345609017133741 0.08296538524963776 -0.26967118351273556 -0.1939812488785885
Ni 6.479059238079526 1.9762012327578211 0.6531558419031834 0.7076730052154908 0.43544331694695976 -1.1589460901058555
Ni 3.3267368501805596 8.034922918755598 12.82084218558638 0.39908303315037075 1.6212913736499819 0.10945828933384374
Ni 5.050997815091076 4.540142188924505 10.215024646250155 -0.9320698902714593 -0.1706837118032286 0.5175998331420569
Ni 8.217456386346555 4.361300869223373 7.874594419179118 -0.3922732093173889 1.3025838535348857 -0.15775234845354122
Ni 1.7562719801165125 3.595063930576662 5.333922364826903 1.1352459182754384 -1.978794012255405 0.8715407225381505
Ni 4.400668279847133 1.4630763771577044 13.1251309724318 -1.4201277480903414 -0.8381624041880211 0.6427583068199769
P 8.384356351159687 6.814486688815913 10.890204103815547 0.22369163145882764 0.19092137900634215 -0.1269775291645297
P 8.02175394794453 1.0052686390605687 13.196401516862254 0.8421648404791948 0.08929544123272365 0.2482934891679079
P 6.53915661758596 3.128086273539053 11.8398905719352 -0.5243772610752067 0.23873952693088563 -0.5412002461698163
P 1.540146476812581 8.885790955128792 11.765910902365436 0.2776194918255348 0.3342675793368824 -0.13010938992529206
P 2.3910331134270355 7.460677670379826 6.49179854331752 -0.9955645683909952 0.19862877495292888 -0.931321442141209
P 7.424853605715824 6.841047833333149 7.036401517211574 0.43630052274093245 0.7034237430208337 -0.04965237291980481
P 1.42377406737835 1.227309019084725 7.835718984936648 2.1274667670051812 -0.6759857014145391 -0.6247443867410596
P 7.285147193622719 4.921019329176203 0.6350540871103451 0.5135644867304187 -0.38455012964151836 1.2004408669155324
Ni 9.194824663519272 1.6950957866170824 1.2361757540926843 -0.8775992700274047 -0.5186593847548228 -0.10549287692819251
Ni 8.551405117902886 9.069570638884075 11.616209650632038 0.0840979561921842 -1.7130039089646305 -0.5721326740826147
Ni 5.79485866350373 9.053667432608 1.8388542612683658 2.557319220127925 -1.2745428882372694 -0.26027303012728725
Ni 6.73893250882361 5.436199511435391 11.340464794022019 2.456945923814485 -2.5916617021635364 0.21366715734329006
Ni 6.482267779696629 6.712575966960219 13.205889499928249 1.7444832105198342 0.46331381810498273 1.0273930257555015
Ni 3.627074945782658 3.2865603290620524 11.650511285549028 0.12165868805477756 -0.14884964664727268 0.3259382335355806
Ni 1.6997179465698364 6.480500756777065 11.72857463808711 -1.9214717814951683 0.014964077509000034 0.7184888648840724
Ni 6.1742570845753715 1.0900299384758636 5.550919289433799 -0.5017171004735296 0.6263055605805923 -0.29073288927904123
Ni 4.747934784144598 5.038414751879655 2.487028028550442 -0.2286124657992127 0.2729341705347235 -0.9248178366947362
Ni 6.209346439709661 8.69086972685963 7.224133752234302 -0.312042706500411 0.47622872639443786 1.6882647543467375
Ni 2.8291989967551228 3.7873160242252215 2.7417704227433495 -0.6185176891050573 -0.7934036119150916 -1.049214235395651
Ni 0.3259524878392724 7.169760596975192 2.5713122317774544 0.014107900156291832 0.5846452047273286 -1.6934637820491736
Ni 6.107472918336483 8.001098380026892 5.001212409338392 -0.5942593307783249 -0.2591499722664375 -1.3181133166290524
Ni 6.5150228045529675 6.498821994416755 2.297730583225806 1.1217440271342616 1.0407709897243045 0.2773029890263805
Ni 4.047031192918608 9.07795004757106 6.077322857268407 -0.714853325014014 0.6551098864067944 -0.8712414461301768
Ni 2.8593220874733736 3.37725510543883 8.722233453669826 0.433868259150356 -0.8324396427716308 -1.2952916907488465
Ni 3.460900390378611 8.012621229486575 8.20622835071082 1.9615110568052414 -0.059714899362129426 0.300703884448824
Ni 8.76802352760017 0.4096786838285276 3.7954499097275933 -0.04406562286064669 -0.15220493627275075 -0.0012197313397140283
Ni 2.678723044973307 6.505880785974381 2.1779757199187046 -1.0159503311361988 -1.2635308533974818 0.9889596614799677
Ni 1.6724034922816293 2.377733940927159 12.756241687671247 0.031240188961204264 -0.4066883563014545 -0.29238250906732227
Ni 7.749334814471543 7.969524470490472 8.96211146506095 1.5966740893219342 -1.7278887964962628 0.7439263311205704
Ni 7.4673830573535405 2.8532212083405635 4.540225890010168 -0.27193246874308646 0.8803673196908451 -0.3910501355435652
Ni 0.5751445700406232 3.9859759009873574 1.4894561693226684 -0.09112298135976565 1.0190063443537032 -0.24740517302568363
Ni 9.150825792822129 4.838062253162989 5.778315608928359 -1.139809626386721 -1.2329257269171154 -1.1702885117018684
P 5.48908929745413 8.467266926569753 13.127376951563772 -0.8322910330089085 2.52232676321314 0.18581054014233805
P 3.8059255656044186 2.005738415876427 5.359103371442752 -0.01232046923856588 0.6526154021197148 1.3033441287396779
P 7.837685960449742 7.50011018184799 3.9289801117107905 -0.7996195109178165 -0.09425767033400542 -1.8074107032819906
P 6.646117304943355 4.873588713966854 6.2167065551756755 2.0329121342560477 -2.12993605448128 4.814988965213469
P 1.0468773787559855 3.8525470703190194 7.402037619776001 -0.2413414833301069 0.7729949663517526 -0.4268743443310261
P 1.7133984240155133 3.2054818774159544 10.532475893822198 -1.0591471782386468 -0.695100567867119 1.445364411169943
P 6.848274027062103 1.1000833688761196 3.339431514839532 -1.5103199901057214 1.3105234200969365 -0.3620408927954088
P 1.0043107266357527 4.8536120548551525 3.694056274578887 -0.11137273274773722 0.3524375653776898 -0.836414825369295
