# total energy = -381175.23401807307 ev
CRYSTAL
PRIMVEC
9.18762179202644 0.00000000000000 0.00000000000000

0.00000000000000 9.18762179202644 0.00000000000000

0.00000000000000 0.00000000000000 13.44701319166961

PRIMCOORD
 96 1
Ni 2.585516210284339 3.4383755780181118 5.192994511691204 -2.717507174606152 2.970915359292806 0.8017031329197225
Ni 8.647885758635795 0.9784265947131808 12.100322073038576 -1.034246044121593 -0.1274207873495354 -0.5074534887366744
Ni 1.2520707220531004 -0.03352379438080506 7.475194251308435 -2.0100447427395705 -0.3165717047190161 -0.7137122694310354
Ni 5.532739902748549 7.745688861899356 10.152602298431871 0.9660591027327105 0.6674594091110828 -0.9301114809935078
Ni 3.8710482508900843 8.479963595212759 13.16150617100902 -0.6414856107551404 -0.250149311429724 0.7339676772459618
Ni 5.814579388723547 7.577959638533873 1.2321969773630326 -0.9001745842247594 0.03934482034620966 0.6235210558569196
Ni 8.862334038794303 7.927227080812514 2.7789735309433348 0.7019019070596686 0.22233486032061706 1.125245869639933
Ni 5.359966675021339 0.191425937481624 4.677826182782933 -0.8174853354546439 0.1454367643109818 -2.1471688734197993
Ni 7.1122115272243605 2.8791801655007583 7.807968074952888 -0.8484054220722679 0.8310910991635364 -0.8842666547452513
Ni 1.0669125801553903 3.646723277309253 9.665752976161386 1.7260409446542468 -0.2539540298877949 -0.22827565128508426
Ni 0.7349996366724912 5.665923668190379 1.8314430707795322 0.4069817191721572 0.4854577011918736 -0.5932249759765397
Ni 7.588543778833887 1.8341800633102388 0.5885526204172072 -1.0619095714751325 -0.41896383123469777 0.5860875936008101
Ni 6.896091099900396 0.16178299454415704 2.4992352540712983 -0.6209301552012919 0.18026415640281213 0.3889536580258527
Ni 7.38564433926315 0.6300393266018502 8.777954920291423 0.35008911975017126 -1.9329430153595615 -0.08703646999521784
Ni 5.3523868870460705 4.300643070463007 11.670985425637902 -1.762685592460474 -1.1085635238882454 -1.2465358615013822
Ni 5.068333184220114 7.24314432532808 3.5399263616431496 0.7282228043423845 -0.6787306111495278 -0.11151157231844666
Ni 1.955622048106742 5.750266036206107 12.699520390821778 0.07680296519266773 1.233816871272817 -0.1427605030303993
Ni 2.9607846222236014 -0.08141059790311213 8.906723114701842 0.5193224722601185 -1.343597062722454 1.5597265655633075
Ni 6.196931457061517 8.330444238231498 12.572136771014842 -0.21317581952916834 1.0744604115569494 0.18196519825431887
Ni 3.1813426708712687 4.7235676766176935 10.595990494595426 -1.1391840769875798 1.276171682089944 0.4020230896153012
Ni 3.7389394371974736 0.47774714536490964 6.80206405975772 -0.4256080760240928 0.03950371452157713 -0.304594734862798
Ni 8.425049179784653 0.8888390134185655 5.938295309912632 -0.6329276938828002 0.6400594198315751 0.09519509454661025
Ni 6.039005426144049 0.7371853718959054 6.658248378382578 1.5164998936641882 0.08541796055518837 1.3458933149557983
Ni 8.79594428375273 7.503567464914771 9.400524710379463 -1.1477414796392877 0.3216488621316073 0.39065984208368204
P 8.66639881653903 6.146252535277774 -0.03434424900649183 -0.15538924753800334 -0.01816407250353646 -0.061973099268686806
Ni 3.80358354409929 3.883993609989666 3.1920389001570975 -0.1841994869014763 -0.9613658110220992 -0.38140875579905925
P 0.9775813335086658 2.439249271416103 11.51637153237508 -0.2522383327482688 1.770417928107725 -0.8658462432565346
Ni 3.2900046737603774 2.237682037004658 10.29297629668515 -1.1062500452637205 0.32877236055026604 0.8328813582947399
P 5.5222200758010525 8.050230961313012 7.989999669156072 -0.07700453968051255 0.21249884806680178 -0.4649616381210509
P 1.7517395330046688 4.692991271306545 3.6584613829058648 -0.4764837798280374 0.13066526242876206 -1.1244722246987022
P 7.511027813806795 1.855127840987348 4.029558614553283 -0.11272718989310264 -1.9311895230035643 -0.2175531226612576
Ni 5.489328389799276 2.1321438255235385 3.0571251055325477 0.16065486681231686 -0.5520960671467137 -0.06660057073836916
Ni 4.333222377323985 3.7686062679515904 8.988427716502176 1.6791815610985468 0.04989045707253988 -1.3033605837999103
Ni 4.560781393774264 6.517809148014602 11.862376450156729 -1.542856529280846 0.2819446015634499 -0.025884581076245746
Ni 7.224805832238822 8.141059790311214 4.767853851161203 0.15329739800598116 -0.6589158904164458 -0.9466688711315567
Ni 4.9849830793575105 7.362555845709389 5.909087860247926 1.2833381179313963 -0.5235195410606015 1.4771933827550818
Ni 0.5512674136763107 0.5947772341787165 9.904478628133049 0.2165766176806012 -0.1478379175533067 -0.7258301357404919
Ni 1.822318843581665 1.3542278887161598 5.420921033013012 -0.7187704006802331 -2.030962209618528 0.045424965102018544
Ni 6.07530571982925 5.5147964773961835 13.455619400930884 1.1316528016075413 0.7704053512477055 -0.021298504367460093
Ni 2.1466878308142685 1.9809155708896724 8.168469222391968 0.3958778959495118 1.4377590880188593 -0.5831619353135827
Ni 7.770311688291748 4.167771684161976 1.1605482276098888 -0.8382727045136401 -0.11602977190377436 -1.289834010068385
Ni 5.111248565592823 1.3651611586441246 8.872164794107684 -0.7689981864875337 -0.44522327915185905 -0.05069881190644817
Ni 8.478355761399822 8.668815161069327 0.6438602660578481 -0.9285189396954073 -0.518851446160971 -0.9195090228873131
Ni 5.535762630316868 5.031169254086821 2.11310431689184 -0.015343572335605836 3.353918970382811 3.217261752036672
Ni 1.648314474534837 6.972532113178269 3.8028558844536637 0.41753481209765514 -1.42739137163129 -1.887378182245569
Ni 0.4849759661878699 3.2370564093949477 2.091266258663454 -0.6397570580998079 2.0598693795711815 -1.18407630951458
Ni 3.7706091695014194 5.56078971206794 4.771309315715747 0.15466728177031427 0.8671860451138808 0.4203157172769019
Ni 0.9855470015990403 1.5192559512759112 0.393036353715474 -0.5980761334212539 0.7384488529457669 -0.5921703094597801
Ni 2.213968785169299 1.7863033661718986 2.4126097620412006 0.702110680636365 -1.134293324554182 2.6040361645684893
Ni 0.17541375022913905 7.670276862261764 11.954999621690169 0.6309880536579262 0.28922956526063737 -0.3074908254636704
Ni 1.6118212407920838 8.085750307146215 0.9779405695205847 0.15640303351449839 0.48623597411879477 0.043450357874150976
Ni 6.324345396020354 1.5743081810308397 10.964963548085413 1.460142855030698 -1.1128305266947158 -2.0655738861551263
Ni 1.4976466648300513 5.653198812013714 5.689189482844652 -1.367539175360348 0.28615298321784266 0.3130788610744092
Ni 7.239643841426773 3.2603470306280493 12.250498344977695 0.6354841417560668 0.28857933327114815 -0.1208127951147145
Ni 6.445851694169375 3.125849435270506 5.428653335509966 -0.4908996981430513 -0.7634286628195561 0.9333356443577603
Ni 2.548765723131516 3.9259075405874606 1.2084129808399044 -0.6907479473253781 0.40218455489382987 1.5179880481739405
P 1.3697274066728626 -0.09393516392479419 3.5979774311497486 0.5847269658078575 1.4070218068360025 0.0439892610967565
Ni 7.572116311076575 7.587689330007583 7.002074911038243 -0.25099931813484516 0.03628289359143429 0.9082367924076036
P 2.58888806748061 7.724695146113306 11.329848109879643 -0.15952435275229945 -0.5436474221587282 -0.13838217145704554
Ni 9.075872744395781 1.10209198398243 2.300219422230438 -0.05095823621542192 -1.0926337400318666 2.100557344208847
P 0.5258847709620348 6.9727709913447615 7.366018660361364 -0.21294107781054297 -0.5266886828172025 0.20095459487262812
P 5.385471513105399 1.1192636491045864 0.952352124078253 0.8373638195461257 -0.5250058957981409 -0.21734563463614182
P 7.061302914895912 4.490523649959855 10.341465808196764 1.3183765975927682 -0.968991188777841 0.020638502185958002
Ni 4.71641970686647 1.861347860937963 12.270144236647413 -0.05296061135743137 0.906857909782206 1.6710941561047223
Ni 0.28899113077493827 2.70481747920419 4.2156924818849 0.13311398107957076 0.539649870963561 1.5857810965585142
Ni 1.6590915548924021 6.380040759300456 9.237479336601606 0.8807337018913284 -0.07383385526201479 0.3217707324214523
Ni 1.9272231091593983 0.6449517555262868 11.90868849530454 1.5371245118930752 -1.7749196726328205 0.3499016863297135
Ni 0.28942662404769925 8.03165359005726 5.380297963276461 0.7422273461515927 -0.41897462986797523 0.17675537191860527
Ni 4.12504924284682 0.18716747478279064 10.884012331271709 0.037381268861935615 -0.934618624835242 0.43951800123696566
Ni 4.051456392323292 2.0774774758837147 4.9132158092833 2.3259487319676007 -1.70209368981003 0.4200642633877281
Ni 7.907510444455024 4.995383467221759 6.472464559441091 -0.8414397893877121 0.44755552682946154 -1.356338678658838
Ni 4.050160937651155 6.285922761702078 8.789195975549294 0.31856610944122554 0.16412302786657543 -0.3449895937400768
Ni 4.2025376450085465 9.211601481072945 2.3679110632794016 -0.6469810866520729 -0.6483872229709801 0.11158973385454976
Ni 6.46687297282079 5.826945927650472 8.865481718018943 -0.2327632547427927 0.4439459551013322 -1.0404408600783952
Ni 7.582130818825718 6.240609411042647 2.0867615677006968 -1.401715821242057 0.7634728857939302 -1.484871982346262
Ni 3.144757560910633 8.297626053204027 4.825393170134199 0.12945273017789963 1.4688738071457927 -0.898246513964111
Ni 3.235843643318905 6.534787873079206 1.8929358234079932 0.9172672780409881 -0.5766956108629487 -0.4613456386350183
Ni 8.252174888217773 2.5131912515675827 9.76249128349376 -0.011556851599663968 1.3590126259465753 1.7887617207222353
Ni 0.166586283215031 4.028018769141578 12.946905376328825 1.5850557883567153 -0.8164743776916261 0.4102935571542095
Ni 2.9144973836546213 4.699137790282855 7.255712073172166 -0.16999157083221048 -0.08328985846859205 0.7814546670833317
Ni 0.12515286523675961 5.352947331975151 10.916608175851906 -0.3645541461355657 0.28671734036174495 0.38087473767246016
Ni 3.2608064117174593 1.472004012419169 0.45917344915787295 0.07641884238037161 -0.40024465755863975 0.6281498128781827
Ni 7.2280306874864815 3.8366773577804065 3.3227162823751053 0.06915341906720994 1.1887852849544753 0.1752474199145111
Ni 2.7292473655390292 7.336426249343733 6.90505454371697 0.03914298874804872 -0.5462972010767494 0.9956419585961497
Ni 5.169323522916072 4.781330254800143 6.710247561417287 0.3979592039585727 0.4773232450101973 1.0124454033067338
Ni 0.7660804424198124 3.76143992295679 6.832682728129095 -0.6955057737253377 -1.5534787848813827 0.650948298829937
Ni 7.1104566914628125 6.410231284496501 11.473704216790654 0.7060064161463454 -0.22691965147782212 -0.21859673343442354
Ni 8.6497508458588 5.676186241727804 3.954860493128633 0.5407263918571913 0.0010310123676756436 1.887550703267691
P 6.251524305727035 5.312457482754528 4.937017262287825 0.3179516157856782 0.7800994386070178 -1.237787940105423
Ni 5.133271295019152 3.3388185083211144 1.04429081778847 -0.5160278606692469 -2.3390860406805074 -2.8943507353631897
P 7.3923053650596 8.783715559152629 10.899718570718647 1.572424215635634 -0.15041956223755384 -1.4058177592255725
Ni 8.745449114404751 5.111707946682233 8.55377970494574 0.18203770336346714 0.22782236579774956 0.4504189644201856
P 9.136364046249328 1.88783577455336 7.782606563768725 0.23615788224663845 0.000975733649707997 0.24329423618110355
P 3.9038388730521905 5.094958912162333 13.529981255398084 0.8506638790891414 0.8984547733201753 0.07608562741066897
P 4.695297364375385 2.623167084372406 7.082165247690391 0.37264643622539695 -0.16905620350213466 -0.6368450266593355
Ni 2.82110520817751 3.3711589370155983 12.555906837125976 -0.33295605961431046 -0.5207987996953288 -2.0333505073450464
