# total energy = -381166.9847594328 ev
CRYSTAL
PRIMVEC
9.27244060578717 0.00000000000000 0.00000000000000

0.00000000000000 9.27244060578717 0.00000000000000

0.00000000000000 0.00000000000000 13.57115409922683

PRIMCOORD
 96 1
Ni 9.248461896922997 6.535382917490102 1.248838239658658 0.13046008839649145 0.8789776384321701 0.4945030992235936
Ni 7.727902208477967 3.9531102551731623 8.572680875075614 1.5714502817581386 -1.3621614559882025 -0.17014943656631343
Ni 7.840200734499894 5.617717305665145 2.845070314435531 0.1300610531858599 -1.5370764322639592 -0.10144030412537368
Ni 3.4143072867905233 5.926851197089885 4.765130316983189 0.05221036345496815 0.45609827419314997 1.3969240562803684
Ni 2.268799268771957 0.5897893365633649 7.538762041386243 -0.6790689683255531 0.6805308975830602 0.9521160102890571
Ni 8.74037852367789 3.654713849763895 6.097315741915837 0.16328433401536396 -1.6805758703429121 0.7433205792157714
Ni 4.926846314265447 6.712690523351823 2.267808044890218 1.0134093098818997 1.9209015108139949 0.40383288913053034
Ni 1.0096018586672835 1.5211067624302745 5.667992477665052 1.001104781482934 0.284360152983478 0.4738023763411324
Ni 3.5826948049606324 8.795113739523602 9.126709190640815 -0.28890817736547664 -0.24279389950591737 -0.02784324746451334
Ni 8.534409804453624 3.2140318459889703 -0.04206164426890147 -0.29178138514821356 0.0586517482049377 0.43285498739449324
Ni 4.741870400169878 2.4056326721660266 6.960726450309244 -0.46133098334699907 0.19597642493174633 0.4666691077304608
Ni 5.668687910697143 3.708633090851956 0.41589306153505806 1.2054393485713886 -1.5374525846564555 -0.41310454424044335
Ni 4.943351258227054 3.880757402514497 11.448489329529531 -0.30752579246666395 -1.1447392024778542 0.8604412701908793
Ni 6.534937840349564 5.122327903365791 10.29905350574572 0.4143019069826543 1.4313339012188058 -0.3002613975947668
Ni 0.12478201256996778 3.482441179054508 10.443762920039221 -0.8559397827761002 -0.4410727473185952 0.43022757707397513
Ni 1.7224021716788929 7.479780975068608 10.282442855963236 1.606047303006718 2.002107747280681 -0.19240567686135251
Ni 0.7224000705865828 8.707897164859062 1.1126437074100683 0.07312063124507408 -0.38831730999343445 1.9845795085889304
Ni 5.552634046301929 0.405726757849942 7.867129755990512 -1.0475916121905635 -1.3010972416870301 0.45664540494587164
Ni 5.898904061640286 3.102540022284268 9.290825822749847 -2.5266637000255967 -2.3974732223701483 -0.4332141705061249
Ni 3.74756806820858 8.336563743044174 11.47612027476054 0.8473702959395342 -0.9842234323465631 0.30376941074802527
Ni 7.274878586493548 7.777027597864819 8.112998713619941 -3.6687364114148813 0.3299203581117802 -0.8684965363951881
Ni 5.4628119158771575 7.33332277851041 9.536286793000452 -0.3957287719661572 -0.09068126583665673 1.3812336421283051
Ni 1.0104271058653638 2.0571650884462644 12.254371963020352 -0.02865468762221517 0.41389592979348716 0.5001122178802547
Ni 1.6330807530372264 7.714800250153387 3.2535621140210638 -0.5621974172467737 -2.849124516535538 0.9574009128370803
P 2.230856442541115 3.3793965485795945 11.17781288477938 1.3695253525524413 0.4590951520379449 -0.27100044384712035
Ni 2.699263043195369 1.0409612521943379 11.021500865778485 -0.09005571643751588 0.6064805554348652 -1.3930290921013364
P 3.1503858148920747 1.7235426818515207 2.541415508059619 -0.13503948023705775 -0.4233264790787677 0.030714655475037426
Ni 9.092666352853934 2.365742633445332 3.7006912456254852 1.468072651400736 2.1700948860883527 -1.5524128055107136
P 7.9585078019190805 3.303093636298657 2.1961385710910863 -0.9997847771199296 0.6362693566615235 -0.8648643389592396
P 1.341369777176453 5.58653408850622 4.056825283091011 -1.2462756658614602 -0.35891160313780773 -1.0750661634617484
P 6.499730384044944 -0.47431685418297803 11.560519882023094 0.2064403005775477 0.19265275987515207 0.1526016574905372
Ni 6.600438359532034 5.882621656248947 0.8296877698012893 1.14226297302322 0.4237293709441412 -0.3133585970983571
Ni 6.57038638010531 7.0422145112774475 4.126933277922089 -0.8466190195958064 0.18723287441116143 -0.22753928733969198
Ni 4.312250417825402 8.051909094349009 4.345455954241646 0.20454539754768 0.9815055191947676 0.25070004172687144
Ni 7.972676090892865 0.945195487455302 2.0802404836950603 -0.13228762852353346 0.838864058240736 -1.351709664527259
Ni 8.201084115952574 5.677506001544048 5.14023762205222 0.9263584417089787 0.926918427977507 -0.4071964062861246
Ni 3.5506028886397765 4.641310783729634 6.780283832338863 1.207899894296739 -0.6615103906164994 0.8880058100727094
Ni 6.802234480563758 8.507158102036117 5.997757549041802 0.23714621430183677 0.2681953702981575 -0.5910966167796271
Ni 5.451017371652907 2.049431873129421 2.596446514754981 0.35372234562738436 1.319869894308843 0.9220392455083345
Ni 8.629730492052124 5.6788226880848045 7.404706661144362 -0.18015514162877358 -0.1688667131991479 -0.005612718201087108
Ni 3.1767751803497912 5.835601110839222 9.288070980698727 0.27226876903658265 -0.041388590249115814 0.5055979235851744
Ni 8.89657278268535 0.6683269069874191 13.301046893006344 -1.5989736839893882 0.24416686859404396 0.26678897686893405
Ni 3.608527823992677 2.4080249617964173 13.16146792000158 -0.9176249184907229 0.6819432045495546 -0.9401575523756002
Ni -0.0204438766553666 2.218088292071939 7.970026954662623 0.9705837300759413 0.3105185565464007 0.7368920499816084
Ni 2.2781551611636774 0.15406623392926513 13.206415147731636 0.7452417074978843 0.09209948634042203 -0.1537321715505546
Ni 6.607643045744489 1.7138251642831137 13.164697511002608 0.028453627355002606 -0.48067210687777223 -0.18662018052782697
Ni 5.3670832408998335 4.460229294613772 2.67977330066003 2.831756457570736 1.058745314814538 1.3905173814230762
Ni 7.2584849118170744 2.290747135264724 11.04634915163709 0.11789150770286148 1.9193866168313651 1.5483643464729526
Ni 1.3814174473844212 5.005782599627899 6.122680502706274 -0.37512806499667006 0.7175239298676417 -0.3768705016090735
Ni 8.92416756539869 0.09227098194177184 7.260404306985643 -0.4088172297189992 -0.6111607345193539 -0.5163495056747236
Ni 8.898019283392099 5.547905101683716 12.835067817256105 0.035103528571352446 -0.17773599066431972 -0.8836141087629169
Ni 4.222715733053895 7.949476444942335 0.16249395503415567 -0.3160847377802685 -0.637450007233186 0.01851759918821327
Ni 5.892691526553614 6.844451901831847 12.402216389422517 -0.2431813647523231 -0.6357340529833438 -1.6024950668790854
Ni 3.6238829853412287 5.797370838955115 11.645556505943041 0.20598135866325815 0.8385159308726979 0.6285851006433884
Ni 5.193132258473002 0.857425348097218 10.485412867953126 -0.039562078563338314 0.31078286595138094 -0.03475000188667564
Ni 2.2590910236439776 8.376286877837167 5.695895105400598 -2.266179582328768 -1.216679697371898 -1.61191404620014
P 7.138759161012424 4.432782870947277 12.192202104439573 -0.7468057095508945 -0.8075367088823641 1.6701541607889558
Ni 6.456344635282942 8.695091924628175 0.3168133265871017 0.8312656770681877 0.0740706538631692 -0.9777375675119033
P 8.36400089427024 1.2037945785481536 5.080931093075567 -4.053059255536942 -2.2531394613153584 2.445329679731795
Ni 0.6426431742462636 4.4102786580288384 1.818141046340688 0.050533489973177484 -0.06006791182617397 1.0696311084891061
P 0.23765450265438 7.37758013667263 6.57005349949395 0.5803936285398262 0.4514720882750483 -1.0657184036982614
P 4.109156155133777 8.493685246094422 6.697717386548899 0.3911372959407328 0.1419017545745298 0.2367836887560954
P 5.292634816704469 4.9240831270179415 4.962848418714735 0.34803840786872964 0.690339913253682 -0.6578265140070091
Ni 1.2684142158899758 4.266750552645847 8.549541499987864 0.5481154852324108 0.8369519288196876 -0.07635199369817819
Ni 8.670019245711215 0.4276634974141956 11.056025870467614 0.23005279779016508 -0.44186747530574866 -1.0909794922578955
Ni 4.446246454448544 2.8910820183267045 4.784429047245713 0.8229908386539053 2.167196224384319 -1.6766528811394223
Ni 6.930704142691889 1.9045685363248164 6.822070085127056 2.0628166351249635 0.4794312924921356 -0.6553723960395617
Ni 8.71709542576351 8.717559047784903 3.733899563773857 -1.4257728621912606 -1.1382574514082526 0.5590943528414177
Ni 5.89183846203425 9.049586594626053 2.65739519293141 -0.1765802797933217 -1.2033205024561728 0.2192377094525321
Ni 6.89109227718403 3.395224604389968 4.749822445080819 -0.1337924952038341 -0.5927009851522695 -1.9320595843133437
Ni 2.2122188372810974 6.9856711695483 7.6070526378934575 -0.16307556043866753 0.1821390048280218 -0.31476576185852884
Ni 2.207424985579889 4.4259861721136495 -0.10590146937073998 -0.5340412665275318 -0.15527303367511322 -0.6576953877457834
Ni 7.7170627256177875 7.190165570744532 10.554028927119361 -0.5290818656397276 0.5368275710234174 1.8351608768120655
Ni -0.14643965167734252 7.467958613523074 8.884274744945868 3.8595400338964363 0.12190834217173845 -0.5599757270051067
Ni 1.9667124320723979 6.84200397755889 0.12033773187288994 1.478667396197447 -0.24400437487425075 -0.2101123501124962
Ni 2.9282459595616057 5.8628713581375855 2.59244360222227 -1.6909394729654235 1.6596823147233546 -2.044378997245066
Ni 7.281452746756907 1.2487473697424647 9.152141640246374 1.3961743225985375 -1.3293894037635041 -1.267583426200301
Ni 2.2047545227366623 3.109401628200892 4.208116275600214 -0.9783461476301796 0.39453089500331406 0.5046047064339697
Ni 6.407673595477056 4.605741702248327 6.741796713854905 -0.2508121418247035 -0.13963944090291436 0.8431146059869737
Ni 3.326330372010898 2.525525326898379 8.805955076871868 -0.32554125520747806 0.34300418787893183 1.0083198111741345
Ni 3.2586879190895894 8.80691755618828 2.085994960224596 0.4762521234332056 0.22174967724110844 -0.06268735172689203
Ni 4.352863706899471 5.449496691422737 0.35152656181691655 -1.641537782603844 0.6126710005162933 -0.043467584265331594
Ni 1.3036958517180193 2.2725731520261 1.1216027393514758 0.7670228079287178 -1.1101506658697076 0.4978673877101361
Ni 0.4841372958401346 7.839458939265665 12.231721245543152 -0.420657673997353 -0.036984804754465334 0.24580388997683475
Ni 5.073814495047178 6.51611478628099 7.3428223937287616 -0.27250556763773714 0.9659961107052589 -0.7271668522740444
Ni 1.3799153120351064 0.549374477714453 3.2316448465817085 0.7979539502899354 3.1238947118377363 0.18221485237127974
Ni 5.7776205408437535 0.9718259363641432 4.7485057585400625 0.4582608290621076 -0.17778946961007447 0.30366425262872865
Ni 3.300061548278743 1.1202591627334777 5.379659451852152 0.6230369171316495 -0.7680448214353288 -0.25850488248327097
P 0.8846742687825979 -0.03368770331849256 9.336261708090449 0.851982855010881 2.2137015670347098 -0.13918512697431515
Ni 1.4273994794662257 5.485881747661696 11.05219820705899 -1.2883818510028908 -1.8190488017415514 0.7284192366239067
P 8.821280566411051 5.497277576947548 9.579321116270236 0.39380121592614115 -0.8487748895965447 1.4748390235902922
Ni 3.3919792502402135 3.842712579438948 2.371056669054544 -1.1911247317209293 -2.946594008938622 -2.4745214708044028
P 7.596011015831952 7.790546816008653 1.8436819834992544 0.20853626387462793 -0.29195056373622624 1.4480949227272286
P 4.867799413620773 4.790717616343894 8.73176164478827 0.20022440157482294 0.38674430907935975 -0.7894312575309049
P 2.0483933598014996 3.0063199079642664 6.936827662350455 0.005215739872984566 -0.9849276575024393 -0.05830593482974474
Ni 4.776567872250967 0.9661604752627149 0.8099754886956816 -1.1815753974695973 -0.7218706368721116 -0.24330657747627776
