# total energy = -340889.08477790636 ev
CRYSTAL
PRIMVEC
9.15528897382289 0.00000000000000 0.00000000000000

0.00000000000000 9.15528897382289 0.00000000000000

0.00000000000000 0.00000000000000 13.39969084398265

PRIMCOORD
 96 1
Ni 6.7665825919284375 1.9508181483590676 11.338349426739082 -1.1509820980637726 0.04665986595038416 0.7721896968416377
Ni 4.871263805855789 0.4017908467789982 5.850184848919037 0.20505678996645976 -1.7080694477774905 1.2343460043034098
Ni 3.2858881756466296 1.9079805508436998 4.94015827156703 -1.640248631478775 -0.5598404869788229 -0.9012960994237122
Ni 3.6182617897090172 4.382078400760442 4.2618117770713795 -0.33717215457818706 -0.386147041814993 1.449771281988387
Ni 3.858011344343541 2.5324719729682457 2.671268901716318 0.2235417361445247 0.10569110898192764 -0.9693470294553628
Ni 5.09279433525937 4.719423336782831 2.348469888953689 -0.01377494229690531 -0.0412266107499548 0.04228641947303685
Ni 5.1746059983064585 4.447767599771505 11.682989297085099 2.090040503837923 0.053679234691010776 -1.9375391193706761
Ni 5.381231717119096 7.923591402272979 12.80041704623319 0.6801038373479706 1.0295298695928463 -1.0780532711145305
Ni 2.426627676136622 6.697524246543008 0.19211916329583986 -0.9928201728766386 -0.7053340726696692 0.10293205817955176
Ni 2.78179795996034 1.8166840083296483 0.22274726731975766 -0.5028242174947792 -0.45898253771948044 0.536250872584341
Ni 8.06045381844251 -0.14311456306913384 6.88236312397772 0.7073557310853883 -0.1414052745540855 0.7262371413709234
Ni 9.009326287279386 2.342005339347876 1.1100192892401135 0.27171983851164816 1.147925827735952 1.1816836409126874
Ni 7.497348609470463 0.5453357084339885 4.639978315957952 -1.8318518670434902 1.0888449624133956 -0.38695385398700455
Ni 0.9739396502852794 7.730506355981229 2.8174596419098723 -0.6655981875326279 0.7714145092385102 -0.8323031171937666
Ni 7.810642601130195 4.101624430961712 3.795878059603683 0.8602510085569443 0.06460333780268228 -0.9354280081104148
Ni 7.9061322660340805 4.215287344651237 12.898341102498337 0.06602412940960888 -0.8779090879583396 -0.02801782536916465
Ni 8.324757858338034 7.418970179821165 9.126864634828339 -0.18774066728551536 -0.5351296144957042 0.6157609522955267
Ni 7.079125849885186 0.6983965775387486 0.11066913416665215 -0.8906877277802466 -0.09299165913738823 0.3195981502501657
Ni 2.01295509521455 6.858648178723594 9.05953114590196 -0.06511524444209431 0.1295943979620865 1.1182624963435643
Ni 0.18032531992774908 5.144411854984021 1.3702126043473484 0.5419798046483182 -1.3558365422114391 -1.0952200127018041
Ni 6.692003607239362 1.9394930557908885 6.874818250262735 -0.5358963174583996 0.8432788994789799 0.04452507899556848
Ni 3.565380840093979 4.4819442938353795 0.2792976567903547 -0.23540146369658813 -0.5132135311489032 0.4503770554386566
Ni 6.1335584403992485 5.649298580818598 4.676639755472921 -0.6462964018802224 1.386416728991141 0.22399682140407232
Ni 5.512243903578792 2.886333050456273 8.985524366779183 -0.573069069853955 -0.14584942636836817 0.3470819574927313
P 0.5252297781276198 5.811145780834985 12.426109461685733 -1.1435001878644306 -0.57782586781265 1.0718805666449154
P 4.298353282299652 6.112016045239244 12.371908319388131 -1.056328477842929 2.2303144930010426 0.9182939195332895
P 2.066907213649699 8.60954227986251 1.257862559109138 1.4679070723571492 0.6598602566075862 -0.3510427419126922
P 6.637355686835593 7.901051080605351 5.764198374060235 -1.7985331982867026 -0.10031390383041433 -1.088116054667171
P 4.664308496636963 1.2600790545907514 12.71263521918957 1.4166732138828377 -1.8131411780078643 0.11343090082834657
P 4.077408691395961 6.264506539835518 8.236964129418634 1.1858750532862157 0.9389090246804799 0.2650203150042855
P 5.156222177872421 1.2469320594994782 3.9792923740605373 0.7816413291728409 -0.6057627034322342 -2.497986129585246
P 0.18850007753011536 5.822516649848468 3.484683375725587 0.5118292492068669 -1.4235943664827033 0.2751052100441133
Ni 0.6942748664035876 0.23148049755483122 4.578660767473409 1.0754284318971736 -0.848849451588222 0.9804667935176082
Ni 1.9020753893994997 6.595781519210613 4.641747117804495 1.4835249814000644 0.24765354159106384 1.1414672165948019
Ni 6.187510558834397 5.602743935944555 9.272478591811064 -1.356930032385934 0.7504975565801849 -0.16716849956111857
Ni 8.94560547541639 2.3137795831735057 9.950074352603732 -0.46600164934979105 0.9652903428874859 0.2801157758848272
Ni 2.4401408827903266 5.433709834015461 7.168754298732363 -0.3580340856288608 -1.3616958292056935 -1.4640748430952528
Ni 0.5560061978343221 0.058203834674973066 8.807241591840892 1.3005393123010311 0.015516607578360375 0.8180800316158491
Ni 1.4316308610115596 1.3269767517578366 11.518776370375406 0.4045263156531291 0.38326380672992705 -0.6108786845025608
Ni 4.466050712025873 7.146426379770944 1.5785238118760754 -0.18704132722564562 -0.7613692091873662 0.26331361672582393
Ni 5.888837563804724 8.056297317208918 7.963409585456104 -1.2502853012414856 -0.10275208095826174 0.4122164852085352
Ni 5.7963782995799535 3.152422371718647 4.695626909456063 -0.7612241989690697 -0.21599503414551832 0.1794192919040136
Ni 0.7720902457756474 7.569400734378765 6.5920580631495955 0.4555729978172993 0.4181516197460476 0.1352261423265671
Ni 4.931038688133591 4.5437516502846735 7.161398023972031 1.6760934090915263 1.4854072860244418 -0.41236458075062526
Ni 1.0022111829049536 7.49329281641654 11.232746829538664 -1.0040903464738191 0.526055677218894 0.3165477934596161
Ni 4.789809199082072 0.5968754082016232 10.460923918203592 -0.12050477695599247 -0.9405013088682642 0.24579617666735087
Ni 8.227876589496908 7.393866377216519 4.356146044495796 -0.014108928597556346 0.13970628958510778 0.8797579682416203
Ni 7.380087667180052 6.48865548191048 7.11723290954285 0.9624806413528328 -2.4911871043855416 -0.6980131135282237
Ni 2.252558165224101 5.703323941566233 2.4236824196457705 1.2071031094270566 -1.266367808625645 -0.30509609997924875
Ni 2.4311412336435843 5.405511543708273 11.392564301970276 1.283347373902777 0.28999112601701027 0.3124188588929071
Ni 1.2484701480616882 3.7774173347415356 3.9183245576181163 -0.18695056728405224 -0.2081354288917835 -0.9888506467059294
Ni 1.6128506526805462 1.2650320659726308 2.5564331954981068 0.6881732446196664 0.6293453758481806 -0.6318249477369249
Ni 1.2975608080055656 3.3338618903250925 8.246062655687233 -0.3515466781323042 0.35132247793664007 -0.7593704335897825
Ni 3.8179569547026486 2.6764480487379987 7.034730937700579 -0.6023361942491885 -1.0275182384794563 0.8179334787356559
Ni 4.089548604690549 7.066628880317227 6.096203029973473 0.762838594644041 -0.2121023839593315 -0.7262623381819041
Ni 0.4197819053123278 9.165085220070356 13.343667179819134 0.23469261055502164 -0.18331091364893592 0.242671257885124
P 0.4238248809615662 5.954407744057997 7.985492142670694 -1.3397332088916734 -1.2493231944385323 0.0032689005592588865
P 8.663659193500752 1.6830717197766931 7.8610891593839725 0.23406320450113882 1.3556545081076201 -0.08230152641339375
P 1.956219768904925 3.330584296841335 10.52966457505861 -0.43190213656292065 -0.6650271455205063 -1.081011582411906
P 4.047470896167225 6.332521182268018 3.6395304417261043 0.4628551333010093 1.1407475648199579 0.1871778528035099
P 6.936724483833885 3.7732608335079436 10.384291402178182 0.9044840102333908 2.1504655418931997 -0.6802287929616091
P 6.719716667226328 8.068135105964501 10.443156248723344 -1.5657907694795163 -0.8170032536119026 0.4806764777531464
P 2.6030500963377627 8.71900291587314 5.739918547471058 -0.4711713664761885 -0.014536245942962062 -0.9931618724867735
P 7.01838050696694 3.99675059477053 1.6533206924447976 0.6610195670230099 1.152192830542422 -1.066637573078421
Ni 5.581686771104772 3.095824374744934 0.10315630396337994 0.45560487949649925 -0.9716355683792235 1.214438209635889
Ni 1.5084986679658292 1.181819643699244 6.804685073941572 -0.08543981493205931 0.8385118171076397 -0.2224641868096298
Ni 6.974261168983064 0.7523193990489032 9.18292887844981 0.11230938562939369 0.1164491188293801 -0.6258134514355222
Ni 2.848210426807204 1.6440884989559117 9.138763764020629 0.13608900454749465 -0.4391729591927211 0.5760613197130595
Ni 6.708364108790967 2.018347560471346 2.372066730978932 -0.4475591263738873 -0.0877761763747198 0.8043053464292599
Ni 4.157499160099623 7.144631943115033 10.288724832846185 0.6456669958263397 0.29677986680406954 0.5238972361149945
Ni 8.027998318722062 7.189401306622224 -0.09493302332899153 0.4398481308828747 0.5216043263157597 0.04942020230434069
Ni 7.825309374205557 4.21166185018317 8.319988868266275 0.7778224696473831 -0.6882609192374662 -0.6931622131938255
Ni 2.901860420703348 8.648351550191137 12.455776260358268 0.8484362753102033 1.1658788126699469 -0.39022404009784406
Ni 0.5893891283366272 5.0336786337939445 10.023491531110993 -1.3737512177083309 -0.08840532531828646 -0.0004995653442378493
Ni 8.690987731347168 2.6729415730277215 5.586264415635161 0.34666363900839003 -0.0031768550660848513 1.4432473648269402
Ni 3.843280484244753 2.737184236367182 11.49449654378623 -1.5045908009314282 -0.5194476849840732 -1.0734669372954286
Ni 1.186827586815488 3.685388369102622 12.598938430930518 -0.39314866994380676 -0.5683899192107308 0.6792561446356947
Ni 3.077440554310897 8.560936850238855 7.884029567183558 1.1706227551128354 0.658024488950428 0.17419892404533868
Ni 5.713019392681595 8.012882936482722 3.625098959579604 0.17602594995174847 0.27766525746180565 0.3010898070333331
Ni 3.337917683379016 8.71864585959977 3.279092204576816 -0.6170123082041244 0.08489011307617637 0.9565881871277978
Ni 3.551281694940385 4.454597445410843 9.422662869092928 0.3261914871969672 -0.4343269439543294 -0.4356076104389659
Ni 7.216290390593721 5.9896922280982245 11.444581907826883 0.294515496249925 0.36333647167838073 -1.045820893443386
Ni 8.368803954009422 0.235539952724379 2.262470596690202 0.03647958298327266 -1.1506033745681152 -0.10859954087797427
Ni 4.740800936739741 0.41561807984748717 1.3994500199629343 0.10954750661354037 0.5648009163078918 -0.1975136875118792
Ni 6.137248021890741 5.664780174620369 0.23483591099560538 -0.584666030662935 0.06035664671118638 0.7049142115234311
Ni 8.38093471201495 9.274582477237232 11.097637651224272 0.5201645085454397 -0.5199796462281433 0.510343922910592
Ni 0.28407580215117334 5.114895203052082 5.899039302405146 -0.7402329414293832 -0.3858248825888839 0.03298056869107868
Ni 7.560446861677327 6.319493205934535 2.231410363022616 -1.4520271679020995 0.2670879961665916 0.4138673905483969
P 8.976275693769987 1.9301912821051406 3.6011533010411463 -0.9877044489166279 0.2648529361884858 -0.8131386284501737
P 2.0323643080233933 3.3826412704409035 1.5341838314258343 -0.5054320874312715 0.8739539599653334 0.4356862861957012
P 4.924126444892706 0.9016522344481156 8.069829749969651 -0.2262719905914942 1.1258202540861644 0.6113252851216762
P 8.572994365931894 1.9259523832700018 12.52715638704951 1.117542073237772 0.015858564298811398 -1.4921536036093397
P 6.533900920448832 8.169511621734465 1.4422491652642468 0.26945161130276174 -0.5816475555515853 0.05614775083616137
P 1.9264009924339798 3.3623714604603467 5.968785209999038 0.06511190200798463 0.4056959104811981 0.6395763095475695
P 7.0124845008118015 4.277982764139426 6.124167860409612 0.46897564437645034 -0.1675341104306534 0.5978488479017963
P 2.4204478560205986 8.806124646575478 10.215803871006017 0.5295176676255654 0.614878035469941 -0.36376533168568315
