# total energy = -340867.53351821424 ev
CRYSTAL
PRIMVEC
9.24968263520102 0.00000000000000 0.00000000000000

0.00000000000000 9.24968263520102 0.00000000000000

0.00000000000000 0.00000000000000 13.53784550886399

PRIMCOORD
 96 1
Ni 7.052198531031018 1.5307762273230165 12.462331428205394 -0.9928584823137416 -0.20693729481862425 0.7948506287742634
Ni 4.709734903627777 0.5337159375979056 5.198803548125194 -0.9142061226171609 -1.0732373377831257 -1.7626303137425063
Ni 3.7802712945835117 1.954032454919463 6.8945136413792945 -0.5685806950652982 -0.3155887719804565 0.6442132940989487
Ni 8.478860330638707 2.8418169940201197 6.66015998232043 -0.5685259305679627 -1.2530631210969387 -0.47219672241690935
Ni 0.25518394434803654 2.4983577784972444 9.293324485445313 1.5548137016427224 -0.28895959942870236 -1.143097295999057
Ni 6.260129707815062 1.3306963422919027 6.483748185210245 1.6814199635107623 0.8546969115079345 1.9264923746382112
Ni 5.351616629934195 2.044059615984963 2.610178116813995 1.4204691905901599 -0.9752225143995332 -2.6683589950162756
Ni 2.2330768805871917 1.8431842582474245 4.9032317895290936 0.39590566386365367 -0.16498666141845134 -0.7237987071327598
Ni 3.7943863102812365 3.6941937480022378 11.930822464883684 -0.023975794089307095 -0.043130512640887006 -2.240034291391968
Ni 6.88235585852668 8.073946223703198 7.470846566739779 -1.8160619511990854 1.397316920843413 -0.23540712012354295
Ni 6.860415611321567 7.815510090941451 9.828963432062588 2.789037321435655 1.0634879717058459 0.88165672792623
Ni 6.903297140007446 2.6072727914990175 4.2708245131435 0.9009230323550097 -1.5173067058361998 1.8057826807602644
Ni 8.770160585794958 5.09025759746047 6.689956909953883 2.3186619684982 -0.3300622830062832 1.0232620343062633
Ni 2.2510767629907122 8.148313672071287 7.710520643249058 0.8095982193970831 -0.9292470761106835 -1.5705164570899597
Ni 8.91502911519061 2.8928474931055366 11.795673501998632 0.6497820464359777 0.6685562417196873 -0.13784609644791743
Ni 7.793051861508899 9.166481737564554 5.231036842164139 -0.40883522744112816 -0.1732833542096048 0.8838061701690649
Ni 3.5429151885420245 0.47339875714911017 1.522899197592884 -1.2278855933900465 -0.07264549138086844 1.51845496050803
Ni 0.34171380041005706 7.056259141706837 13.142770456566833 1.8154153187540218 -0.6848992018540849 0.6837272930331709
Ni 2.503537600771639 6.189887617901221 8.894933254702487 0.19814180801418135 -0.6145077966147159 1.5503752062553944
Ni 7.569977265452528 4.22523652731925 2.839630369045714 0.7336077228033817 0.47052499114144125 -1.7246916297152037
Ni 6.093145187244275 3.8058929154764978 12.653228228318618 0.28944682347776607 -0.21227721897429894 -0.2415021772776873
Ni 8.58260477104872 0.6263820331185568 7.793453297735164 -0.3835057475374041 0.6637436508223924 -0.23406937514872592
Ni 8.219240238499959 0.931036055091849 10.3300668386336 -2.4554508273261972 -0.9583002847228979 -0.08395963084210702
Ni 1.0555552826952355 0.031391572919356195 6.045568519653963 -0.4565068224854783 0.6373844441025733 0.3956650086077573
P 4.68411328273479 2.5797179869357665 4.476085145417271 -0.9059611089995494 0.9641518584076685 1.4623475759915008
P 3.395475247374443 8.735354030047555 3.668376958805698 -0.4140134292079579 0.7036538567537688 -1.4501042398477735
P 3.4307627866187547 3.453452258117128 0.41697199321569023 1.1076646662230603 -0.5960825000299927 2.2837841827844088
P 6.756680420594188 8.833400665955734 0.646824756705412 -0.655536946641884 -0.8670490053153841 -1.0736039770939252
P 1.2129293830104946 0.513057696405705 0.7119092235831767 0.9699095868270522 -0.6643038942012366 2.0182766437310597
P 1.9832429526739939 0.9413679505927391 8.054625486619706 -0.9221606015775472 1.6093115755802865 0.364944696705765
P 4.371964242924102 0.4180939797190546 11.229561475947442 0.03949497277082875 1.163325450120474 -0.47622306996748304
P 6.087539879568769 7.215390681722337 4.012048917029129 0.14464897830236378 -1.5715788369162031 0.5825515554230934
Ni 8.850077843742758 0.17488559947576504 12.964571620771984 -0.6505734319890215 -0.1059261078108692 -0.3606116165480499
Ni 8.350502484742691 4.72654157697166 0.21679221161214177 -0.22710091425069273 -0.5347046111431437 0.22055000050605242
Ni 5.936483312491745 3.8599110620523245 6.4132027057060474 -0.390053833068567 -0.2720767076304347 -0.46776516900811704
Ni 0.48696896653976 8.907231632731119 3.7905698912269234 1.7946035242149931 0.02144685701986629 -0.46634360607024195
Ni 6.3226483127304745 9.187589513332712 3.295463978875048 -0.3216763729354331 -0.36608858050222115 -0.29717555958059144
Ni 5.805498556727998 8.331411139788493 11.854441360606424 0.4317360432987016 0.07685181615273216 1.2179382523693474
Ni 5.418020101555404 4.698117302240921 3.54711824433039 -0.3119300921819466 -0.7557158675563308 -0.7387936378796954
Ni 4.694028942517203 1.6255947239923314 13.398797971970987 0.15407824203606366 0.38442954490325404 -0.8464207875420714
Ni 2.4409542480777957 6.0633519594838745 6.515263703876881 -2.3713125048143806 -1.4710322482496925 0.19148702170182505
Ni 5.742498968315678 2.256959561145203 10.445097741792212 1.0501645151240624 0.8397161218283862 0.8986828301705813
Ni 5.235699607179357 4.2457060749857405 8.954080350298225 0.6469782584385955 -0.6830994296411849 -1.5835835746865632
Ni 0.9497666624233642 5.152628207453757 10.695047290738321 -0.5354985677993487 -1.2447088355949725 -0.17649054829299282
Ni 0.40952322379145856 3.7189643980930014 4.477845360022302 1.0203062941120493 -0.9935274833563084 -0.28078683380992286
Ni 4.8609487153095605 6.039626523530622 12.575724212569726 -2.775113769376027 0.12958642754228653 -0.051535705985446725
Ni 4.214812134992032 5.635951874067913 5.18764843086998 0.6910857902807711 -0.7261816055426397 -0.07639930199634584
Ni 3.254010601187681 2.8211994514315037 2.6175556636819537 -1.5680703095423123 0.7858574241367176 0.3888484999065561
Ni 6.974630692471963 6.168428354193017 6.03427835703231 -2.3888397150648664 1.5233511122580667 -1.076644563692462
Ni 9.175176439239431 2.395408810793657 0.592662315080513 0.26426646755739647 0.3145204786169422 -0.09298574560011727
Ni 2.4876188969605084 3.5925582352325147 8.56451516672366 -0.0735122102565379 0.34037214957272344 2.1507712460590764
Ni 2.0579711386647648 7.405369913318382 1.6428712812139628 -0.13084498253973595 1.4449597195323567 -3.3212505336155123
Ni 2.8854569966818917 5.042991719206622 1.7704114551652372 -0.03208685323221571 0.9025186589769036 1.0396409898849193
Ni 5.708080899238853 0.4651609897962966 8.964937627772661 0.3748143904109932 0.6958646997266532 0.6195397026116686
Ni 0.31330062529847763 8.273156638566824 9.153208442986418 0.45508628798886785 0.2849281096718061 2.181032101826147
Ni 7.917339847046464 4.091606362322509 9.801481699992134 -0.7902198148704713 0.4146034973834731 -2.402395856482747
P 0.15407381355185928 6.1775855399995345 1.7718599554655412 -0.29813818060417685 0.4848164680634489 -0.5129741614445875
P 6.498595775772491 6.156884750267223 8.522006400247886 0.005713248334693386 -0.7654441505876882 -0.5858055435840169
P 7.001852508460431 2.5555393165335043 8.340152089876534 -0.08434658186788055 -0.7266983972780581 0.2390925393949302
P 4.035248046040572 5.306413430907472 10.284592623905734 -2.801062113810673 0.0789197544253544 0.706949496785905
P 8.71782588145831 8.165925067804228 11.200198358429468 -0.8366703930235269 -0.5245729220257804 -0.059816200826684075
P 4.732831361161995 8.940715483862025 7.350738512783997 -0.653323741040649 -0.7695903115455778 -2.0832851873919602
P 2.7563961749057775 6.77894440669145 13.059485389172417 -0.5746461845330878 -0.9263407010971658 0.24539199925039676
P 1.8169984067138345 2.9618963739597395 10.914319342264328 -0.027543456835907403 0.19318574956048662 -0.2469392891328586
Ni 5.303055796111749 5.304840984859888 0.9927952610631052 -0.11911406725605293 -1.6321596838230537 1.5068446299626115
Ni 3.5661503913157366 1.7317533315695164 9.71647711659627 -0.9990586975871826 0.9515670797641224 -0.33437145190459827
Ni 2.9247958969193903 8.878983101970404 12.657126969548361 -0.28932366763634043 0.9202489863771313 0.21264077296130476
Ni 2.0599413210655615 2.0491284420677633 13.016529863025475 0.35068741545580245 0.19151684649849596 -0.6881675881927116
Ni 4.691328035188411 6.707277865652152 7.296709266589011 0.2652350021182529 -0.29449261343178956 1.117446171089856
Ni 1.4895411421457847 7.460766262606503 11.096145903587784 0.9347428091179321 -0.4789615519445686 0.47092634034491804
Ni 8.261529787497334 7.277872287907218 3.6769060911614466 -0.7139431544949189 -1.7184209662151437 1.0095773377303194
Ni 1.722522148301935 4.51009900336304 13.238266954973136 -1.280140951150337 1.0257009827650594 -0.8811972717913081
Ni 3.4531470185902444 7.787881288917137 5.576184124767509 -0.13563366217763093 2.225382345806748 0.05096029309795095
Ni 8.936617874455674 7.347624144641518 7.306091219683508 1.4538994452241476 -0.38174916985761354 -2.0477147464865184
Ni 0.9052109411809403 1.6928306670504965 2.8152223065141575 0.30165647817008046 0.838090413299505 -1.5244620859340583
Ni 4.341690031666794 6.914498505675823 2.694613844727939 0.5467995946344647 -0.20144541846611758 1.0351772976866107
Ni 2.868761319529603 8.75109698988866 9.747506101956422 -0.4577800327709471 0.7860129758779754 1.3089434772043262
Ni 7.670706309324231 1.1418918203902295 1.7600148118859171 -0.9809853850252396 1.5082309687871767 0.5981193279543635
Ni 5.964001118324465 5.829196243633352 10.829369331995998 3.3795068461542446 -0.6989855047438219 -1.8422134127834724
Ni 7.1218486412563555 6.386397125436056 1.873313249487397 -0.6540912153342929 0.8317112492460387 -0.3979242369555792
Ni 1.1070760149601935 0.7761334699760867 11.090988280551707 1.0629534393586144 0.07878631417128366 -0.24869560970233298
Ni 4.59034924988562 7.723355502870397 0.5738891592088867 0.7798261303409731 0.9823449843769276 -0.1285962957148753
Ni 4.612631735348149 7.37442972491151 9.7402636004549 -0.41341487639201063 0.059923672938825834 -0.42424256313513387
Ni 1.6530477820466214 3.6448744402038975 6.47148310603909 -0.28876522402970917 -0.09569723099400938 -0.6130062723685249
Ni 0.4221444157439783 4.1308712650989445 2.183451408293704 2.4179435744093585 -0.3630762760384586 -0.7016530242736561
Ni 8.725734360109396 8.290324049533387 1.6593070422842686 0.7645226672146833 0.5888744123173277 -1.0066077135790341
Ni 2.0746668158170536 6.8486777640604855 3.6756740334347513 -0.6658740669018339 -0.8551252572946048 2.8292478322162693
Ni 7.398691642457466 6.741362946154194 12.796959971718689 -1.5086819402816662 0.5016736488301038 -0.3960838413127308
P 0.5161221162619672 7.1752563087784145 5.264055434258612 0.3527777223259279 0.4176741658889968 0.938787411500951
P 2.431445574331229 4.7619586117728305 4.217133805332876 -0.1250440595872427 -0.9737539002738068 -0.6282439152538858
P 0.40561245797429085 5.669102736624036 8.55522756039202 0.607743738418005 -0.2779645338697794 0.9646020585712098
P 3.7294905369291818 4.114887813509386 6.957829568937659 1.436692594427558 1.7670181583975568 -0.21799612373594718
P 7.717370958206946 4.884313413640131 11.633774456939381 1.3945434718633336 0.26857923600013744 2.2895097724142763
P 9.08488103737758 1.545742213822963 4.700854283331981 0.35520767192365926 0.3846727712623117 0.7798302441060312
P 6.617278453634551 3.2928592682456386 1.1435771125659342 0.0005525300693603387 -0.7292149930523247 -0.46878821095599266
P 7.821744377035991 4.599950420458516 4.8785517863281305 -1.924584616092537 -0.36066715237633373 0.48327920548331604
