# total energy = -340867.1308921839 ev
CRYSTAL
PRIMVEC
9.27343774207388 0.00000000000000 0.00000000000000
0.00000000000000 9.27343774207388 0.00000000000000
0.00000000000000 0.00000000000000 13.57261350897717
PRIMCOORD
 96 1
Ni 3.7233502417187347 4.081277125383572 4.1828351808400965 -0.2801890523249239 0.4949234745904638 0.10571682001354052
Ni 0.6808150094666492 1.632301270456281 1.4112800055939596 -1.6685238242743845 -0.051131271458176454 0.2742474900295083
Ni 8.072509168496875 2.745345657633319 13.205800331372926 -0.5118670444233377 -3.35196981707624 0.41999741470553476
Ni 3.1244716203990666 1.9557495119088775 4.763932912278713 -0.8015838337330389 -1.2661842318599292 0.44263006450338604
Ni 9.048436502486664 6.441061054329871 2.161547501070388 0.7886709823261127 0.397191986775245 0.9467249211804728
Ni 4.722785740853232 5.376618755327753 9.91851310660356 1.75587988239255 -0.8159192765191045 0.004788936748211107
Ni 2.9042367430729477 5.980310290931485 8.507124601785858 2.2761564910358216 -1.0011132661233662 -0.01692762899327407
Ni 5.022401246833678 0.5774087578312923 5.520267090846923 -0.6894863070041352 0.1927149805716552 -0.37323239063585395
Ni 7.875698995374123 8.165364102458998 11.203229231371092 1.5397264682922966 1.1213215948848623 1.986400363847753
Ni 3.900880937391446 4.941620329052389 1.939322543965154 1.307029290900749 -0.7659732836182809 -1.614800880829632
Ni -0.007238845645743771 5.156986651466882 4.283232201868172 0.4495162501002581 -1.407852530267414 0.17818516238659635
Ni 9.134800029899951 8.29833592889292 0.7495654962253613 -0.2802697849641883 -0.11986251538630324 0.06234976588181519
Ni 4.509570856037782 1.4836016932983236 7.716682718522483 -1.407216182234996 -0.9796898061422674 -1.1002218367917698
Ni 3.632656018793582 3.3477760056789925 11.439473771934225 -1.4762490165639415 1.339730894898828 -0.6844407741604277
Ni 6.880510730810149 1.953004574282513 8.76112221191626 -2.1310069189479552 1.1814363007885718 0.5731798844002064
Ni 4.928739523771915 6.091647186681934 3.7877227384321537 1.6689719675553967 -0.239975970441148 0.4297382961423824
Ni 1.4425574570338324 4.955307923432504 10.147564241366794 -0.6407461614859545 -0.44866572917450465 0.5187758557280292
Ni 1.991674810437716 6.176879354668137 5.905987395322494 -0.14698765373786946 0.19961042213990784 -0.2653766699024398
Ni 5.308663002199377 3.3989468361596664 5.910289343176787 2.042378678985586 -0.6728679817211637 -2.5673467795672558
Ni 7.713719855104835 4.822957417339684 13.495956003324132 -0.2542833882027556 3.446545018650664 0.567454551880655
Ni 5.899186255946901 6.8056184461124465 11.37710804718819 -0.8947454427893882 -0.1945363500511101 2.765920275802217
Ni 0.39433532830966816 4.04017724849152 12.30586789385035 1.5682292037176797 0.3456326266407144 -2.1114847897546283
Ni 5.574384092556976 0.4269064243403443 1.5709352223187651 1.186201326277383 0.9030112823426062 1.8388534951723041
Ni 3.7709229782837688 0.40133028253793424 0.26619589037945696 -1.8247545938770768 -0.6556415905405483 0.03932785106534517
P 0.31413770977398187 3.947758166111962 0.8261733669395417 0.5169891961412516 0.05981851481952924 0.819589269171524
P 7.8783419251832925 1.2448292135563166 1.4227493936219586 -1.5490839982477969 -0.15961794090737025 -0.09752425690041913
P 0.5523621293345086 7.93468733402718 4.523290907450641 1.1960625353421788 0.6667425855497162 -0.6441037651042778
P 2.3210580521635333 0.8083544559629896 6.6573398830363715 0.15106876578577855 -0.5779621362801981 -0.3805890881112413
P 3.6604114185088155 0.6249926225218385 2.610963341290714 -0.23622293115661896 -0.10013932592576302 0.6313780900074933
P 4.401757866699559 8.03003682279164 8.88509416684212 -1.1077032327704792 -1.3173779811249249 0.5896495999204555
P 1.3465866479282695 2.4019131574482375 10.850272910435077 -0.07458538871605865 -0.06341214570805853 -0.3310686127836105
P 4.822948143901758 8.574239254094264 12.093660104393761 -1.0973056915862394 0.471986149068 0.7334603985922401
Ni 5.008092332112461 3.6901513339404066 8.113640575077879 2.873146590481749 1.1008790107597943 2.5305298678492223
Ni 0.12240567126000446 6.536429089970184 8.860840417288086 -0.2812763718518317 -0.17007230347147484 0.10694195066989323
Ni 7.993378922666576 4.483484675149392 7.655931499319521 -0.4726366381678054 0.7497074565787217 0.5476452304642118
Ni 3.724416687080329 6.607101960411144 13.269469901491483 1.1285325108110047 1.1769823787822762 -1.9812437593474779
Ni 2.955296292298499 7.597449490377273 10.5166850919532 0.6968887701157933 -0.989426059593425 -0.4981247551365809
Ni 2.9243693768122627 3.2170483512233816 9.024593566232793 -1.18813479585467 0.2591144910428118 0.497043349146944
Ni 8.684389149790068 1.515836163532253 7.432173642924969 0.275738472752738 -1.0556358226512788 -1.174880759058241
Ni 7.686530135103143 7.218212246356403 7.177714215585806 0.5365018122528824 -1.1438102629056819 -0.40838322750537415
Ni 1.9137408380999879 6.640504883823864 1.1745819939162019 -0.056648344621663724 1.0379098661264254 0.5611630624449885
Ni 1.5225779529051147 0.4398345241542457 3.2858758075168866 1.4230816885123427 -0.9693084629079435 -0.799772748666229
Ni 6.813834712115686 7.669198079617755 1.5151786767832356 -0.15012131427084469 -1.0583501362586483 -0.9306485844439004
Ni 1.080995385701647 3.31824937931972 6.1792848844663775 -0.13975256944201092 -0.07600463766108846 0.9070301736940121
Ni 4.361678067979466 7.488560782239529 1.8430253098445644 -0.3593031821492715 0.3974203007359672 -0.22701555362573808
Ni -0.01864239226446157 3.246890274472169 8.992562184289463 0.9282178635152207 0.19378378815580177 1.2313709808354858
Ni 1.9683242937377636 7.877896800162802 8.190515520804356 -0.1876177685544059 2.732643258916642 0.4319497019714045
Ni 8.032995049490324 2.785054518836336 5.268305000341477 -1.9993520389124146 0.07844152923735523 1.1668620025188228
Ni 2.627981027230381 2.5324367962694567 2.134917896719481 1.642745686869016 0.3229588391922825 0.19740390140689232
Ni 3.7704314860736425 8.180720915665956 4.073168431260284 -0.6072243755794252 0.536290981793657 0.23736038719517188
Ni 3.350595130808772 3.910228562821769 6.713217910608743 -3.151459251719566 0.7453237256887293 -0.42105748053893294
Ni 7.176657971005931 5.371574005095515 2.166419765357185 -2.076885968733836 -1.3828876327919601 1.2476717748780384
Ni 5.906679193791843 0.1952411074255191 10.40039525300599 -0.3018356840604221 -0.10620764360703 -0.6745870212947994
Ni 9.124821810690598 0.7078786107125352 12.786501835507815 1.3487816922471867 -0.24181713741494484 -1.7377867723362652
Ni 5.837248964033088 7.27620832715128 5.734632809309103 -0.40927025809601775 -0.554638116842277 -0.8282839687320445
Ni 7.806704617197934 3.0674028833968796 2.808553410543119 1.5268210730845384 0.35651610632243763 -0.49547446199792733
P 4.568920858769988 1.9998447092513214 9.72089614438117 0.30397741299377323 0.3312200507598102 1.7564537526181492
P 1.8510060305244607 8.63113179577584 0.17265008529178044 0.4135025510098104 0.1965922041388743 -0.8841085319008323
P 0.5030394950326672 2.8772232183918667 4.159978938381649 1.7653230300833207 0.7915591025071852 -1.9354539547068732
P 3.187206427974594 5.49752583901877 11.246254273976772 -1.053412846858031 0.5387651543657624 2.426715149954401
P 7.007733025729389 1.811566099021324 11.54274834075102 -1.1016192313599287 1.2485379795330755 0.6789057032748114
P 2.7455682201435647 6.1620511274230125 3.321652731038895 -0.009100419639371424 1.3046471638218178 0.4625782254905388
P 8.193833556894603 8.708435174334538 8.687952004641586 0.8954039023089935 0.9152947276956495 0.4941225759557231
P 1.2991344660562854 4.953842720240053 7.782686412967244 -2.087404351766657 -1.6258576528644257 -0.6649147883123582
Ni 6.219212598804469 3.28523594029993 0.9648446483233414 -2.315542706142929 -0.38185844174196815 0.7432763562413973
Ni 4.820258846902955 1.67068403003575 12.212258102040977 1.8673130360645775 -0.5247624123287672 0.11438400877023526
Ni 8.017109650321531 6.977520164963526 4.613222853778201 -1.4654904924958567 0.3081788526696306 -0.43577936013013985
Ni 7.286956241708566 4.944903126078514 5.596165543559696 -1.4161631070156386 1.086292114084555 -0.9370598872868829
Ni 6.812211860478477 0.4413460945363316 13.195647771530547 -0.22075260343516176 -1.0773081654183898 -0.31590116101455273
Ni 2.483890348722097 4.683169614029485 -0.0045504759907333695 -1.5866722409142158 -0.4614551676296891 -1.1024170446708754
Ni 8.161478531967623 8.88761654195824 2.8585687706581 1.04008656206277 0.5858561943162943 1.670512058349007
Ni 1.4789742477727967 4.635763799347135 2.5238004435281276 -0.4127309629511085 -1.0024034456896995 0.04836476445663283
Ni 5.91226180342384 8.769918067789932 7.718325044379337 1.499852257805178 0.8700047455095985 0.2674703192066748
Ni 0.9173460992617226 6.698482417742888 11.961463537370525 1.030716947922412 0.9313990894566798 0.676591710429654
Ni 3.817559097618185 8.047739815794106 6.691406784604657 -1.2328429373953218 0.21290096860122687 -0.10844373202640033
Ni 0.1236900424128811 0.8962972498552287 4.936359507716455 -0.1489848866735563 -0.059281925589768865 1.164554951652201
Ni 6.98860192328618 7.107505944384984 9.51859609600569 -0.6287239402140978 -1.2406945722292568 -2.8444124557718493
Ni 8.32532163326022 5.665579081130182 11.098909546099934 -1.3593023892728526 -0.7059184844182294 -0.7851809668949832
Ni 1.5214836872297395 1.3071930836147678 8.60316403433208 0.07366082001926023 -0.6876654517453125 0.3853865094998847
Ni 1.8980965483172954 2.071333642229849 13.101223771871192 1.047934854462595 0.8344049940281179 -1.0454000038558835
Ni 5.355326941847573 6.154548916140145 7.800724177078872 0.5101346351132634 0.18312759399353623 0.22004940672055007
Ni 0.3995052699539189 8.458107990935604 6.612645621603849 0.1312177924981224 0.4155301229628005 0.20204140017890362
Ni 2.8250044894254525 0.453236496646212 11.377311135478788 -0.46756256607900765 0.5699523786018442 0.24760751884447682
Ni 8.454908654850822 1.2956940205854028 10.24508371460615 2.6423376312518494 -1.3464620429750744 -0.5510892231487541
Ni 7.269995123740252 9.117004302518216 5.579633785767398 1.2141376476763346 0.7609537189165024 0.10489998053919998
Ni 6.118178492590816 4.021092513237945 11.91437951098424 -0.38602311464261907 -0.5213515868750054 0.26311204223797907
Ni 6.504009150977716 1.3277059283090864 3.707739336312579 -0.3264113165172572 -0.17168772758771075 0.10639636257906838
Ni 0.7742764262691909 8.71274732297055 10.182908095337615 -0.14934921199151052 -0.042974446678996955 -0.07809005943520746
P 3.872142553255961 3.1730551616981337 0.2218336180247182 1.3791582476565152 -1.6255686608690971 0.001593826849681126
P 6.94656542916351 4.204576756059731 10.006748941134292 0.2691225100981171 0.7303092545577681 -1.892273305554341
P 6.183621144040999 8.14706760942921 3.729388177152944 -0.4478640592088158 0.3766740693275513 -0.2001092161531973
P 4.209083646892208 5.753138882036039 6.0468434986818735 -0.14482227065543446 0.31309377347274464 -0.9552165035912515
P 8.055928261483565 6.922769787443065 13.048181561616868 0.23605709500271607 0.3079212281328697 -0.7130579236764881
P 5.614408250649507 5.939043492156748 0.643872414797229 0.038441848915966054 -0.41420626194505433 -0.04022413762736944
P 5.92230493669868 3.8473917474290453 3.556567460603308 -0.5332938468385461 0.29689273823284995 0.610346980368807
P 6.506633533911031 1.8007161766468427 6.641283852609724 0.7626833000130995 -0.7912374575017084 -0.38319644382710133
