# total energy = -340898.419149663 ev
CRYSTAL
PRIMVEC
9.03963571773933 0.00000000000000 0.00000000000000

0.00000000000000 9.03963571773933 0.00000000000000

0.00000000000000 0.00000000000000 13.23042061329819

PRIMCOORD
 96 1
Ni 6.3058600977924835 2.056264033414211 11.3725786724209 0.21680261764847825 -0.32421276620404166 -0.008547889570011086
Ni 4.657835056487276 0.3230639278002441 5.986659710330748 -0.12070763699541791 -0.20945903279921343 0.08360610415743021
Ni 2.822201413905962 1.5767475130666948 4.785456634632023 -0.06967072502326065 0.411076458066821 -0.2668591679852372
Ni 3.455455020208125 4.2713815866426765 4.853050511284335 -0.5311004387316531 0.4076329796029109 -0.17462032785347345
Ni 4.946253676142065 4.626820066076834 2.558247664565025 0.6368478548728128 0.5709831338592037 0.4667891782480929
Ni 7.1294703546522395 6.152457478362229 2.700143731592642 0.7767868292940171 -0.09814492120355356 -0.391837407331551
Ni 5.071271839178035 4.624008739344789 11.463074466358218 -1.3965257924006853 -0.2532636886889897 0.9717571815587521
Ni 5.646852569112195 7.846114601157355 12.384084087011445 0.13636256992385548 0.1459126755061358 0.19578796307002408
Ni 1.7243557259527673 6.444844498130739 0.33548619530885093 0.4843994351306883 0.3380105913190824 0.26552347989294917
Ni 2.7945401283752265 1.6540906369232222 0.41831457016539475 -0.22943881835524998 -0.5448093036773134 -0.4082009362912389
Ni 0.5616804819731749 -0.09571256775424232 4.851846431796527 -0.10971180010554654 0.6341818780048755 -0.550978922823135
Ni 8.641322322351238 2.2892877649211725 1.429957387220012 0.5406163486418882 0.6992459574940603 -0.0675883885729352
Ni 6.857187484890382 0.6367483295002624 4.802814543284349 0.2772672506924386 -0.0340293216705672 0.29371331206360385
Ni 0.8736148101834054 7.529085534213425 2.663628122801333 -0.31148374867314743 -0.21250424738344045 -0.7133772546891198
Ni 7.57935494886585 3.9695029492900895 3.7677726289760365 0.37902971404392144 -0.5096427830785094 -0.5961920290246636
Ni 7.647839229643906 3.711150158287337 12.707144398957372 -0.47802104240817034 0.41174211667527794 -0.4029841679769899
Ni 7.836867053739727 8.71425410394012 7.023712943603306 0.3207415198259896 0.042305188526114236 -0.13300702318806126
Ni 6.869852014638277 0.7360532485191825 0.4011419740468528 0.23629980714114143 -0.6109077379682833 -0.721803531079602
Ni 2.010785625732796 6.548646635957352 9.173378109899142 -0.09564452337920303 -0.5793325342651635 -0.4000109442812788
Ni 0.05037517839121902 4.886718634800421 1.4240698724271463 -0.4280855910303079 -0.5413953928997579 0.1770201955442177
Ni 6.481590617634804 2.045271836288272 6.94986092709056 -0.6797652230616293 -0.7461104832560828 0.0600267741755934
Ni 3.500490485735617 4.22718680724406 0.5872970018872267 -1.2817882569457733 0.30828478211987553 -0.4435947424095005
Ni 5.949608051136834 5.582888106231317 4.7083232303259255 -0.48135447765677747 0.4475544983881969 1.1140669702049781
Ni 5.160908867714889 2.8560006121410666 9.198741520010952 0.8985781862719171 -0.5378657824799448 0.12004043572506423
P 0.09717698875292832 5.36951654294129 12.369358520302436 0.6258687301534899 0.8832184159863951 0.36091680649329455
P 3.854690535065948 6.030476632953161 12.714090455101754 0.07660987534525515 0.994654654982216 -0.5957387435373289
P 2.417632513929468 8.50639671848465 1.2892572640079878 -0.34576863799794644 0.2986413454928405 -0.02845902667164131
P 6.2519929080939045 7.677914097931736 5.859435876160954 0.47043371697921565 -0.32004783619307464 -0.07343456294106708
P 4.740836992351071 1.0761686413183242 12.492427737861144 -0.3610967837145846 -0.7841880068540946 0.49683457557024757
P 4.065277890531313 6.152023575844099 8.204819101004015 -0.5603572787142413 0.6102729325977619 0.27109531755377186
P 4.788783220604347 1.0656736241610745 3.8467320397125953 0.17770488031606815 0.32782079527027413 -0.6171521762160984
P 0.17164731635400868 5.693271098916224 3.5447476386212142 0.15169277252302263 -0.7446930340832658 0.20648915153761213
Ni 1.4556525519654746 0.9206145885690111 2.6049771578403793 -0.2569766187642026 1.4638385587147305 0.10739703592944085
Ni 1.8977992179391148 6.490702570515517 4.828693212636438 -0.08882132980978251 -0.08608104806048401 0.004519742247224474
Ni 5.863424163473424 5.6453700688419195 9.345161924753647 0.3417034667896373 0.7375883047176846 -1.100288685473963
Ni 8.48181794875979 2.4719516854177654 10.291083877692541 0.6498704923847259 -0.6345996822685845 -0.31292870864979005
Ni 2.431725306132872 5.264466935375055 6.981759089918111 -0.9614249463948087 -0.6443187093285614 0.08887018076984694
Ni 0.8105868535708234 9.117647851263344 8.941369529491888 -1.2445987923796695 -0.5843492707534645 0.38688109176754015
Ni 1.4290127452795014 1.096082958973295 11.444671575808067 0.015607110409637638 -0.09733399526648398 -0.2628449046195215
Ni 4.019139589436909 6.989410237654456 1.6502307124390312 0.30481713528624926 -0.12266013273609844 -0.6423687846910421
Ni 5.626070446420965 7.914011305608779 8.099716159586594 -0.645315783134508 -0.14980969656769683 -0.22529805671399908
Ni 5.390723528514854 3.0138236134747634 4.8450992476396175 0.03226477357097669 -0.8664103432901207 -0.44182222389011
Ni 0.8828759170547251 7.4458033696400046 6.927858453567093 -0.23126404448944687 -0.03312300780621392 0.38413335381907393
Ni 5.140244260288987 4.5394429464885695 7.1175036847876685 0.2844537411385488 0.054748299385473445 -0.3732879264641377
Ni 8.39169277989004 7.136937093818379 9.24594740209267 -0.43306864606719614 0.15144620372985532 -0.025887666400039287
Ni 4.624921742560019 0.3439933965549213 10.307410363900733 -0.038887678204133025 -0.3530644003284113 0.017080352521054457
Ni 8.235777141708954 6.99744647387564 5.0117096789290105 -0.6887219180342848 0.7110133824426336 -0.38283314695041165
Ni 7.328631610473536 6.043556985947597 7.142905965333394 -0.30207531087505396 -0.054412513312609524 -0.12829753352753387
Ni 2.299954535158515 5.329479996008079 2.598706362489833 -0.30017423719759917 -0.5923299749660961 -0.015056637222806325
Ni 2.1620187325724056 5.162653517423201 11.353407412828227 1.1134362785995147 -0.30778958765101183 0.3574833553317133
Ni 1.0745143879679566 3.298662537354985 3.6681874812474917 -0.4340099269345429 0.3229089597909536 0.6938353280014502
Ni 3.791322688147498 2.6614857291180707 2.581228226681442 -0.9499688820390673 -0.6529097934316821 0.4717807179254133
Ni 1.1541716585878397 3.2224674472443415 8.189947996158716 -0.7997974312565774 1.0834559301873405 -0.5246377138254448
Ni 3.6263041367214925 2.7439272075626153 7.130363470668722 -0.6671400780984511 -0.041993056602334135 -0.6948570843977453
Ni 4.080274646314153 6.8888533290780165 6.077724097359533 0.5308145320601181 0.1358141536195532 -0.2663323489474897
Ni 0.8846992115944471 7.233606959003244 11.296940423875192 -0.8865798762594602 0.5850691796386247 0.30697660483141326
P 0.3256592072368043 5.58890850367036 7.975853262005141 0.05505091822755681 -0.6914431736201898 0.09039124540006367
P 8.634045415536779 1.5608739126118019 7.869228949883529 -0.9754821958188232 0.6451471187671276 0.5579185873657617
P 1.7703674721460494 3.1982864214944335 10.340711478203566 -0.7561370142541494 0.43241172920948756 0.7820143962415436
P 3.933904863531908 6.216792566310674 3.842101034295146 -0.04852931505895513 -0.22238808215605574 -0.20062575077829964
P 6.705755506063294 3.9773041549806205 10.373404225017442 2.067296525273188 -0.8752395115459765 -0.3360141297143439
P 6.436573231378901 7.769096904189425 10.188362880306933 -0.2800306723701887 -0.2308398124678347 0.45124480275559065
P 2.4752963506616776 8.530360792975493 5.84292407741898 0.048373506207381206 -0.17688906928299214 -0.7737490709089577
P 6.819447005448936 3.8667946073945934 1.5181110115230119 1.299775180441497 0.4828539450204394 1.8701736454418243
Ni 5.349294877669311 2.879223436496772 0.4472486364159759 -0.5569649652032408 -0.7594722492749694 -0.6344281896877267
Ni 1.569298853172144 1.1819323801123132 6.871272141421571 -0.4820314491191441 0.63289118421791 0.03490503940730118
Ni 6.86958986520024 0.8148128833046858 9.095729446352765 -0.24317879364916187 0.14380668490672652 -0.02958388430470389
Ni 2.650547769806897 1.6139727332678613 9.279685130804372 1.1614128064787934 -0.7349902049732052 -0.7387141907920116
Ni 6.581315879718162 1.8249668723439723 2.59108504555161 -0.8241910296095936 1.0242714494073843 0.5804522496919035
Ni 4.080581993931161 6.909156351072146 10.549765711438209 0.2781195713904049 -0.3118971820614822 -0.1884279231605271
Ni 8.035847516845136 6.980153650601033 0.32233262126448053 0.2738091169405091 0.8566026131710796 0.1561325534619311
Ni 7.539237045210489 3.745871399373466 8.309378760310196 0.483083287422426 0.27432230913150174 -0.26661337052301826
Ni 3.135605586896355 8.316727080247428 12.391294100521025 -0.05205738281687164 0.18449902041976612 0.41572064170705175
Ni 0.10278969861764521 4.753293610475697 10.078365880070447 -0.14811971045978362 0.6357250541222793 -0.08223570617246483
Ni 8.5713645809387 2.320347953510587 5.674222778370352 0.7513794449645059 0.3425614439145584 0.4196762839206901
Ni 3.636103101922576 2.665264296880112 11.322396038272103 0.10881654198478678 0.004597646673011437 0.6438546252079491
Ni 1.036773908526512 3.302748452734035 12.658019402196512 0.46285770440417057 0.13779081772994978 0.013075859347351672
Ni 3.062203744246168 8.557271788735298 7.9856703064778145 0.9387372749893058 -0.6473942629300915 0.13187008137014064
Ni 5.505563061646379 7.935977620589069 3.6695235394178973 -0.4051955738060118 0.010973725402684327 0.30252576814891124
Ni 2.9768695823474283 8.373242883233756 3.5743307507218307 1.033686572073697 -0.08834490439399624 0.3484634112212902
Ni 3.4443362681810648 4.287860842695791 9.209523997586462 -0.8092570340075804 0.8445359118145328 0.37604903414904267
Ni 7.221430569588244 5.887044731804083 11.404410845907154 0.27050679204015354 0.9221983967940182 -0.06889785141297812
Ni 0.4156623410233301 9.142597246055773 0.4032265140610317 0.2272515808959441 -0.6959680580737369 -0.16528208117168305
Ni 4.724249260668425 0.5624886254131904 1.5571541024824238 -0.5597646394355651 -1.3327688617586984 0.16798688169735584
Ni 5.979890831047933 5.573568241727334 0.4540536742419687 -0.7431881674029652 0.4554626974916801 -0.3360161865968729
Ni 8.107522789058601 8.964371786734212 10.972106535386411 0.25875865036528983 0.1342990025266074 1.0708359274304848
Ni 0.011611412177852897 4.8416379710939585 5.7059103176838954 0.5159116468063566 -0.2952166360820077 0.4607923372347096
Ni 7.844080683103625 8.770128092785045 2.6134183697451507 0.2898234900908944 -0.4502986367922374 -0.22578990874875304
P 8.60425981559437 1.6232202806854894 3.6103699707067776 -0.7281369294967976 -0.8953398818402775 -0.03361126029654211
P 1.718724032852882 3.224645999470782 1.6466049145219144 1.236184343063729 -0.015635906765044037 -1.0253564549414471
P 4.676402468408887 1.0865099846670698 8.069127839985645 0.7404237172839506 -0.35739413805201675 0.5460727437707692
P 8.497076853980667 1.6987916359263227 12.3942184227005 -0.2258855537863529 -1.2777539389753996 0.058378954159525265
P 6.165583029535637 7.702339193848092 1.5393062455700433 0.6502756982429446 0.6095013445390599 -1.4588421339414037
P 1.6957814372068014 3.345614405670881 5.872335436439503 1.0002581172119225 -0.819858977893143 0.3247190164164988
P 6.985568392441854 3.953484714662487 6.002721335210164 -0.01688237757763544 0.8758146673231562 0.0019290987019128067
P 2.4197658679769365 8.442974633751433 10.210339138886598 0.43357618183123386 0.7232358926507544 0.8475083641792952
