# total energy = -381173.0842128954 ev
CRYSTAL
PRIMVEC
9.18828262211042 0.00000000000000 0.00000000000000
0.00000000000000 9.18828262211042 0.00000000000000
0.00000000000000 0.00000000000000 13.44798038329550
PRIMCOORD
 96 1
Ni 0.9038789370513092 1.3250238760055624 9.640144098661404 -0.7860674832649946 0.37396232682334307 -0.27215564049748614
Ni 6.927983555391837 7.9067837498279605 12.051515180807504 1.7459176289735154 -1.3950515218480037 0.7465174888865144
Ni 0.5268699141931997 5.747748638654108 4.43794147767859 1.9752026953597208 0.041994342153914774 -0.1640104135481111
Ni 2.49040133956801 3.5629220178556316 12.917376679232934 1.1531112285916334 -0.768723078449276 0.7269243972459353
Ni 3.180487314045139 2.943080464853473 1.6803117984886775 -1.3639172623370446 2.383001768226851 -2.2482055143488506
Ni 4.561559714706989 7.165656864782688 8.77713372436726 0.016168125119430218 0.15837018454319823 -0.6079301433971982
Ni 1.4950989893478386 2.5830927357536875 3.639036833167143 0.12961033880168646 0.037505967365257985 0.12669007983109792
Ni 7.989597742078309 4.819897471958822 8.395318310812806 -0.31827351790147124 -0.36687430962831014 0.6618371778282989
Ni 3.6890128217668177 9.155508126039127 4.701117784616326 -1.158948661209017 -0.3889968525589623 2.1791497972017697
Ni 5.812314701401605 1.0395071784367946 8.574822439893161 -2.9650568436294997 -0.5557226081557074 -1.211868392026184
Ni 2.401863047176537 7.1047936799755975 7.531434130830986 0.49143603026249555 1.6420167791227915 -0.009352901969809698
Ni 8.28064578585086 5.896460994647881 11.40341690192412 0.032496172855492424 -0.6031008403293548 -1.059685053019988
Ni 5.241097540609458 5.392116155568597 4.40667467037484 -0.2752147390387841 0.5735460094903735 0.8921416866179538
Ni 2.0417007407048704 5.568402548036718 0.5939894007115138 1.1762570705804773 -1.734003394034433 0.003860511396670771
Ni 8.430423982641376 7.720619953424511 2.8838114471001317 -1.7963860700367125 0.4973518815262982 1.360335201412741
Ni 5.367840712594513 3.3167587352217622 8.64121513324749 -1.1753373869796855 0.8347924592745235 -1.0245743253597839
Ni 2.719887889045951 2.044346966131266 5.614478110617278 1.1209757815096695 -0.556879604578286 -0.6013779441009772
Ni 2.571340922141328 2.9853833185448746 7.751268389300496 0.3655846442826091 0.7036366303625882 1.6634536088403287
Ni 8.76480396777115 3.464579827790673 10.83104385516447 2.0772749766421383 0.7892165704169376 -0.17953267755342628
Ni 5.263213737141866 7.959983906837781 3.6915515442852653 1.93709920361978 -0.3797588789004621 0.6016738780748413
Ni 6.403093716127069 5.430808014146896 12.843224481112665 -0.41123818045566596 0.5620362090785611 1.0993358346423907
Ni 2.9457910082589827 5.270178455451615 2.977140510107308 -0.5228194296697835 -0.33209936804097 -1.1504645349974056
Ni 2.4761503130529445 7.805234849090045 0.48693212447663914 -0.6465745952422736 1.402139539043037 -0.044463886740329875
Ni 1.7199822091777794 5.205410250484046 11.681144692222208 -1.20369125553203 1.3531844493005727 -2.3722069916041923
P 7.527059589422977 0.10178136429099922 9.028812733124271 3.176029227749446 -0.4962848737143646 1.5754601742484802
Ni 6.644837434767548 4.148867995864832 10.89446413905547 -0.6974891227039537 1.4969775073605445 -1.448645653024376
P 4.5252016799422465 3.371888431604996 6.2408313995905695 0.40978730694175236 0.03115817077035924 -0.5399401485104701
Ni 8.041934200511458 4.692070082611564 5.761720341374165 -0.46362080782244025 0.5990868340739552 0.4263932909295496
P 2.4580493960737826 0.8648342484161569 0.38913204309278243 -0.484356754818211 0.6571955652912295 0.5509544973431026
P 3.945715064692615 1.8914906946260197 9.516799672458378 -1.8998156366779733 -0.40305615886550583 0.715361117888368
P 3.982945986316759 9.187961140643392 7.158547890434071 0.13587148922004985 -0.9013680903122283 -0.3716740450097986
Ni 8.232260288991842 5.64190880988103 1.2054530775199666 -0.16299585624066767 -0.48060962907095295 0.11448145358004799
Ni 6.2608315346101335 7.260204294079934 1.7349646229981965 0.9180303814592576 0.30009299033770254 -0.8226661083246348
Ni 0.43855214058725933 8.346645220704321 8.385568624007432 -0.6290327297037682 1.0875545257367463 0.11648742826648324
Ni 7.350764008672126 0.565930222908994 1.702958158934637 -0.6961369795514333 -0.7705076811535246 -0.4719552958300646
Ni 0.5813178399978275 2.0370422813604874 1.288776100633586 0.216384299164137 -0.9023790480752459 -1.098065195460083
Ni 6.070257362496025 5.414140469273699 7.08916992402059 0.17736780869162355 -0.19954203079581764 -1.1340434133269048
Ni 4.355181696296353 7.835730759472703 12.800957461723913 2.4355528028506894 0.8902922921140409 -0.8135314930132181
Ni 2.133951099319482 3.212232830879151 10.429796142463202 0.6611306386795774 -0.17660033439797973 -1.063628353938452
Ni 6.5556375860194755 8.119069834034333 7.447948475113036 -0.8618214383678576 -0.32155450264558816 -0.6817346880831742
Ni 8.46800405900928 1.4122666205320298 3.548141746255286 0.29683925928709526 -0.23206957110987778 1.0071797840324204
Ni 1.0945266154272622 8.975583173609714 2.1264883760857383 0.5497666476825886 2.3019971062480096 1.4189365559957174
Ni 5.642028257556526 2.119837897045374 10.864556278767566 -1.0359044056606224 -1.3516441013966465 -0.9386953660077769
Ni 3.139838351245235 0.5202056527287399 11.540384794931716 -0.807142558767739 -1.0612282291373916 -1.3059244878723444
Ni 4.148491276272879 1.9048320811507624 12.99186516850114 0.11597397896517445 0.6810073229988465 0.9917593357122919
Ni 1.1144651889525314 5.365148545754465 7.157795370078439 -0.425388503814119 -1.65780180987119 0.0429541349640228
Ni 0.015507983592603657 8.472809530877353 10.911287884735087 0.5455199565910928 -0.9767826597978015 -0.6737449850094784
Ni 8.05698460762408 1.268571066909131 11.195054214443687 -0.8506186276735027 -0.2866810878071708 -0.032484860001582766
Ni 5.316781425460909 8.86571887700066 10.782375359197351 -0.47492054910597564 0.6472937327964852 -1.7308738472665157
Ni 8.48846636465019 6.7578900654841 7.278692956590325 -0.6689105397353126 0.29129596087136284 -1.2811609077744193
Ni 7.300926763141684 7.1681928308163165 9.503848787949682 0.4798203004004382 -0.4742381783269703 0.806268897913534
Ni 2.645857895085999 9.091870079847414 8.93664047491287 1.389427490793007 0.48420043174600474 0.047647940895266326
Ni 7.673474874734116 5.306325159713555 3.5198611308389607 -0.505607179556555 1.1622314457253469 -0.13665696123582272
Ni 3.0428008973280125 6.389403174858565 4.868586182147949 -0.6174977324809753 2.535881104858807 0.6739984957811812
Ni 4.594288377793169 9.264545477202434 1.631764587853602 1.9512940070629234 -1.5624660759816573 -2.285272337294161
Ni 6.195015865411283 3.2079510911267195 4.272383324126648 1.2187270668192303 -0.6792486884365269 0.12318926576669106
P 8.825299621269018 3.5594120938525657 3.9836553217435564 -0.5822772187157843 0.465175811014386 0.1991604790866828
Ni 6.8378373135225194 2.807764625080826 6.602716509074211 -0.12393617123504463 1.2790469467552101 0.8615897819730258
P 8.078016586794284 7.627395636840463 0.5517030859290274 -1.1783214093086738 0.9881924442966402 0.301595543025158
Ni 1.1739685079155018 1.1666546348619928 7.012852966489007 0.3964926467153752 -3.7099884760861332 1.1393314011987217
P 1.3332382007666643 0.5158550008558297 4.409538658101949 0.4851535396878935 -0.6912218016380031 0.2136699855567675
P 2.5967832770221904 7.360053362512701 11.628939626232105 -0.7279862628515463 -0.20619681710817392 -0.2837037503464017
P 0.514327908266014 3.61540548881247 8.64588186204633 1.0476371207165183 -0.8380292210442665 0.5040956280080351
Ni 1.0300891886379924 6.807653804752698 2.089923604959558 0.44614527674549614 -2.353100095571412 1.1155957481446788
Ni 7.926915277290572 0.762734050714408 6.964427041185974 1.529815636936488 0.7469466060041329 0.5625185480316183
Ni 2.401523080715507 4.390124735520593 5.331694008332573 -0.6321733322152789 -1.4444614397396993 0.18976129725996996
Ni 3.0681605576643003 5.176972515433028 9.49018581152937 0.41529666679575566 0.7849791352968223 0.25309990941761573
Ni 3.8536484717326145 5.515523980922466 12.441116745147818 0.7722943407403022 -0.2627891116809216 -0.722405169219343
Ni 0.17838591507204865 4.090798049007825 13.161605828352025 -1.0193454728606768 -0.41400417323657734 -0.09311841452323963
Ni 7.323676951182497 8.803394755239413 5.041809201153708 0.9316068345921117 -0.30557972448388665 -1.3980514850165922
Ni 0.43585629843411916 -0.1980626225394978 13.279315999584687 -0.76885497604145 1.903562248204599 -0.3153460598420311
Ni 6.042187158754229 0.613531959251097 12.805705047410784 0.08553391730776236 0.16624135976115886 1.204668531843635
Ni 0.9058195023639989 4.194763468103874 2.045303466363515 -0.37380188998607883 1.004947809378108 0.9501984815513699
Ni 5.922914060629102 4.812225255878822 2.2529402795082345 -1.4605326342699492 -0.26126778994038874 -1.49034251854253
Ni 4.263942048782101 6.343443384640409 1.2429816995045802 0.037202834302542384 -0.6470888158745307 0.07071356446547822
Ni 0.7630813678016223 6.2771315481741095 9.49802617318334 -0.07908661902052185 -0.3496209218645011 0.19016367490471123
Ni 1.1604157908879569 1.9307338501681517 12.09387683950838 -1.2107211657956183 -1.15305235032924 0.516554165486362
Ni 5.361804010840548 6.54820426529047 10.936019066532607 -0.024992408279279538 -1.213534209764381 -0.36061547320279186
Ni 0.2851932700166527 7.879549679814644 5.355913402782001 0.9389856435546861 1.04470554889202 0.13642556195130698
Ni 4.728768083837337 7.21360132407064 6.223174276667293 -1.6646694835253009 0.9991409728883439 -0.01190112231296015
Ni 3.6575062002838 5.175943427767208 7.229432735215359 0.49056416918050344 -0.3583127932115442 -0.37145035903476675
Ni 0.49671580792811704 6.750631322126974 12.894488666951162 0.08633378750123841 0.10241115267907525 -0.26169664994769126
Ni 0.4342593748955515 3.0305712930136655 6.3827609652726585 -1.1399731485477786 1.7107066282900214 -0.662832966082665
Ni 7.562820385810235 2.4746158698369443 9.052441320994125 1.3812791506542599 -0.3213372444284595 -0.24671123228245254
Ni 5.717482435339712 0.9286505472928422 6.015268246838568 -2.1575895545324904 0.08087970636520263 -0.17674457328532786
Ni 5.402517291619567 2.330414960663866 2.0680711121415176 0.9881232816216016 -0.09440242344198581 -0.31607419625730726
Ni 3.9017675083924472 3.3557629954129 3.7821507684931985 0.5235987310379692 -0.22460720129456158 1.2670213830492438
Ni 7.7536058884271455 3.285270490304205 1.895963550659246 -0.029776974152116456 -0.4077556212237042 -0.15981925828489896
P 6.619615598672219 6.86511732494949 5.3549863050544895 1.143848572342785 -1.4894809418731831 -0.15042470444387643
Ni 3.2852613020214747 1.1830097781223523 2.867257836932793 -1.8002712640237317 -0.9430883528691499 1.6972502456747995
P 7.9614724086401285 1.5526360158064734 -0.1417605012798473 0.9740876294641418 1.0508849382298546 0.8111347106462675
Ni 3.1977061558821687 7.711891084830499 2.7653754015317573 -1.2452420823906234 0.0912798186526041 0.8627961435763012
P 6.086116338488935 0.9878690294911657 3.7626238300342574 -0.1576523325405672 -0.33036721584121165 -0.7630779643483567
P 4.792332623767205 4.247743106328161 0.4723898293990151 -0.6819753433390706 -0.9808969390764913 0.2827287880276421
P 5.823129310175449 5.313611467918872 9.160616811237308 -0.11546541475987211 1.3338374122325285 1.543646115061677
Ni 6.241848542488841 2.9704799239559407 12.838396957366042 1.5067749530669403 0.7434984995545325 2.01413048277317
