# total energy = -340865.74238792004 ev
CRYSTAL
PRIMVEC
9.31993063529805 0.00000000000000 0.00000000000000

0.00000000000000 9.31993063529805 0.00000000000000

0.00000000000000 0.00000000000000 13.64066055778388

PRIMCOORD
 96 1
Ni 3.584696861529291 9.06622323332668 0.599737519829367 -1.2036398334688045 -0.4094774890108173 0.7124686268319214
Ni 5.006713198755789 2.301566126796923 10.41836805250872 -0.10022674343324675 0.08714805587241765 -0.2900841999514488
Ni 4.219309560833429 4.819485117390566 1.4705992703013469 -0.7104161151782669 0.009551134023544842 1.5770501444434195
Ni 7.81327043315853 0.27401061308070396 6.497782764139548 1.4833249495741163 -0.5726304396546396 3.3269205874170957
Ni 4.515254630058941 6.1831120907984 11.98176493759156 0.18290956444545917 0.31085588528116137 -0.5295919725069266
Ni 6.795739074340649 6.719101286841708 10.359112867157934 -1.652474998341638 0.43293854824723504 1.3374246153631546
Ni 2.9521997864209775 1.8105455948278444 4.100068507590214 -1.7587073245390163 -0.6284994829081175 -0.32100248679686005
Ni 8.578912033648077 1.2972877089766703 12.867943993639912 -0.14320504676698562 -0.17839316463234436 0.6574328781130162
Ni 6.0697537776098285 8.388282177694855 2.705529189104368 0.8993225206371093 0.39595168661024066 0.2093307347514653
Ni 8.98206426201263 7.9120523752357865 5.1168160602632975 -0.9697866880959427 0.46030048519995564 2.7967686286416416
Ni 2.6076606002041625 1.5631666828025006 9.753672481930222 -0.10077875928197483 0.08330348531534686 1.8275889780020784
Ni 0.4186848243326581 2.7147186404571535 11.310030955591536 0.8061480560649535 -0.9680028567226426 -0.7319077093931395
Ni 8.868184032722885 2.611323332842748 7.036357308869735 0.19812226763015559 -0.32787041756128693 2.0542715737684296
Ni 7.2465254668675625 2.0944679538656352 10.966982026242176 0.3989305667329065 -0.4057082517763723 0.7785693751157365
Ni 9.051917140196329 6.38626793317976 3.575557737800547 -0.8965295312730045 -0.5450993241139064 -2.208094762370894
Ni 7.869618732224394 8.700816722993347 9.822762057815956 -1.560034069501397 0.3977370606454376 -0.6513424489445621
Ni 8.735580063303582 9.143746414211538 3.034733361877092 0.28926376093268247 0.3544682226544734 -0.6848344100544206
Ni 3.471962983676051 6.502105347848901 5.024209504054556 -0.798753049152463 -1.6225915805186442 0.2225194655275974
Ni 0.9585175596638861 2.727859742290244 13.552541343547762 -0.44975253448078023 -0.029854621467587297 1.19294970074481
Ni 4.083695253902005 8.693165060152944 11.78501188737994 0.3819337750645938 1.1536758428458516 -0.17295168190179894
Ni 5.248211234712565 0.9061768306605958 4.62549356254997 -1.426585330790227 -0.8924646171750114 -0.4392652617962112
Ni 6.820502129355205 1.444980645678084 2.7210934728357588 0.8575387518321037 0.6307831367359716 0.826343557176222
Ni 1.3876257941313872 3.3897984774629086 9.182782942600122 -0.9709269723479731 0.5581605281732388 -0.18641012139954993
Ni 6.700843543231051 1.605143649225367 8.676060191930056 -0.22694793361259627 -0.09964593122911225 -1.1494191244520269
P 1.549867142152982 7.342166592407406 4.227882032795185 1.1726148458422 0.4378236442536782 -0.938179859823939
P 9.00693915619172 2.157740961202412 4.186932122699983 0.21585568035417665 0.46648398830284826 -0.16906185992908948
P 3.5224863262556156 1.8675090092986617 11.80902002803387 -1.7149173239372595 -1.069246728566494 1.8504113752132323
P 3.933746894049096 6.747144957349348 0.35283765222545616 -0.8963642093397337 0.7546321475738488 0.589326669363398
P 4.001540067619241 0.6531491088330983 2.674660647699133 0.4301458159934463 -1.3203987702291196 -0.9239868561530087
P 6.157910999056075 4.871844486254612 11.512157877659156 1.3727410312762618 0.03221386572838323 0.4881452753263657
P 1.7739648680938853 7.338149702414454 9.58860626301103 -0.46028068770561376 -0.04056146636213014 0.8384110298637173
P 6.044142608930868 3.0789694794236047 6.902978853236013 -0.4659893080546168 -0.052539978880244996 0.533164006128901
Ni 8.449812358050929 3.3236269717785496 2.086625232452482 -1.6542380037793316 -1.3127173424244616 -1.9134429976534204
Ni 0.5212245623383559 5.158124787678057 7.542916960758184 0.5867247129641767 -1.177315850862295 -0.8623472289643407
Ni 2.517676672403813 6.291614720259992 7.866323204842706 -0.9545708995874527 -0.07280772799034557 0.024758180781286394
Ni 4.194192348464506 2.8908932843939756 5.602069419314422 1.3112327874591352 0.6744533239304127 0.9513562493048969
Ni 6.435076408569758 5.144713407864001 7.439315682682424 2.4490199840991886 0.9682517395086551 -2.0456046421220515
Ni 0.5767219517607014 4.324783212922146 3.4821198438020806 0.1977036920354982 -1.0377843962921545 0.8807267599127928
Ni 1.2852463589281924 0.4544472611794218 4.957683841015831 -1.155407737935294 0.32904618303694294 -0.5176368570275796
Ni 9.253684312951355 8.002204061782942 7.933762221058484 0.9262301436612307 -0.14975673184257435 0.09881906445244272
Ni 0.009325522336305585 5.055596233588812 0.8584718350273619 -0.38067470584651214 0.9782654149909151 -0.0929806033937947
Ni 0.027216060690065533 7.164631238635383 11.002038012366281 0.6510256890350916 0.6657969338069953 -0.6044583827985138
Ni 7.534641794575489 3.6477368706066158 13.004746591694541 0.39332556184130324 -0.5025727636056054 1.2368754555934827
Ni 2.348799533953026 3.1987305847819165 7.075464668729191 -1.0232838886831344 -0.1568699458485879 -0.18424808075122462
Ni 8.449868277633199 5.89972096779216 9.119463335611455 -0.16167636609829572 0.11081274647920916 -1.0637409682569163
Ni 2.872150904403659 4.286962935447902 3.801242647884837 1.2932800596354566 0.31030284099116884 0.2699815156643028
Ni 4.805412022519667 2.6779887948371446 3.0361108475869716 0.49125836703405074 1.7637394876462849 -0.9550815206752841
Ni 5.157994308652762 7.9139909207544274 4.954751790918887 1.058305656173958 0.5522403060340618 0.8620870333244185
Ni 2.90421146490425 4.797424842185653 12.999153701474656 -0.5672753459903134 0.06779201994330905 0.7547851282119452
Ni 1.0082580280916922 0.8078627490883188 7.297344251240112 0.2473702060226901 -0.4031790575966153 -1.1797974796335682
Ni 1.988873142682003 7.985139269260681 6.32705655150175 0.07383976879928573 0.28894185881688944 -0.23940801375281995
Ni 8.195993374134334 4.061765457722386 5.51862901463252 0.5635043089836553 1.8515843124754112 -0.6297608661190445
Ni 8.374255682475846 4.512906007603665 10.971182518863575 -0.03801581712214098 -0.04024959154866617 -1.421590705789113
Ni 0.9295689239165357 1.972870822222842 2.2697646603608423 1.2549785929520965 -0.7764016780404565 1.4010496484129678
Ni 2.104309800344886 5.232460552373612 10.594004936462728 0.03525522365786832 0.004172643320450878 -0.0940272994907542
Ni 5.701644487466853 8.208072003904324 0.19126827118412093 -1.2312251992862409 -1.0246594288744224 -0.45108925101433284
P 0.8511594176527214 4.614828766218334 12.572514316564307 -1.2604630131054355 0.7811505055793515 -2.417877497058113
P 1.8677699673492478 3.89040921779103 1.6285040547180216 0.19276691685551317 1.6189203023146443 1.1591610343301393
P 2.9575307865972387 1.0659390772016215 6.483869972071152 0.8116468743959957 0.13694209657640932 -0.7493228195457934
P 1.409947027386886 4.4480299722418595 5.728572562308235 -0.03762243833846424 0.4179983819976349 -2.0673482044467297
P 8.340498894646444 3.115447686923405 9.346007543276604 0.7973507694882978 0.25844780399309036 -1.3041532549045345
P 4.51065058445217 7.028168818039555 7.316263709907612 0.8452391085291443 0.6235866189875325 -1.0261912921379166
P 5.245946491630692 8.937524314735791 9.94048116642843 1.151592735064578 -0.386690830133605 -1.3386260918704238
P 9.282268539420924 0.24246078476483185 11.172655181818653 0.8535851665009945 -0.4636889420562143 0.3876971599109323
Ni 7.385932985462864 0.11162853411040029 0.8050229663021182 1.6489433310392954 0.33747991562659296 2.099289019019384
Ni 1.8914425905095678 0.29260946614319794 12.642164020265767 -0.6937257990067794 1.0665144172369954 -0.49080662420861276
Ni 4.146716623118573 2.204787969750953 8.129314864237408 1.6290969857373299 0.14528455500383367 -0.336952068147581
Ni 5.685521007912776 4.798123836964009 9.38321922929716 -0.6657467972953501 -0.9845103674593625 2.094412407653374
Ni 0.4517146575925691 7.740901173772748 13.511837479614542 -0.9287187144110391 -0.34439078381381333 0.9854259372950965
Ni 6.655707120410017 6.057675147839839 5.054000661508084 0.8395124904580124 0.0171428303278737 -0.13757715905724693
Ni 7.587066402952182 8.415841211822833 12.41822473314129 0.5260628763077456 -0.5137254377883153 -1.9187412699378827
Ni 7.095971311540079 1.9535412866187063 5.365512810444103 0.17298690601510852 2.7498048582975936 -1.174916754502499
Ni 8.077732777566894 5.996256806648299 12.543160263845511 -0.25355833711127296 1.0555370922898852 2.035831879006004
Ni 4.819242799200736 9.234056539575121 7.53870155624818 0.5708939165795072 0.10111943045084522 -0.3480561484805425
Ni 5.096100651011942 3.742716281089616 13.04677295374841 -1.1850075630795978 -1.3496360698276821 -1.5372024163188622
Ni 6.773734718718006 7.800669887287367 7.551796990422417 -0.7022646897157261 -0.803369721988868 0.7035800660930399
Ni 6.091338736365459 5.882851893807837 0.2651743870892475 -2.1410722736037577 -1.90927832475277 -1.0488411683269483
Ni 4.2233823704086495 4.912637821519462 7.090046631798734 -0.49246421441669386 -1.4631219922636802 -0.12335613036185852
Ni 4.0880197015974336 6.662939386383406 9.597636343554353 0.2696578137762969 1.207296199274469 0.22184043718270183
Ni 1.9055995647538695 8.938801145197587 2.673146159012695 -0.36725714688902555 0.21676225132884602 -0.24379354441502532
Ni 6.9180352007618 4.066975298803731 3.468860378853188 -1.3582330674680738 0.43175918322715323 0.4539938262556375
Ni 2.1810407871476087 7.1511359794479255 12.068833591169648 1.0249677041434606 0.02143554416595663 0.07309337755156445
Ni -0.020810472541212016 1.1843394727247338 9.18592096315842 -0.24741828565180612 0.37702656757096353 0.9724760620026477
Ni 2.715697233146851 9.02547649771372 8.464616135463471 -0.14944382858784586 -1.6208725409450087 0.5759106530678082
Ni 3.12386358405481 2.430740361837094 0.7154295435846094 0.6781613689096191 -0.39029114589035363 -0.4993403727112369
Ni 1.7436098548524828 6.30332055281486 1.799666440097513 1.2798457885074217 0.13746145941498905 0.4843984066894238
Ni 3.8373228943574937 7.610226429941707 2.6828454105571615 0.3862727687595799 -1.0445700517554204 0.14877199933180185
Ni 5.264409273709666 1.4930062469163237 0.7827734965105309 0.9527212479732238 0.04299218729080983 0.04057123655414303
P 7.653778464598469 6.6807870530574265 1.1495164848600805 2.7374561069242533 1.9553149552968583 0.9931857837461735
P 7.24076574989391 9.22237866681139 4.590559667513817 -1.576659336762904 -1.4975819737137628 -1.837687499888661
P 8.238296538120432 6.359845930557907 6.832047659107569 -0.5418314519959121 0.16404460922015618 -1.1214452649469202
P 6.138012947698877 3.611911058233281 1.2131511054955264 1.3652336671556229 -0.5429293130457811 1.8110737539558743
P 3.7222683538401116 3.9475497109390307 9.579794268838558 -1.6280361485729833 0.17111385736211174 -0.9830373824582618
P 0.45439134159715333 0.2878721455320205 1.0262753174985941 -0.09605127189931845 0.042156321653075784 -1.2949404780570148
P 6.150790572247223 0.8240216443778317 12.505825554743966 0.39300983037309734 -0.2035033294364108 0.17276090604723152
P 5.051476824361702 5.240028335840613 3.7783128231756504 -1.3506529411279706 0.12673944501179463 -0.06144782289283611
