# total energy = -340857.66653123836 ev
CRYSTAL
PRIMVEC
9.36235233168920 0.00000000000000 0.00000000000000

0.00000000000000 9.36235233168920 0.00000000000000

0.00000000000000 0.00000000000000 13.70274899850062

PRIMCOORD
 96 1
Ni 2.887527364289222 7.885207248543345 10.669234743306108 0.29619982593088345 -1.2699449844539419 -0.35051566576462856
Ni 1.841883674347921 9.036888941746247 1.5780085807113995 0.16912176663274744 0.7106652550745953 0.14130114487605341
Ni 0.1186940312334386 8.712923461712592 5.2023034582683865 0.14939497762778142 0.14711363779277245 0.1869395115404587
Ni 7.986957294406587 5.566948359472063 11.574944969363496 -1.347116902950254 -1.426175754056634 3.597017031392708
Ni 8.610115470028358 5.095413480938553 2.3248771359815437 0.6624781538464074 -0.7484095637029047 -0.1846723127728368
Ni 7.1541385991803415 5.940702829559152 0.1403313638608345 1.3337489662837805 -1.6626671083832911 1.1413373758851568
Ni 6.468430547186441 3.480426416960127 11.19285800564204 -1.4106280361300223 -0.09857429543148831 -0.6452581904236951
Ni 1.7322973395274162 5.0787859430794144 1.4822129909733892 1.038256707942883 1.101986127781044 0.5107234177371979
Ni 6.007447039805661 3.093639552334794 0.12427773820370337 2.891773718664633 -1.2194194649005643 1.8312808250313688
Ni 8.730843004202677 4.9379574383062375 9.135801258597606 -2.008991618884708 -1.1595559557757127 1.3762300182661267
Ni 3.6956856232987048 8.849698067897364 7.411159514626167 0.912488368595106 2.174056441839262 1.2483459181269274
Ni 3.3597737816049924 3.0715350383227293 1.0026040197317028 0.6394169011515698 -0.8853927979298947 0.6176661397380394
Ni 8.454934479028795 7.29756047556781 7.640940665769537 -0.3272361264113977 -0.2743930144684371 0.6358158140638727
Ni 4.755522639475621 9.304502422695355 11.269017933695382 0.5815778786559145 -0.9092536637078922 -0.6415905117641209
Ni 5.765327244436752 -0.5008998968303503 13.348477853793383 -0.1726701461056381 2.249845621055435 -0.06182680349880965
Ni 5.0722510211054965 6.697929891522626 0.3055160283978341 -2.6581761409460025 0.1484387843620992 1.1659400049251856
Ni 6.445988988488042 1.0454189934837448 7.420887935003099 -6.44176475901679 1.079163987680206 -1.9983827330206099
Ni 4.124359652553421 6.885972739439741 8.310552961520514 -0.6683281848692812 -0.6387317021590871 0.5752894745440414
Ni 0.6182466855536931 6.65019125664439 10.095514469522842 -0.3352073175423324 -1.047122642973945 -0.6296204838864383
Ni 4.992184183396401 4.539963837860302 12.727058267011953 -1.6164726121050998 2.1899782552758413 -1.5378300226005321
Ni 2.6724647673510056 5.349938393235029 10.514667922623865 -1.96122489302339 -1.1633483329386092 -0.9684903378820223
Ni 3.1721335148409975 1.1610908573630563 2.969797163517605 -0.7022808876656421 1.3147469712599809 0.8864628910656217
Ni 8.548258407733691 3.0200140130756354 11.789777252432717 0.3755160444637081 -0.14726096200391411 0.32324320320192074
Ni 2.0760641948831875 0.8838893913229883 9.129538781078475 0.5750375064342355 0.5775283911768893 -1.6031257584845486
P 2.6862274253763063 7.229945566548272 1.1196942799993361 0.14824877983848014 -1.6444804101719355 -0.6190460508047017
P 8.438269491760064 2.6036233901673085 4.428522821029721 -0.6514170109362393 -0.08975206915416802 0.8901354548212025
P 3.5101612481766944 6.046609759887179 12.262398163844415 1.7545616778017592 0.7027858523265187 1.3155105888988827
P 4.234320481469853 1.3039884420162273 8.64736639775017 0.5343330867363377 -0.8582401487745025 0.2838166217751822
P 6.719687998495957 6.161495186165045 2.356092155112261 -0.07116993527660646 0.07065854285782669 -0.8513642475902756
P 8.160750641973697 8.717211419110951 9.677018253560167 1.229091954993322 -1.5575434418690597 -0.876765975492832
P 1.3466245948374644 2.823123742142254 9.760221479322649 0.8623395156548568 0.8688678036916777 -0.24983460840278265
P 6.238144765248811 1.3885117594668483 11.822498674064299 0.9133190920265173 0.5150631827631322 0.2401297224101929
Ni 1.2226015126189913 1.982993049693043 1.5714858297955987 -1.0975198644795743 0.5709625650339135 -0.014640118510678013
Ni 8.30950905922812 0.4377938967257683 12.160628457041136 -0.7887206046171256 0.4376079286984463 -1.5135546949929353
Ni 1.1127155825217447 1.7984236345156457 4.72524198311424 -0.035376322616764884 -0.4523035830374081 -0.1665365224040745
Ni 4.328955139510491 8.836394165139573 1.8389504493415765 0.2268180929029513 -0.17102926806810545 -1.0349577254766371
Ni 2.762895729164868 8.165394368763188 3.8684781353944517 -0.7934804878996141 0.7130070158338946 0.5220514411555074
Ni 5.3871818310749235 3.0426989929363852 3.0887917262630245 -0.4175888052640421 0.37543891136886953 0.14546864599018175
Ni 4.3059424773158055 2.2126609163723945 12.593935914497706 -0.6942083950701529 -0.6911184432909195 -0.08733934594761732
Ni 4.036381627067878 6.668887874383522 2.6948370446416576 -1.075635405701657 -2.1790168711683315 -0.98552132522238
Ni 3.1542888711700976 0.8454297839065721 5.689189786029166 -0.9259640344840375 0.28361041930164704 -0.7258435054769306
Ni 6.961817156217264 2.8988370859862034 6.227831197846993 0.4825569826053109 1.8222189719394166 -1.4518471906808093
Ni 5.572069566233859 9.425735523899176 5.514767288380898 -1.000007177543381 -0.31385122046405944 -0.9856064287370185
Ni 5.69202002515913 5.074994190358158 5.346702764246223 0.18133193554569416 0.2607898218627057 -0.2304790866943063
Ni 6.151037438536297 8.162894620672878 7.612397662013255 -1.1403295034459329 -1.0842781689783199 1.7392818688245528
Ni 7.609851102160955 0.36506901576731304 3.828507444300972 -0.2844488560425424 0.36951894634000876 -0.16626938478561687
Ni 1.195525589483502 8.31297312961544 8.435810001785066 0.28620029151601034 -1.0007594823283734 -2.14508807963137
Ni 8.8678610315498 0.03768346840260852 0.5917016077991798 0.2856855566631209 1.0941211232106705 1.0272593283911147
Ni 8.297497161101276 7.10632506548292 3.5268955168531724 -0.0604926580684184 2.2049564738522283 -0.6799189750306741
Ni 6.925079285406871 8.389978478090336 1.5221012933657652 0.3793765558603789 -1.5880416104579167 1.3067636959441882
Ni 8.31874033869271 0.7225592072683126 7.749548634764434 5.166071302114845 -3.6856414147003362 0.31980718093717825
Ni 4.757479371126838 2.6014606867633328 5.966341631601524 0.6449326887634764 -0.23561357970739424 0.409948515109965
Ni 6.987114232397103 2.752690765050869 8.770265997680864 0.20497811420972437 2.2094057678728336 0.19680997657663524
Ni 2.113916185628963 3.6448761368338705 3.2337799242067056 0.9479143135028835 -0.8892188565442041 0.018538939344451943
Ni 2.719707197552139 0.7878063773663546 11.242598311463004 -1.145436485655195 1.8824786880614224 0.16022343570185307
Ni 2.4178555938829462 4.181451277477423 12.97357087812608 0.4434890700695717 0.2442882246632567 -1.3786748802621933
P 5.206759938009913 0.8781877187125067 3.527731574922328 0.3936544059356317 -0.3159063032208753 0.1930682501460159
P 1.0663906628556314 0.692574401242714 6.716580633735006 0.12565623924994487 -0.34717708830969884 0.37630922978896486
P 0.032025798848398256 9.17697782067997 2.645452508211824 -0.7100024246796159 -0.44764217300599685 1.7957666912851589
P 2.0721881809903477 6.102680888399781 8.42534101933344 1.483618055334503 2.846000626194576 0.8185544001491064
P 7.263949630458402 8.152914353016435 5.877369324291295 2.5146203957078175 -0.22875027692865765 -1.6989034650075063
P 3.311005287962958 0.3558424174789228 -0.4239675747041603 1.7887079846661647 0.5398018231603928 1.0994785308678419
P 4.948143677715439 3.7379379196716167 8.496540773086235 0.7531532490354771 0.7726774351113337 -1.399212595204229
P 0.4012676150795728 4.837396411197562 11.45423803236445 3.8375450176825847 -1.1695068963408373 -0.8188819586918542
Ni 3.682615779350868 4.973843335048398 6.540979415919811 0.88638730063268 -0.7671055974505111 3.214498073248606
Ni 6.484412082730106 0.5570824373364902 9.622275642852864 -0.9890115977638259 0.43045871924817475 1.3942657927219149
Ni 0.5726379858460391 4.158167107063191 5.06800332182245 0.14564708054957498 -0.9427741640628408 0.3030605576064587
Ni 5.993562671199184 1.2111232685788427 1.5435738485909536 0.3015628900150097 -0.041976087321469645 0.04531363633513486
Ni 0.6806926398142046 8.794778508729737 10.627509547373213 0.024592858848015712 1.6295381870398067 1.4464609866682314
Ni 8.998756080428526 2.7111968192222085 7.037101704321378 2.5138128122048577 -0.19157598187120556 0.373206422493925
Ni 7.248454937239442 6.593923518731425 10.028494069880587 -0.2570861477588734 2.7816477138398032 -4.690492036378948
Ni 4.086002094778146 3.111624631291666 10.294354918460758 -1.3038359807744322 -1.5380400817288091 0.7344626146045092
Ni 5.724020545656054 7.4728798865758215 3.7785602304920087 3.743718778459043 1.9786546584640632 0.043858906166479306
Ni 2.7217762774321335 5.567491375911156 4.7530313175024705 -0.7266708864742324 0.40821404891736146 -3.2617330949761696
Ni 1.0725136413240304 1.9423885273422077 12.682113358089328 0.4276171360343216 0.6783076646794963 0.4735954025366489
Ni 0.9569822127306914 4.668855343325821 7.662343939586979 3.1470950612135993 -2.129750163722719 -1.5511995019289029
Ni 9.03529734183856 1.5427377905217976 9.741695256397161 -0.5561098162917971 0.6446038446691479 1.0943941743663992
Ni 1.4125542804253326 9.023650575455243 12.89572572664107 -0.8570618121956852 -1.491691833481573 -0.2092623434073751
Ni 4.871494098631674 5.326101844029304 10.070410257802404 1.212336332801538 -0.37375561012917563 1.5219215789003917
Ni 7.7784670688518815 2.7408942010291835 2.4307307009009005 -0.05181544200939463 -0.08129108287100839 -0.9596645120602763
Ni 1.4819105869909286 6.591292697707542 12.425981866121328 -0.4535821926395156 0.14608365386636132 0.5518348430655271
Ni 6.11803514633277 7.066731677191086 11.956895242739938 -0.11959177822341985 -0.9889928287107483 1.4351265354920186
Ni 2.524623860631604 7.416527887491275 6.19593085452073 -1.0844447764631708 -0.3655280800130608 0.5729135181126972
Ni 2.9090607748049986 2.886563041992211 7.760305041434684 -0.07472294273518744 -0.11208698520594244 0.01100817818504556
Ni 9.586487114575645 4.535835040452713 -0.11482925216347666 -1.82001450808893 -0.6454368820934046 0.20992980178804493
Ni 6.0698939303014114 5.615024039036633 8.104422048770147 1.595752348838613 -0.9180406658719027 -1.62756949334921
Ni 9.09800637820146 6.271849233882199 5.4891977677462735 -1.652347471624838 1.04824004440784 3.524155824456608
Ni 0.31953895981980357 7.023196738539625 0.7647843528192703 -0.2816844059235278 0.11063611169202882 0.4253087996161191
P 5.310485440229167 7.414393271144493 10.142198903521045 -1.944864963608128 2.2023959122139036 -2.4842577242555604
P 4.124893306640117 4.641180229636849 2.1582375618818697 -0.19146645287653477 -0.9948094353925254 0.42813392776974013
P 8.443662206741406 4.787129941171822 6.958502883468315 -3.525569931195315 0.6908129962353586 -1.0830838915599024
P 0.8399350192840899 6.029823062037272 3.8804263695249883 1.107206495639719 -0.605986389407266 -3.2524701816170047
P 8.654998587425153 2.306303165058827 0.32650455000403733 -0.06254054173638261 0.5417010970656347 -0.05651670413980589
P 4.432371684100606 7.0420057045075355 5.220843724722471 -2.0365152782262737 -1.1746336760444416 1.6593275024870973
P 7.9661073356158765 7.738321301768557 13.128589900429155 0.0684885317897014 0.9850407860415358 -0.12103930930322379
P 2.9688862066292634 3.252247164312083 5.240191962188515 -1.8565995063018152 0.2094775447419747 -0.5604038156814607
