# total energy = -340884.29103820835 ev
CRYSTAL
PRIMVEC
9.11002291433239 0.00000000000000 0.00000000000000

0.00000000000000 9.11002291433239 0.00000000000000

0.00000000000000 0.00000000000000 13.33343939035929

PRIMCOORD
 96 1
Ni 6.855355861838648 1.8920150671900189 11.308809596231992 -0.24398997669654754 1.0529783304237736 0.3649817205912876
Ni 4.834597953665749 0.3380447018162761 5.9464734928044525 0.4158448259897419 1.2340313012764683 -0.9647072166905064
Ni 2.709648715722033 1.9660066716665932 4.271300652247542 1.722668171527272 -1.0321680785466418 1.8777260038677854
Ni 3.7986426108120033 5.012489367186318 5.05312006848717 -0.7918673777762233 -1.1821094155961964 0.17470157471337008
Ni 4.0195971016978485 2.5904987286561485 2.3807522987143477 -0.8069777510551006 1.7783502955809245 -0.8392810911734965
Ni 4.917098319356447 5.028504787116116 2.416832543669959 0.6288440107317299 -0.7934406358006142 -0.5417746306160476
Ni 5.3103142297261074 3.1935184621107013 0.09053085071238083 0.5919306826451484 -0.694231020777972 0.8984473171210076
Ni 6.175119575867049 8.429877527451088 12.196523005487535 -1.0896047233975559 -0.277587867256651 0.18994487402568577
Ni 1.8249288599300468 6.759700623350094 0.4127596420962782 0.7758823152018767 1.0562066075530843 -0.7633952384784595
Ni 0.6097766373009305 0.13249890334753012 13.089343493476095 0.09519329477439735 0.7450316483696072 0.3720820790814947
Ni 7.8709958540419676 8.735582559637791 7.179496846990044 2.239552723769859 0.6549047123745237 -0.00952208055782231
Ni 9.029453672320054 2.627968252075522 1.191780459358413 -0.2199218800037503 -0.4277886286151794 -0.2955863607166006
Ni 7.487354577543876 0.5404530084625976 4.9538791250587035 -0.522834599178435 -0.24106277574742357 -1.2817365777722314
Ni 0.9316546928103698 7.622264903903589 2.6263940401506813 -0.3156746468260434 1.755197768723861 -0.3743503062903811
Ni 7.888432437515023 4.05977230186304 3.4809077936325252 0.17087114522368638 0.17054718622536436 0.07751284677549877
Ni 7.525152061780925 4.053331515804811 12.759447706976772 1.2881226838042332 -0.13260438843300387 -0.6684947923541326
Ni 8.561899976610718 7.304316001190351 9.231779988761955 -0.9218500123156639 -2.6672313091697353 -0.42169665678482854
Ni 6.905114805898122 1.0292868062276865 0.41637358810660285 0.25545349725145683 -0.5199102264427884 -1.7180424998298025
Ni 2.203532293867741 6.930868840108325 9.14105873857487 0.4575985128877603 0.421001687600333 0.0972828303135744
Ni 9.008837690920092 5.030891613066974 1.3767439835112365 0.9534144173855063 0.14833928266975743 0.22621671187352652
Ni 6.421782550849532 2.015756505703354 6.379130335508622 0.8029326344514495 0.7931567860116082 0.8836531895309685
Ni 3.758367200396966 4.88543188040538 0.04977807510717183 -1.2090124106346276 -1.1809063964270305 1.3847295710967056
Ni 6.060843450952724 5.691568680273341 4.733197934854255 1.0530791176676961 0.931741560397763 0.07784837573804658
Ni 5.28748451280684 2.9827671966636355 9.687250150344509 0.4121486080850773 0.8358679517268894 -0.46855192657547046
P 0.25711217103451817 5.847340958646273 12.734394233513214 0.48978281092978876 -1.029101523806176 -0.2818080759855856
P 4.025309085939022 6.59023598083923 12.369858496649236 0.08428538961264194 2.0726894141539853 -1.2504771055373174
P 2.261399158141959 8.901621833608493 1.1173369977552643 0.8649630693206329 -1.2667982112948442 1.029027218924815
P 6.630775581912951 7.782145802520171 5.7630058343811355 -1.3416332541278637 -0.256989474280009 -1.2430013659855625
P 4.796946229792113 1.2828005182904925 12.565899808421305 1.1489079891435634 -0.9077827355893204 0.44271465379739233
P 4.1470463194554545 5.949427873170341 8.288519127014975 0.688930177390349 1.3203769158522487 -0.18602651280788607
P 4.981943461028974 1.3316393500559338 3.9175110981760506 0.5280485392792066 -0.5832028158538471 -0.11330440255281132
P 0.3900829735585918 5.852378801206669 3.6502157437527223 -0.4131847626590755 -1.0192084330621802 -0.3385708346979266
Ni 0.7245774995235357 0.3395815626479922 4.937372674904665 0.4775417887789066 -0.31847432105836765 -1.1084758492704458
Ni 2.119027723180139 6.822960621070524 4.709917271810683 0.08620368968127735 0.313154451507351 0.724394688845546
Ni 6.229843482305214 5.799431349197577 9.402928163470218 0.1830700012827234 -0.3631816912680713 -0.7370815402845952
Ni 8.762994617981796 2.90161511433449 9.767863830331306 0.3591237191486138 -0.519325300473596 1.3094381574525578
Ni 2.3317558635559683 5.727261749263643 7.012509219654899 -0.267350762909675 -1.139979833415998 -0.2186332430993138
Ni 0.8103456303614578 8.950406005237655 9.18491256591165 1.1563726729517245 3.590039314523295 0.44795790447420275
Ni 1.5497515138552618 1.542354175412147 11.077714739064088 -0.2609317467572087 0.11553354899364618 0.5103513791097598
Ni 4.296195611315892 7.067746931374089 1.3437174181690887 -0.10711755701580908 1.870594277919011 -0.4656915743085399
Ni 5.8944124460053535 8.003874645336637 8.053117051108273 -0.30005210979743807 -0.8627544917050883 -0.0015416334555070224
Ni 5.539230880463286 3.3687041988854523 4.025605161677201 0.4886764652394875 0.2854767830864245 1.6142581209522844
Ni 1.0785082589470822 7.74291804471715 7.309324691678066 -0.5217045993390499 0.04582451453328237 -2.588255247585149
Ni 5.686239316986122 4.407328778394165 7.402125760050575 -1.8030179735309337 0.3176824212846916 -0.8545716987839798
Ni 1.2941880466819868 7.501675533249019 11.36744990143456 -0.668209657013546 0.5392117549848778 0.03738949639205173
Ni 4.897265799909821 0.7417899764378473 10.409149303190365 -0.6241964846573896 -0.028753160873292414 -0.2326580966234961
Ni 8.741759155037338 7.372322320744356 5.058213482186119 -0.7208766483899585 -0.4246991910565782 -0.09736536272505167
Ni 7.37068251665598 6.239818957176164 7.020295556067867 1.0883099158455323 -1.2376385590117525 0.4437099278311261
Ni 2.5431721606610975 5.941083092365054 2.397432750302209 -0.8214186090707788 -2.1778598747457525 1.158367077673934
Ni 3.36886817929429 5.333918298575997 10.348188675202747 0.6675103169536762 -0.2253055129131668 1.9522363163715346
Ni 1.2298530662814 3.4634757651708257 3.6306155298852816 -0.7525847781265168 2.3542234105425774 -1.226129015710256
Ni 1.7587354348959678 1.3720696308570957 2.3479389079036888 -1.3050623969823651 -0.18044593339631504 -0.04947625235325673
Ni 1.1594325907083982 3.2768933899818675 7.881649114602778 -0.5059622489031286 1.6065538103294912 -0.21334242701401968
Ni 4.052803134487446 2.8582969563332448 6.2325564470692045 1.1509882687113597 -0.5432201048133225 0.872167300378556
Ni 4.439487158571745 7.211038478629941 6.109795246999809 -0.709482547620404 -1.6302745509851988 0.05585335952419413
Ni 8.275234891894593 7.499716878365683 0.46745075245267637 1.3022519241167638 -0.03577432938613194 -0.7562979653120459
P 0.1906126492372759 5.343256071857023 8.155171169550576 0.669531461148763 1.5727731143346204 -0.2162796552654727
P 8.869773194203162 1.5204901209004777 7.6513541174290935 0.13373438827238904 0.2993059756600329 0.4008316404103613
P 2.0277179655257798 3.5038969359492746 10.100733128244215 -0.18193743034017698 -0.5694008769737483 0.612552729770874
P 4.151118499608252 6.641097237647001 3.6679893980661666 0.7902157011054133 0.816282316285478 0.5888183622684118
P 7.062053167178341 4.115671401231209 10.516523674897174 0.282192713018514 -0.46219744511235233 -0.2959481149313935
P 6.6410425775107225 7.8456699908992835 10.078880005759801 1.8789519058550865 1.2943892335392353 0.9514354392822647
P 2.5365400641258913 8.729715705010493 5.85491320952548 0.8428775502755033 -1.1618223832123862 1.2877876690623176
P 6.803774913236534 4.18723062964336 1.472864744160434 0.2461749001630083 0.04598392292928209 1.0719024210217862
Ni 2.857595484584329 1.8067725846626481 0.22280291449435236 -0.4053094736760568 0.5877341280652975 0.5093974998369227
Ni 1.9291110796781512 1.4480836603759994 6.731293750525808 0.00423255002410884 -0.6810399760089949 0.2579063296673236
Ni 7.122315967426131 0.8706466927046418 9.03547175332439 0.21398417436307668 0.48420325995948227 0.5121670921622599
Ni 2.93023880569935 1.8368083295480537 8.88525749980878 0.07329315226719636 -2.137705414014054 1.4324009090307397
Ni 6.804394394781032 1.9060718322364796 2.441886017133518 -1.0652422353927913 1.688553232121434 1.6491004254424502
Ni 4.630077943754509 7.530199014364034 10.240307786233084 -2.4460465032931618 -1.50732619758472 0.3822803597707352
Ni 7.891812255941619 6.344156047310393 11.456117752502092 -1.782900633955768 0.023524051263869163 -1.1298586858215962
Ni 7.813010559472477 3.7850960070374815 7.741915031216427 1.1517274608702293 -0.4556524449049831 0.5619526482258194
Ni 3.0604028102254883 8.727501969491186 12.456938470757857 1.774796002570763 -0.39958516959776985 -0.48221913964991786
Ni 0.9627654203759326 5.336168474186157 10.62139096835331 -1.4849177479825328 -0.6270869188313072 -1.0855632063383303
Ni 8.918903546695425 2.5102303185301826 5.513110623340011 0.28300441028653195 -0.08044981791663564 0.9163205978570026
Ni 3.6659460199715967 2.861740544918833 11.62830538080193 0.016123387924423846 1.3702462898788659 -1.3018279492054676
Ni 1.4825013261864521 3.892940455916291 12.538139747209653 -0.4379087477683168 -0.5693972774293226 0.7439641263370412
Ni 3.815259292240872 8.906778106464161 7.982662868451233 -2.4560419239429767 -0.598242483795789 0.7283156211665069
Ni 6.156416699236858 8.373887327855789 3.379320108353139 -1.6982864002487978 0.05842009181010584 0.7919961900446038
Ni 3.4457567709936603 8.86221187535121 3.9522184627087826 0.29298234743485024 -1.2830370417512096 -1.773708940154171
Ni 3.448963498988705 3.9352382913736577 8.524094293353228 0.6135958263234077 0.8668736560797845 -1.9924229158927496
Ni 5.3981348486813125 4.994970793508843 11.599172439167402 0.26313286817358555 -0.8634828852306805 -0.3588511822135175
Ni 8.193026046930717 0.07821410000414043 2.308111710606141 1.04482510518902 -1.0371439344946785 -0.038297867138934044
Ni 4.655276266579207 0.5705179054206856 1.601292378357437 0.12796174745466996 -1.6306828421672108 -0.6718066303361849
Ni 6.194815444972978 6.146395674252343 0.20458560207477522 0.1554059597085517 -1.2439236206895157 -0.09510407749470072
Ni 8.290822140756871 9.064527259765855 11.125528693274296 0.6695389173479307 -0.3391182225609643 -0.10683704966091277
Ni 0.19446983285404287 4.948591667875965 5.68743181895928 0.3795261940643657 0.08576094571690392 0.24776615590952814
Ni 7.558139454025405 6.501094408590612 2.6518346895795517 -0.24193566527068008 -0.1512106906802815 0.38142932462434953
P 8.873380763197588 1.7865392242166407 3.419253892916432 -0.2404300272594311 0.20553424382351052 -0.2051344372819306
P 2.2679492644727466 3.9626685697630895 1.4543185599209103 -0.5010892370815435 -1.3785270418304192 -0.1933253604621445
P 5.228223815057503 1.4260920655463454 8.094250625662895 -0.8493886119211437 0.4445393657109569 -0.36904817735117734
P 8.79430576604705 1.9814299401200333 12.283950982463802 0.1554769221558032 -0.026964701514301945 0.5724987991727818
P 6.403025014083062 7.951018293554677 1.2513326778345724 -0.881588850802772 1.795793430758036 0.5137202955819927
P 2.1369015877434285 3.456497487772518 5.724392092108985 -1.1130002195033606 1.548128833423379 0.3281228998917252
P 7.214664267669793 3.900137373859715 5.679951579309475 -1.35871746330366 1.601309016990784 -0.92316590291361
P 2.7613207645512783 8.883474668363808 10.235067701168454 -0.30252782503144027 0.3057360475560928 -1.1164128447293356
