# total energy = -340892.9699229664 ev
CRYSTAL
PRIMVEC
9.05043630470819 0.00000000000000 0.00000000000000
0.00000000000000 9.05043630470819 0.00000000000000
0.00000000000000 0.00000000000000 13.24622836406555
PRIMCOORD
 96 1
Ni 6.306814637350255 2.126074193255523 11.363025505905304 0.996568327065161 -0.21057592001247605 0.11415338081666793
Ni 4.512049765772048 0.2557472289987594 5.909950290412599 0.8632789967499906 -0.10322850637404801 -0.006474809091066267
Ni 2.780284981286358 1.6487360818586596 4.818964541443161 0.18278100928739488 0.2529659549429127 -0.04079286564664587
Ni 3.6672639405472545 4.382438467502841 5.260051130235646 0.4911982032200766 -0.2390992242631495 -1.5252038491960893
Ni 5.051546273685418 4.56236114117031 2.7265244846137153 -0.6250688599600138 -0.06992732111875699 0.18682638300136212
Ni 7.335279067307507 6.3070318478214835 2.5994925606903454 1.0449441472653875 -0.944857786064747 0.07258867000100401
Ni 5.096291630758456 4.544260268567949 11.496216251731626 0.1750098499824083 0.46498169272570883 -0.21973984589993123
Ni 5.601984759086918 7.964157684131337 12.443136250615241 -1.1687427644813033 0.4464826054802569 0.7747327749784657
Ni 1.7964754040391306 6.589142997765582 0.49204416534265183 -0.24571467269713812 -0.51578257742766 -1.107468491051854
Ni 2.6036838177414223 1.504019605402783 0.24808965484433057 0.4209942314011653 0.21061757188368888 -0.3911642925239263
Ni 0.6988909819625027 0.0642798187855046 4.659638850709919 -0.09841822946959825 0.26716641481301084 0.47881191374058185
Ni 8.363426731994219 2.377911633772172 1.5596508272588794 0.7319658163245846 1.1472169745943857 -1.325658475966162
Ni 6.752394767766276 0.4403019159651726 4.455461912798917 0.25896022485313464 0.8422399166915044 0.6339355663220244
Ni 0.894731562996488 7.5057078332950375 2.6543852669442654 0.02876395950656982 -0.4405369294197832 0.9081295774057779
Ni 7.797376243973182 3.9436099625675007 3.694174507845185 -0.3439616666961947 -0.3745331117251485 -0.2905655104632415
Ni 7.590229857911763 4.284467494542562 12.567915520943247 -0.24600880689878923 -1.8997251338466956 0.2486429020875266
Ni 7.9499032469569775 -0.25669028446134246 6.757152582129806 -0.03674980592552381 0.5987860150040848 0.5361534277745283
Ni 6.587007094798503 1.0759249179206427 0.4189609871669889 1.4002978578486076 -1.6973188941292057 -0.47567465366318085
Ni 1.770681660580766 6.405011871218065 9.24315176655972 -0.03819810833627615 -0.7888941540805123 -0.13807003953326544
Ni 0.16742673626642898 4.738654589881006 1.1054827378366683 -0.7388126640430888 0.7390522908577207 2.578420263772598
Ni 6.2690562171017294 1.7812887719257495 6.8558638807795225 0.7024449240473322 0.5652485453682717 0.41084685855451825
Ni 3.4566512373824825 4.3504904273596745 0.7087631978798304 0.0857365202368717 -0.019461451158721322 -0.7287370249746418
Ni 6.2155228863802465 5.750031796101629 4.687217340206876 -0.7052996198873079 -0.3008825761185334 0.8736004332806567
Ni 5.25187768121205 2.7240636709834245 9.136864347682284 0.7461040554981795 -0.34789005521632343 0.5855864855946754
P 0.33080159220081945 5.533255745815753 12.310315667633636 -0.6458593143428037 1.4480887520796415 0.682390062278986
P 3.7977893328828802 5.976862881118116 12.599296098730331 0.9161390779738158 2.094112874135084 0.3471022692077055
P 2.2013466719724417 8.672209517717896 1.3742164378839916 1.256460833924578 -0.8793918431514532 -0.30624898263676936
P 6.297121620071691 7.815956789699507 5.800616494676187 -0.21008715330151562 -1.239451443850775 -0.2975002899098618
P 4.726934274870977 1.0520408165218271 12.590672843022565 -0.750629711282675 -0.0758259459913791 -0.12129719095030078
P 4.098499129425904 5.987017470648041 8.338818595691308 -0.49541326974268873 1.0291295488306342 0.42484445838519097
P 4.630610481317513 1.0945235645195688 3.6564758204762473 0.35183438457605215 -1.2523442406530432 0.551128818137438
P 0.2683979288605496 5.621189784918022 3.6929427434645943 0.31529849443354735 -0.3461175366969329 -0.12580587745393174
Ni 1.2304792186359026 1.1771449975130457 2.6153489250900135 1.6020677495336797 0.4495278200644839 -0.7655243690063203
Ni 2.00292490650536 6.3550987150170535 5.026148939337046 -0.011175042780213014 0.7549820747140997 -1.027031785761341
Ni 6.1973948624689825 5.671854127332031 9.186921405820485 0.044436633046820245 -1.4890330557024871 1.727577178793115
Ni 8.579849815264348 2.1446456885455456 10.238062608973973 0.27845355769105595 1.1642685307600336 0.10440530029096859
Ni 2.5063373248859246 5.189275813316785 7.076426633613813 -1.549470692163254 0.16125290540763196 1.2854860175123346
Ni 0.6369651816589351 0.044846721959609766 9.165979601263182 -1.1409640517061383 -0.05730500436905614 -0.9367534117900577
Ni 1.4043833521630866 1.0230884707943508 11.334824346390823 0.4927580915080288 0.921360217163439 -0.08034183158386164
Ni 3.962570626618474 7.067232295375444 1.3883767505208187 0.520183020488201 -0.11788173751084859 0.44025745050615145
Ni 5.59526028491514 7.669728890381332 8.386385878803052 -0.5718822486347055 1.730066263763556 -2.5445858317216565
Ni 5.506158739530018 2.8316009551140517 4.5749557283270335 -0.1531539304495814 1.0552794677531245 1.762707189727029
Ni 0.8481616379651334 7.518876218113256 7.0589547663343835 0.6140293143164006 -0.43301285312859616 -0.19670481845733864
Ni 5.096128722905035 4.347612388615898 7.445890784649645 0.8108272067081778 0.14020662626029404 -1.3263297910015739
Ni 8.042869328642706 7.2817276357134215 9.027954112364768 0.7919586519384489 -0.36110758234786194 0.21416595135657956
Ni 4.677853758809675 0.4108011137978445 10.297485058596635 -0.23885548368345963 -0.9589811128400064 1.1370801432706998
Ni 8.382776564806141 7.273871857003997 4.861710657137268 -0.7585764769335774 -0.8973026619936032 -0.2442198333191665
Ni 7.314852232575742 6.008095936793491 6.988140532539426 -0.5999651229138506 0.6150101901724311 -0.23881563158445968
Ni 2.1841598934364996 5.322579689596872 2.538970483057091 0.18307925725410404 -0.4489734902229106 0.7263932073328135
Ni 2.2191398297405627 5.017534734065583 11.48881118475 0.6138398240134137 1.90740347632756 0.0330013946266851
Ni 1.2952079390619455 3.3730795085773813 3.9307520077144136 -0.5289782501823276 0.34398274974211723 -0.032440637027208646
Ni 3.5482688040593326 2.5871396201828643 2.4862906084788094 0.7724792030575988 0.6146090980792706 0.895977001203644
Ni 1.1903495840764682 3.151832542758722 8.40906355704292 -0.204475463541693 0.3630179119966974 -0.43955168268837846
Ni 3.7511795859318005 2.4831682079549022 7.147426401352944 -0.3563556694851734 0.015268496123296286 -1.0141808979406017
Ni 4.253840818099367 6.818227641421063 6.161231129096725 0.21764542526474775 -0.18105502773522367 -0.19971249493541088
Ni 0.6015046671872798 7.435404044107467 11.227595682138066 0.5562108606460356 -0.3423189888864492 0.3311508880847716
P 0.19376260085923422 5.507308144940268 7.9121710729737265 0.5870550997204018 0.3984641686194492 0.8499424275420846
P 8.451795192038944 1.5186179591565871 7.948161037969001 0.37323239063585395 0.7116885541327873 -0.2355454454736201
P 1.9206473900913275 3.1844865169333816 10.542024227280013 -1.7109485690974984 -2.368656555248772 -0.6939443427754888
P 3.927409681588388 6.1669220434429075 3.680451331281705 -0.12842480313401752 0.12453266716846297 0.6887499430587429
P 6.926208396930448 4.021181252104919 10.44149831615191 -0.13455379884989085 -0.5686786540957431 -0.8290069629409981
P 6.264512898078537 7.812716733503684 10.348337650085707 0.6413303161241987 -1.2633745303252757 0.9543114752784789
P 2.5057037943448415 8.599932733416667 5.762652629523625 -0.5821859445535587 -1.6420972546517394 0.4526859060774914
P 6.857578938458596 4.352852591234282 1.6473803265007427 1.5732048025554004 -1.4106113239594738 -0.5123858930412853
Ni 5.506330697819741 3.162503007157814 0.31341479902262154 -0.5692967472957164 0.26811926564458344 0.21719702487341946
Ni 1.4923716938831637 1.0583761219326537 6.9209555237012435 -0.8147841344733968 0.7004880574312774 0.49189240107362386
Ni 7.095071437437874 0.5238292976323978 9.38821125455141 -1.0075623641828195 0.5399285785462443 -1.2393344586569364
Ni 2.797987634691467 1.4097231095807832 9.020111909309795 -0.1612739884535545 0.004824417971836853 1.4532155317832458
Ni 6.18771994606302 2.1009592325197475 2.514385877888564 0.48366487095750893 0.3007445078787724 -0.23326050609418536
Ni 4.086516351763142 6.957740117003761 10.467593439139105 -0.1549408471466751 -0.6604696080568109 0.21225099372205383
Ni 8.504486832184417 7.229669526109031 0.690368186097681 -0.6843304738348086 -1.075566757247251 -1.4164443857014832
Ni 7.794516306102009 3.7206253129790148 8.222728649256066 -0.9342039058953265 -0.3009167717905786 -0.6924222497040075
Ni 2.9074345608816428 8.291702024307362 12.401370297172553 0.8441826422401718 0.10846455796200676 -0.38982809021100606
Ni -0.07644179508703099 4.752610362657426 10.120383405924244 0.5310865547745821 0.5978727591611962 0.5398915546607218
Ni 8.415303832872585 2.279985912993399 5.641436515967394 0.19830841549903266 -0.06957276599281566 0.6854489037099679
Ni 3.835240038297165 2.515876484747369 11.314384841048238 -0.7359320000611842 0.024771550517725078 0.27521525325941637
Ni 0.9849680330937783 3.4385051125986155 12.67993910634837 -0.20904251408708516 -2.627613437667797 -1.1258709048184417
Ni 3.162258645377682 8.123734976993752 8.211059016689324 0.35356473700359753 0.2609587433404022 -1.2497744230433379
Ni 5.572444134999865 7.723995306443211 3.362263332153841 -0.9282438316571497 0.5067137823571726 -0.05669385314761849
Ni 3.147488333334156 8.429829783135979 3.529046582399255 -0.23808106741128032 -0.09781453444732832 0.23692329965775327
Ni 3.451103319929859 4.281064530493318 9.599806835098489 0.9928086029124128 0.546020293266279 -1.6589978870618205
Ni 7.394369365917915 6.429040779597698 11.75821371203998 -0.2247648099183484 -0.3396411849439699 -1.2202126502258213
Ni 0.4501786571006509 0.17589251438255324 0.159446061536048 0.2450374441244554 -0.09359458282870978 0.3793333613272693
Ni 4.459919252677247 0.5062560654663956 1.495763797408846 -0.021932281296717065 -1.174236183495707 0.274626727745798
Ni 5.871904971333326 5.758457752298028 0.35481330475148154 -0.3828573153201277 0.6145982994459931 0.1980793302073621
Ni 7.788316757235701 -0.29972510907345584 11.564473737271499 0.36017092946620555 1.8870853335954987 0.6695908536317887
Ni 9.014668976918266 4.7029053664913425 5.788508820992468 0.9149861953162952 0.11512757180447915 0.27039417772168917
Ni 8.143899349072782 8.917132424900442 2.313056207237913 -1.0687559049730047 0.5101454337465408 0.5299128461814551
P 8.432246249628395 1.646102404895016 3.5717664518280876 -0.7060524388929323 0.43749917103472397 0.802265947401728
P 1.828586352035719 3.098878439960515 1.4644501928503917 -2.117089280425599 1.1573664043235616 0.6712759546436955
P 4.857070498445652 0.7561187007821274 8.203998771330772 -0.27067854173132744 0.641964607274088 -1.0240040546786107
P 8.417684097619794 1.7480555698278148 12.462568442397506 -0.6188246788225149 0.4728382126556502 -0.29367217441302323
P 6.471659284139957 7.900596469988146 1.3336306613349775 -0.9504897875395437 0.1728210698612056 -0.628366299764363
P 1.8492122963661095 3.259568936487975 6.19155190079294 0.1318500267654826 -0.49316484002814426 -0.9701278734854452
P 6.834020652766624 4.013280221213988 6.0507180615102705 -0.29013690756625515 -0.46237330856858433 -0.6084142821224683
P 2.292810381232172 8.380414400931533 10.178640159351312 1.4109699928504733 0.23583469457926481 1.305601814425603
