# total energy = -340875.5590350602 ev
CRYSTAL
PRIMVEC
9.18918381719157 0.00000000000000 0.00000000000000

0.00000000000000 9.18918381719157 0.00000000000000

0.00000000000000 0.00000000000000 13.44929937339803

PRIMCOORD
 96 1
Ni -0.2352835407439596 5.270438058560893 12.148173735900333 1.374244869515298 -0.48474293451303613 -1.0027461737410988
Ni 4.016187967044415 4.849610191791496 3.1650232659859014 -0.8573011819000009 0.020514060792951767 -0.7491983781527871
Ni 8.96406729166917 2.686145486561345 5.646311518678564 -1.2540247136792597 0.6301048797220244 -0.12937842529653848
Ni 4.596374661342743 7.5087854235496225 4.004475433220843 1.1187602619155894 0.15248081564195676 -0.3426465474291969
Ni 0.36842470763266455 0.12490582026020605 8.969243558970925 0.08848168708217664 -0.0978772693644637 -0.10716486531397673
Ni 2.9071729273728644 8.856223029191975 2.7684842501520626 -0.4700773620810614 -0.08411081170799063 0.4363928253444226
Ni 1.4454953872454666 2.5995190497538703 13.10331589084279 0.7779440828269119 1.4939420629683304 0.5437140137306056
Ni 5.399325552213344 7.493807053761123 11.294869792825402 -0.028261823059170684 1.6260890521489417 -0.59244593171867
Ni 6.527160040551671 4.082589010045456 1.6821444407198378 -0.06780153302500581 0.027928608089468027 0.0689022222883523
Ni 6.311076380688749 5.174659194569771 5.113719283571985 -1.0990332158003073 -0.16119402714523853 -2.66753649911498
Ni 8.374654656715839 2.8224027057170926 11.6641334729499 0.5195297031749182 -0.722259387670098 -1.1114840399691504
Ni 7.009399223453917 3.504616909071684 7.45236475320336 0.5072724830741199 0.1780992875410094 -1.205238288304176
Ni 6.396829845023888 1.8393254316598884 0.015650099133002048 -0.09022618057710913 1.2086429431103507 0.48551015169636375
Ni 3.918589644637266 8.054209435081146 13.049048246288827 -0.9524710796356306 -0.2596976172397914 0.3148441805049481
Ni 2.995122606664722 8.515800521716669 10.589628413487373 -0.1864908540388143 -0.7579570981820236 -0.6264099473689406
Ni 6.199951579552354 1.5485061389810975 6.504538107579077 1.6500028826520619 -1.2350191191110342 0.4253087996161191
Ni 9.061261289983868 4.926137715471633 5.3381347764945595 -0.6185583125350056 0.9238459596997702 -0.47125029934324
Ni 1.8073470716206381 9.304508177512314 12.56690463089934 -0.12154813061884229 -0.6521772861410318 0.8821334104523324
Ni 1.4692310493090825 4.3105818522678225 3.2688922874995976 -0.3797259687799976 0.39556550691541553 0.5157599517198408
Ni 7.383812522246806 8.136691549941006 9.783921686359369 1.1556288528071645 0.597352624991668 0.4448365852364016
Ni 7.596698346105803 8.590141019624006 7.171287833315837 -0.27406417037410863 0.7537451169832052 0.7243640927179267
Ni 3.4420018098454053 7.888721421878025 6.302354926230917 -1.7969828230804472 1.2360082224971811 0.02738764798433348
Ni 8.054567813253998 5.721222664907291 2.949552524690398 -0.4993182612240497 -0.4163701023655926 0.5920538384865739
Ni 9.220978495685653 6.764185850566735 7.783177212135836 -0.6778178695272714 2.3693569237499066 0.7410112143563045
P 7.089170529057575 6.374656344226557 11.87072838149773 -0.5850131295897085 -0.09150427595858435 -0.738974900652566
P 5.972372250606357 8.7861922585428 5.223788247476049 0.40917435594810175 1.0002483470199095 0.5944285093663375
P 2.1441766081834883 8.173466663986142 8.182634712782452 0.3547667277314987 -1.3258795908380325 0.5521552025194232
P 9.19010283771672 0.641232280911187 11.020786760818876 -1.7206603970686238 -0.8031748323692426 0.8413420874675833
P -0.2793567046578252 5.109618150788791 9.836293602270775 2.2268471032777324 1.4254800135411902 2.0667841044131436
P 5.306128848903551 3.5065374485108234 6.1020141762585824 -1.4744991237523701 -0.5537282034334979 -0.8896137779897776
P 3.520982845632002 6.264064515757483 11.044591341761887 -1.8544040413123932 1.1548287255033725 0.11305037756047627
P 2.4967472168001414 1.1027755837903293 1.0543118277998103 0.24022613877874113 -0.2938940606158422 -0.927282496185145
Ni 6.657242128113634 2.769509763077459 4.426891190971501 1.2879532481059044 0.5175831209715086 -0.7530280363115224
Ni -0.08976454311592419 4.59532709437594 7.877537266129815 0.5760163254077371 -1.4477421673735 -2.7871110509472192
Ni 4.366975873980719 0.47206124279320144 7.315316345312159 -0.4862791686519044 -0.10510772567463189 0.44802552448734456
Ni 4.773211316686229 1.4407445791591758 4.638448258835764 -2.2390580435216276 -0.531212281719169 -0.4273368857897414
Ni 2.462048858320771 5.629156231219576 7.845097609057815 -0.7377785663516198 -0.5662834143906892 0.1530749975825299
Ni 0.4048993353636404 4.918584206289948 1.1425665879977893 0.37930662185439196 -1.1255885976913325 -0.8636381798616222
Ni 6.318482862927724 0.19827685926405483 3.1188788600166197 1.3737843849391114 -1.4779004361244354 1.366199887723634
Ni 7.932241396919947 7.238329362436055 5.112764527362768 -0.02856881277662822 -0.45489319814145535 1.6697057603976275
Ni 5.256580769210552 5.216304576092151 10.759507018767147 0.6750554762907858 -2.1071910474752804 0.11467197232429928
Ni 4.338140214841879 1.105596663253562 12.367423988541855 -1.060805025557044 -0.0939833336266962 -0.22341189543487974
Ni 4.7280005318031515 0.6393411468605898 1.615986911092659 -1.8253899134682305 0.12695361790512974 -2.191295431425368
Ni 3.1293490161742987 3.362745098541229 4.721484481485959 0.1188934666048146 -0.2815211408727861 2.9473645685560594
Ni 3.197119247579319 6.673736713248821 1.3998168729008948 0.013027265497603371 -0.5796233260327049 1.3247858435532216
Ni 8.819640888009141 7.754136634195595 12.272230475566394 0.4713870820314204 0.7105104746642861 -0.03412625225974768
Ni 4.4830812128013875 1.0756858695961597 9.804377728682176 0.18759462862595433 0.010172569657627643 0.09888822712748131
Ni 7.722865841318132 1.7663357437886915 2.0223041375350514 1.394296131739218 0.33344945431096124 1.2274950428198472
Ni 0.9048543459439523 6.789943133092602 10.249428284262915 0.6334131181596511 1.0609893736537082 -0.44983892354699945
Ni 7.71799557384089 8.403187072785343 1.026374870848279 -0.13636102726195873 0.1620052101926242 0.8502820702696906
Ni 7.0806705339322 1.4938764405807115 9.22743022171541 0.21440634950215978 -0.06098039633811434 -0.6913159040137062
Ni 1.1755906771670588 8.18737908844 4.390080239109078 -0.5091478457199619 1.1580459468890896 -1.4672516981613377
Ni 6.53139625433848 6.137511074820543 9.115369961656029 0.9666478853566447 -0.0679344590584443 -2.007466440489433
Ni 8.772408482663813 1.0439280499709733 13.181536981119258 -0.595379046205065 -0.7856872171074404 -0.28370503589798235
Ni 1.3968294692087224 6.613216747956148 5.9513014518793454 0.6458130344859006 -1.2030037425467024 -0.2348211657130859
Ni 7.561687555373175 6.019163575123558 0.4187685706530773 -0.5824132300730164 0.7771023036519069 2.056415616694626
P 2.7057643942291034 6.5731427168839724 4.0363095230725605 -1.8033499029490554 -0.05807042178017096 -0.9506188569182403
P 7.162151027744852 5.67467944835591 6.84346094023875 2.602395800751589 1.0407517064505947 2.8860650983156297
P 8.63308207607901 3.3410034893881067 3.552739746338797 0.5988916873440138 0.49782239340481366 -0.41728335820848134
P 5.64284811525937 2.2726046426399713 2.486654736101547 -1.2302587216079135 0.9783212079295152 0.5938150441520547
P 8.437747593505923 1.4424813349199281 7.427779091627206 -0.25359947476185357 0.038579660045410975 -0.15309659484908472
P 8.392977889450973 3.0703544554122337 0.49845257900950224 0.410242649311616 1.3321651667364283 -1.4383571266141744
P 1.6901206523618117 3.9329982850227676 6.338224905660002 0.014749133284716534 1.6854211142503555 -0.02501400554583434
P 2.43770671011848 0.9369291924143553 5.034476356043688 1.853325463536234 -0.4527033895789881 1.2484274220971403
Ni 5.503540087042405 7.513977312464041 1.61817945037581 -0.35300757894854684 0.41811973806684766 -0.9261818069217984
Ni 5.68040430993765 7.243778548500216 6.686507841059899 -0.11713971713850149 -0.30873961026910696 0.3741716146206717
Ni 5.080249518982629 3.3128202623075373 9.062420046076095 -0.7079830802567421 -1.0661223240048994 0.24334411558243252
Ni 6.732896679321434 4.21400352927572 12.552580531005898 -0.8258470771557777 -0.6093187962146087 -0.06627172664404071
Ni 0.8625381539954616 8.94378676275922 6.506892376499209 -0.4323474516304554 -0.9747615156027146 0.8351094762943101
Ni 3.8246945633496057 5.790793976360499 5.687506630188896 -0.13349810389186686 -2.307333430859259 -0.579775535339853
Ni 8.24958986357383 0.6751642614516857 4.89089168163067 -1.332502495471189 -1.9140634048462393 -0.2830936275662286
Ni 0.9574486401062077 6.8319836495235124 2.4534211335389173 0.04554246451648931 0.5962755898774053 -0.22018824629125952
Ni 0.9851540296229719 1.3775413721620595 3.7069232254843634 -1.3484718743162518 1.6404890296243555 -0.9606168486712167
Ni 0.5854226912955597 0.2546515836907205 1.6791046586793252 0.5672164677279199 -1.56872131286275 0.5415296044847772
Ni 3.7366989381381512 3.118165779344481 11.229990478681401 0.4864992550825106 0.4557817713939957 0.16059907387371694
Ni 1.9334502425455322 4.572133594163565 10.659081184468022 -0.4208569344923527 0.13954148187246937 -0.6016065151720155
Ni 1.3959840642881445 1.887697295811214 6.891945831352284 1.1837608351566904 -0.03245606364617636 1.6402118647035686
Ni 3.5725157890515753 2.632710382070471 7.155996112355689 0.13703311362831885 1.3315884682973518 0.18099794924504312
Ni 3.0400760943980587 2.3878094414365467 2.699785911171191 1.0581130805471777 -0.6267645024948819 -0.9169209504451628
Ni 4.801321030295444 4.988964165928056 7.674654787885395 0.8035800382274612 0.34911158632825035 -0.6483903082947736
Ni 1.7765541163069807 1.7072860479231107 10.847357454872675 1.5767261854450976 0.24529943953659045 -0.4811320772333262
Ni 2.5198304468054853 5.48768874478157 12.866218405193155 -0.5035600672195393 -0.5288345255156117 0.07902696942718003
Ni 4.36001966175379 3.3110099930754306 0.20082134429131587 -0.43358878023672426 0.48867389413632617 0.5133523707196127
Ni 0.42693591732057323 2.91865940727202 9.359878524136597 -0.050888302209434945 -0.7852233900971445 -0.27144910134876477
Ni 6.636952410019764 0.5676618366162888 11.406647026020067 0.5373739304451907 0.4222646134731567 0.017457533354815095
Ni 7.340026060871223 3.940487469917017 9.600917250769232 -1.5184325919105268 -1.1517284893114939 1.8700196363624635
Ni 4.2795959240918595 6.941932235118234 8.811631595305059 -1.4035803852546214 1.0899739338115164 0.764755866271412
Ni 4.948458243211673 5.750876161414952 -0.1144981505531788 0.3227809188535215 0.0428875433921455 -0.23645921553714114
P 5.914241473132708 8.929056500936543 13.305795882831545 0.09324028481308458 -0.9125534175050865 -0.12702278058016836
P 2.728434110958078 2.9733718083276797 9.188278784708736 0.14413398633915822 -0.301237645465107 0.2805999146100974
P 2.5580023168063604 4.09504954344006 1.367888134454809 -0.02202381256925884 0.6183076299767803 -0.8045642565176014
P 5.59153571225386 8.695182581005808 8.714029597224343 1.187207398944394 -0.4213333599081389 0.7644013111454706
P 5.9298998425312375 2.7533551777472867 10.97522035451812 0.44680939269205633 -0.6072444301840833 0.9697841169927813
P 5.773996148155973 5.915950661341703 2.89209715223482 2.2516816458229094 -0.528175037554742 -0.09046349339889581
P 8.315559014930662 8.066605644188314 3.279907362263692 0.9105201891251417 0.7516941479914473 -2.164550045010724
P 1.4513764649538343 7.388921708505951 0.2884218345942391 -0.49190088571405605 -0.23049168509979662 -0.25178350459903737
