# total energy = -340891.47698794195 ev
CRYSTAL
PRIMVEC
9.09974189408529 0.00000000000000 0.00000000000000

0.00000000000000 9.09974189408529 0.00000000000000

0.00000000000000 0.00000000000000 13.31839207799960

PRIMCOORD
 96 1
Ni 6.308860130164798 2.02619402089878 11.570872307327434 0.39450826929549476 -0.11951721623174255 0.02556473584298178
Ni 4.681616991821626 0.335635788679104 6.055872746914536 -0.11863764184026664 -0.06739992671121296 -0.04822361089307824
Ni 2.8362712406165222 1.6828516608398039 4.856032653995605 -0.13304738950769343 -0.17139719293048547 1.1453323559771629
Ni 3.1241597737904594 4.574340135053047 4.573682223716685 1.8259069623139652 0.04237435120115283 0.35168088971732336
Ni 4.889273101030124 4.747753915648417 2.5593424365368325 0.502754026378476 -1.0089679862810945 -0.2735813172004191
Ni 7.14219629007259 5.998649930212227 2.456124974611282 1.1281260194012055 -0.8599411906260093 0.8780669536924426
Ni 5.1227269784071625 4.3380289387324735 11.68153517804152 0.2991306264244332 -0.09901421118238432 -0.5178487159280694
Ni 5.169799943040623 7.939988858281504 12.510964818769503 0.8195141929592143 0.09973669117070566 0.07652708582346175
Ni 2.06472232792721 6.584245618025306 0.11825023547561384 0.026567466075883277 0.46932068642069497 0.08741210816708173
Ni 2.9394987122581173 1.506553262075324 0.5999805597428243 -1.469621998165727 0.11879833578784701 0.020695066455506297
Ni 0.5300899923994471 -0.1906969203070132 4.9640975484091205 -0.9206058554959177 0.5256473860368818 -0.7517170308095827
Ni 8.875515119259035 2.4064267344516757 1.7346009828142914 -0.5566960278125703 0.5237799938108398 -0.28279563670983554
Ni 7.033354277704368 0.585967867255087 4.971329113263985 -0.46467778833204487 -0.2504077072974332 -0.019749928933417597
Ni 0.9939284042246879 7.545132859562173 2.599231154973092 -0.7572644429903732 -0.8331536381195199 -0.2902011851452873
Ni 7.673057030607443 3.827851911441745 3.6731990686358214 0.43696823823191844 -0.38580097132948393 0.4059306521998235
Ni 7.537197884661656 3.7770025539370526 13.040503366812333 1.1752800513791888 -0.016887519783958013 -2.04542672178329
Ni 8.001512212986091 8.856314663937829 7.3955030742620815 -0.7544940793340876 -0.37171826798417273 -1.6924769926558725
Ni 6.914174958585011 0.44348956908150533 0.3361198949459704 -0.3132436687870476 0.2512566855612898 0.23389402591312625
Ni 1.6995860861173862 6.5794136550985 9.227234701672845 0.8528588298579312 -0.3679356610132889 -0.4525948890255818
Ni 9.543991255918344 4.990462230495439 1.1082712105463082 -0.532587821910457 -1.2570573298579963 1.9971696865491155
Ni 6.407474032684189 2.004081648182888 6.9887591727789475 1.1033994631888029 0.8129637934352064 -0.29747277910603603
Ni 3.6322165612281827 4.204335531348983 0.39966521229149105 -1.3774862592707309 0.43142648247808285 0.3742891140351425
Ni 5.861389424020247 5.5158904251408325 4.728495221979317 0.5142175469333854 0.9240562759383634 -0.34959366817099147
Ni 5.611337617493502 3.129792514000804 9.195630388224467 0.9037319625587146 -0.39092620837119124 0.21441869079733394
P 0.32040191083397046 5.4967900669800684 12.460274706747333 0.09586409558917684 0.8874836190206522 -1.9115290684601594
P 4.109598118861268 6.029088566728547 12.691642013316242 0.12639800251197586 0.512343469839124 -0.6146363517727802
P 2.5046493480711547 8.516175413013006 1.402120074637492 0.06524302826921022 0.20458113588162183 -0.6823535526140958
P 6.256272721965153 7.70900101094809 5.980303940651524 0.801713931553 1.0699771789746153 -0.6422875378311454
P 4.580491560549319 0.9904432030929238 12.511404336301265 0.32522860906306567 -0.2021630133584325 0.2922477832616709
P 4.271782818003382 6.1474671085643635 8.309691350555868 -1.033456458340762 -0.3286795437261436 -0.9789166754216688
P 4.892740102678172 1.0076963136564345 3.941817988450428 0.10112380132621938 -0.013250437252002985 -0.28239274484446203
P 0.15347169631270458 5.527783787749749 3.6868768906231697 0.23290877918172143 1.1645410676951298 -1.9272369661137199
Ni 1.6508478687238404 1.1224531582326116 2.778549758060372 -1.372505775337004 0.356220943679522 -0.4215968979821707
Ni 1.802904555177565 6.738832032715663 4.792503716185429 0.04242217371995275 -0.5144623159543398 -0.2638440353079972
Ni 6.044549028145955 5.615305104943761 9.444950575505796 -0.0451017774346449 0.5454975879935895 -0.06419016152466364
Ni 8.583395206120946 2.29092371104311 10.212516531183688 0.11361602025595918 1.1880892873287152 -0.17102541141336353
Ni 2.1048885884901507 5.387038080426007 6.752544433722073 0.38325892163392056 0.4087118144893864 1.4339877939018855
Ni 0.22652806384861623 9.084736384067176 9.366798352529184 1.4169215824482178 0.4280375114011919 -0.44552924042805203
Ni 1.133309150269673 1.025277014926847 11.399424980947662 0.09184469001713859 1.0778123587483182 -0.3213809531822014
Ni 4.308227284146241 6.982887109357728 1.4099385728422218 -0.16376667296842118 0.43820031086680666 0.4123288424166834
Ni 5.536619637094248 8.158974146103699 8.109515229154969 0.6476369750685169 -0.9069332431048317 0.34638904519076474
Ni 5.254837030707292 3.067486581496396 4.915019000670071 -0.5402808196793405 -1.2102419121663546 -1.044373362363582
Ni 0.918145754028002 7.711239547445254 7.094374416684185 -0.010961126997194025 0.028044307731725893 -0.09672258693473018
Ni 4.928538487149084 4.564539713071558 6.714493863141209 0.06069243278405031 1.0102021157985117 1.612653495469326
Ni 8.11885338425005 7.062673645972106 9.26019851655487 -0.3097395122885311 0.2880504573508717 0.32302465943321146
Ni 4.752249188126463 0.1695564000215977 10.356861186412427 -1.0332248019459302 0.5277042685659106 0.28912697824450206
Ni 7.947960232149455 7.020641938328195 4.592967306637174 0.1288786028419845 0.9572978116003128 0.5039971547569578
Ni 7.137591820692244 6.1061178815598325 7.081921419950976 -0.6264230599950631 -0.3528052331297537 -0.08455252723109956
Ni 2.4925193921739193 5.522169247023122 2.2798293057693586 -0.38138998674598185 -0.7048483912825022 1.1733434964781082
Ni 2.645486052813483 4.944899823010472 11.468774113650463 -1.175524049069195 0.9542050316076017 -0.38129074216395625
Ni 1.1817379764400335 3.5916499120234726 3.9395940115402373 -0.9236081326573513 -1.1708916925035062 -0.8762833794294587
Ni 3.6531641669862003 2.5206011955489154 2.8548774827943757 0.5854062512630692 1.1384605685579943 -1.0714491355344515
Ni 1.2313224698264094 3.3199043209063226 8.160205341177141 -0.895874928408141 0.4695813962812493 -0.5471045274693932
Ni 3.7505405046128497 2.6447489737229533 7.127324581953421 -0.33538832320488693 -0.3706183500517746 -0.3674795473124768
Ni 4.205245505534823 6.892708667541066 6.022123624310134 -0.5753074722661705 0.2512104057043867 -0.07485226922420012
Ni 0.7921689277404279 7.52387586258097 11.326586097242165 -0.20982258678621926 -0.8853768570902947 0.5838234801569816
P 0.06744182680928398 5.890863487899577 7.837953452823359 1.1414142518696795 -1.5997067055006706 -0.044376983453478416
P 8.50981469345399 1.802040079701018 7.970578550512674 0.271201761224649 -0.4204527570753985 0.8374496943917126
P 1.720142402975493 3.2039645098885545 10.202980001716094 0.23798285127051916 -0.334920639539849 1.4271396606318003
P 4.042250929367311 6.402924161754993 3.707214813676675 -1.098004517425477 -0.19533802001679904 -0.08966876541174233
P 7.068479281277759 3.96819723012372 10.62571942943791 0.11581817011360054 0.8381438922452598 0.05376279554375257
P 6.45901497057012 7.955922506275548 10.503616363259454 -0.3333108718505679 -0.9809774146054395 -0.13561129358012775
P 2.499007508118952 8.667212928378591 5.714469541845584 0.3519788805737164 0.14668554911641835 1.5197808784083053
P 6.831722197606125 3.800370691029402 1.640546050965955 -1.1123366177774328 0.32881092709768533 1.448571348143015
Ni 5.054124024536747 2.5417489956278176 0.6950692222662738 2.355510504785118 0.04343004615917682 -0.2219373677718823
Ni 1.4712371639229056 1.1512265419888463 6.980022510620706 -0.24766896821003154 0.014709024075400475 0.3692608075826157
Ni 6.954859904433881 0.6806042726081744 9.312006986851436 -0.36727668727305135 0.8106117482632619 0.44685798654180464
Ni 3.0271656253218624 1.6494101095102145 9.211519447483402 -0.9498716943395705 -1.1680105143009691 0.3607275733006239
Ni 6.4836661712645025 1.7861337309325491 2.6525574622116386 0.7678280774388324 0.5564887968977706 0.43389499862323344
Ni 4.077739922615039 6.861978839285277 10.430019471057154 -0.28523921315432166 -0.07416089958413034 0.1592271332268548
Ni 8.42354004089458 7.041243753895593 0.4787947475436933 -0.2889014924972573 0.8156554813347565 -0.2777143655321862
Ni 7.753034661800848 4.11309241973489 8.431514144685087 0.63832572496992 -0.6329037826234003 -0.8960633902698631
Ni 2.610088056984339 8.776883017255928 12.355059851483865 1.7636520701388012 -0.8695609731039605 0.1601023367429565
Ni 0.22735432040935818 4.884368340168451 10.247171078103001 -0.38989519600351563 -0.33499494442121014 0.6026848358378588
Ni 8.64617432520199 2.515123150950164 5.893148433080219 0.4710857487409177 -0.016947426487615973 -0.10980718803283024
Ni 3.3290495614740063 2.58943164296579 11.60412822392311 1.313303811055551 -0.8147833631424484 -0.23890330620225955
Ni 1.3143212153168 3.195774742216002 12.550546875905136 -1.8715517567362736 0.549349357639512 1.1364905893158168
Ni 3.1490748669987356 8.314816325170515 7.82202526467443 -0.015474698596831414 -0.038064410971889284 1.066865629928827
Ni 5.708031474480772 7.815349694047113 3.5891338333996274 -0.20887384971970477 0.8429004330936386 0.7325918799443577
Ni 3.0581957450589785 8.564485942539207 3.6191529718162756 1.9258087183076256 -0.7884318697321132 -0.2633611821343077
Ni 3.6297960298938508 4.095675513817929 9.318040115703552 -1.283007474064855 1.67191382379254 -0.34027933274860106
Ni 7.417017593937877 6.223231559277333 11.501070917454268 0.2174469361006965 -0.7786534501891106 0.5859135299167908
Ni 0.47412112012522334 9.332058268036404 0.565271414372361 0.302533224348079 -0.24044236855460527 -0.25653824567520334
Ni 4.894914940982327 0.29298347864045055 1.649509296696471 -1.2547677624928713 -0.4954171263974307 0.3845521865240474
Ni 6.100749033863381 5.585785542355139 0.3373947687803311 -0.3430777214293447 0.5147371668822812 -0.1858539917857638
Ni 8.067239648429252 9.026079448047984 11.548923729964992 -0.4933152495630794 -0.4010280726918835 -0.17804786547778367
Ni -0.19577366628980994 4.959978095269827 5.711219114053767 0.7246242883578489 0.07029190354702732 1.124927567068566
Ni 8.064846416320496 8.79599247515855 2.7590644808189984 0.014130525864111147 0.49432029378882614 -0.16009282366125976
P 8.749902282645797 1.572990477383441 3.9072034803952924 -0.32439454319754457 0.011893151893160162 -1.271556551915436
P 1.864400610656576 3.2933876731309693 1.6310632099753253 0.5373677597976037 -0.17472728574498297 0.010594744796710786
P 5.007142057321872 1.2871766853532176 8.381530172631129 -1.0018581147091907 -1.8423849053643302 -0.09854755595861092
P 8.346629022707452 1.752118895865881 12.717572637715916 1.3815100357181433 0.030989763513295014 -0.26183651795966517
P 6.506715817391808 7.785065753142386 1.5120904549961551 -0.38381685101991964 -0.27153729018719686 -1.1033123027916354
P 1.9628962165318073 3.385176769256566 6.06470313641392 -0.3064983796434141 -0.9816988661524964 -0.47944466222857424
P 6.9393812435327575 4.0068711330218845 5.879244027520597 -0.29497289550231776 -0.22651084607517763 0.9473011053989169
P 2.347751598948766 8.520552388846893 10.021277266261917 0.15120940512870087 0.695504488173757 0.3150627242736574
