# total energy = -381173.9610978356 ev
CRYSTAL
PRIMVEC
9.14994851146403 0.00000000000000 0.00000000000000
0.00000000000000 9.14994851146403 0.00000000000000
0.00000000000000 0.00000000000000 13.39187453749622
PRIMCOORD
 96 1
Ni 2.067375987469983 3.9868064559556067 11.602613372676782 -0.13182354440292135 0.4882620034098881 2.981914795727103
Ni 5.951364470958074 0.39485322209434487 2.4182243617412413 -0.46356090111878234 -0.5861639553647001 -0.5420237705123762
Ni 8.112225483319095 4.897189742297857 4.642373738609099 0.3814936022033817 0.27604983334556976 1.5005526263063125
Ni 8.139565529749008 0.8001126807364609 5.520626065432178 -1.7387977300992827 0.7522567053631367 -0.4942107647941553
Ni 6.6088523278236275 7.002437367041405 10.883804390254339 -0.29067889611265424 1.9755199694898236 0.08534828365951752
Ni 6.7206098000776295 3.7592472341644614 3.417245030203926 -0.5843652115930645 -1.082115356999046 -0.8082620170841629
Ni 7.55101338566892 4.534989026793133 7.461041941041967 0.4662394763922099 2.120228083164897 -0.005985013938841306
Ni 1.7250215104881783 1.7726652928712299 2.9806158877665236 1.1598374915718734 -0.5905510286888024 -0.7503209217930046
Ni 5.551639816226753 0.313038956648204 11.180139200730371 0.40779932997744606 0.6660625287635561 0.5317123612840391
Ni 0.2943748914849721 3.0908892383568944 4.108493452435091 -1.9314638597108738 -0.4069999740046023 -0.08066116259649335
Ni 8.375963601891993 8.393586402904045 9.90239371287566 0.3103840878510654 -0.6321118828497243 -0.3734087683127182
Ni 7.185216740362672 7.411366870068741 1.6002482363444328 0.9369012502218316 0.06052505396825059 1.051881754925485
Ni 2.5702663127157863 5.1174473051027 9.798526241303222 -0.2766823247232461 -0.3860675947273093 -1.454486170965553
Ni 8.30239801511271 4.801517879690369 11.424193034870648 1.173830463416856 0.2883507622001099 0.8143244212281588
Ni 1.1493433440944638 1.0231930026857576 5.35658944683214 1.4351874706369412 -0.9193848386046231 -0.8440759414589785
Ni 8.945438103131933 5.525086665376818 9.110679769963168 1.218168880322915 2.0435511020271324 0.552650654098603
Ni 3.8243491184846863 0.3016152458156248 4.246884595086748 0.17494120152800194 0.6662638461410847 -0.08077840490064797
Ni 1.4444200366373925 0.9281616364805775 0.4964688913152432 -1.1369037655938357 -1.331007141872585 2.209430707573498
Ni 6.33074878994184 3.2241307899340015 1.021933969757794 0.3882088094400282 -0.5371921534516878 1.6271822852131201
Ni 7.515749483747606 8.015043879191884 6.832722290337483 0.4090931090882051 1.0731707462112485 0.3093638741166672
Ni 5.320530414377106 7.574345754610111 7.267998155376295 -3.348016745965763 1.2561404744706817 0.7478194955273896
Ni 6.38514523439493 3.0700731052819106 8.613841220724307 -1.7685991297314314 -1.2945170173663512 0.2617089912428654
Ni 8.750617397447291 3.317945212974798 9.57939503717158 0.31847072151394185 -0.0932827080152458 -0.8096496414603089
Ni 8.634513699606202 0.3827222202346464 12.082778885568727 -0.6598905956248894 -1.0393964779742808 0.5112697771589712
P 1.0942057538044179 5.944062811971772 11.20200849288972 -0.24050536058205674 1.1048968736699358 0.04166061296357987
Ni 3.466796576870992 0.5366444856473928 1.6411741264621422 1.24443604154956 1.3074980030070515 0.7894803656012855
P 0.6259873288052246 4.6765844814460475 5.844494901248536 0.6562134038836182 0.5123699522016854 0.9849302286056004
Ni 1.838261274416092 7.22691305615287 9.342613582182071 -0.9107639297048316 -0.5982499399949567 -0.36235739559456304
P 4.946846513373873 7.746886335443068 12.103496199198784 0.2200866877163887 -2.463638762453628 0.2034105126122884
P 7.724780059614864 4.595881934755339 0.21860050711258816 1.4868098227989233 0.5618991692800646 -0.5658396419850513
P 4.73311286392396 4.414072455986138 6.816022719139614 0.5586837476665604 0.2640810910194678 -0.5603433947571704
Ni 1.5936099486319488 8.182085340913602 11.998396229549336 -1.53182315428482 -0.19470167198438082 -0.907949857294804
Ni 8.105555170786497 1.0484194109880571 1.3579356374235714 -0.5610373355004016 -0.057052264928301746 -1.7689189749646954
Ni 4.192149602535296 3.7475078501050305 -0.07149952838441358 0.4966553696799059 1.2363213828622257 0.22715413608613136
Ni 0.5015352178574931 6.509621135209033 3.0613156894726496 1.5655071768008264 2.0944563735174313 1.045166804799155
Ni 1.9498814974410286 3.4102590444444747 0.5676591514368284 -0.3088054305100359 -0.5824955053741775 -0.11316633431305026
Ni 2.4223756934230525 8.495782178866463 6.729551129853839 0.7846754880134744 -0.46238744963597145 0.12258711340631792
Ni 4.044936079439288 2.1015510455073745 11.768189927626938 -0.2750152214334683 -0.3536069030954426 0.9868259029664165
Ni 6.083535478548468 0.9825672308822723 6.928138869378908 0.35200022072995507 0.12360964113356132 -0.527017526911531
Ni 2.106061970169338 3.121587315924618 5.492730617121978 1.0741624207005565 0.7104012027799314 0.6175609816187428
Ni 8.085827881595435 1.2610642165540489 8.186546855853104 -0.9712105650266628 1.250212281911705 0.19097074418703883
Ni 6.060550807654244 6.130438115094564 13.202339146955905 0.805812784212722 -1.2075615371207138 -0.25687557440996406
Ni 4.069265792778356 7.217607558422207 5.097107884350004 -0.17459204571869932 0.6417676607719335 1.3546890588705573
Ni 0.23166205874535292 7.913872897473159 5.421499182231673 0.6234621775945263 -0.5863984399730094 -1.5484494499875912
Ni 7.157538145834396 1.9354977782349299 10.625501341152448 -1.1696812171351725 -0.20501385254366628 0.43272026158884186
Ni 2.0899672105742186 8.271910386362887 3.5411463142456725 -1.1898656625028476 0.3492213724332373 0.39096117537418473
Ni 6.651564287908914 3.156174121649207 5.826537212117563 -0.7531864162662577 0.836094980136031 0.8616481460147869
Ni 6.391202500371036 3.6413592963455184 12.143163056388529 -1.4163983629548962 0.16607218117314623 -1.4314508864126445
Ni 1.6537800106544087 4.53264663995041 2.703953466789927 0.4793060797681809 -0.5417262938766154 -0.19433477556326528
Ni 9.00256123226913 3.120498472040696 1.667422584023552 -0.18642194847409183 0.5636675740343969 0.5541627198677552
Ni 3.9709861948186185 1.1774245363613323 9.639511114497273 1.5260983359859008 0.5121609215146729 -0.8594861053664616
Ni 4.146445609256375 2.0910103047151187 6.147807462530275 -0.13199529409409524 0.7852750692706864 -1.0469817465207065
Ni 7.425832938812279 6.839604881677705 4.000487459108888 -0.47705636450205585 2.010761309190621 -0.32191779952227784
Ni 6.101295528789586 8.627870836919417 5.040152199272266 -0.42709751608542573 -0.09330559083338123 -0.6214960550070909
Ni 1.5972790780223087 1.6145084312443725 7.573694278269478 0.8154893880705375 -0.23947563376596176 0.5377763080899319
Ni 1.4536797846250336 4.000961426446596 7.906736852556596 -0.5181109684505206 0.7032195974298275 -0.16398727361965953
P 6.914048863523011 6.7056130343150375 8.40255792751065 0.6999452975539301 0.3277071525105453 0.7433722583893133
Ni 6.535844887909211 6.206282039076341 6.09271379199353 -0.567096654320604 -2.6548838433479762 -1.3504889047462807
P 3.2712072755035813 5.17851406208839 1.2962366189893186 -0.9473167891282007 0.7553497424661637 -1.3972369595350969
Ni 3.366137992274113 6.409008300355176 3.05232952494828 1.018828166904626 0.03407945818221227 -1.9515513744893678
P 0.21685561191373126 8.050426730445055 1.3101353909193851 -0.19693673196248665 -0.2461890412303954 -0.9893692382135607
P -0.0895468870117097 1.291066898027839 10.104758551184622 2.52906562459887 -0.6868568398010879 0.6491243582473208
P 5.385815297669417 7.387714252926396 3.312707782393646 0.13495386250178693 0.5903918774031188 -0.5642203612140735
Ni 3.508620991941653 9.11484940154219 12.676078937979634 -0.24736532092668367 1.241414481114417 0.5551471952682117
Ni 4.6696671203011295 7.654398654949907 0.9911727575446998 0.46027348861676215 -0.053154986756424584 0.9660552460779686
Ni 5.590865645893767 5.448346046431809 2.1895717210918724 0.4641846507457102 1.901303019856777 -0.4475323869010099
Ni 2.1535136036316977 2.5979083074496443 9.837603841802846 -1.4980812819476845 0.1012677831032514 -0.20779295795070019
Ni 2.962341610413839 5.886152787254597 7.108702125148192 2.0771363941817453 -0.18447716604289519 0.2729925345764847
Ni 0.8456345900381548 6.42892773846693 7.121437023615781 -1.2345401225920867 0.23939772934017478 0.21426493882828906
Ni 6.688758828985754 5.1537268513191 9.72110852616149 -0.056067275307213116 -2.672630625808436 0.28477461481307725
Ni 4.708673351201638 5.5127433847094975 11.260316540371186 0.5544907926311354 -1.096289848727215 0.2438321109624446
Ni 1.3751091759591485 1.805605107847029 11.966054821212262 1.6650921728850163 -0.2933147910736046 -2.5797970895154667
Ni 8.85469806282221 2.902052599059522 6.658627133236641 0.8108086947654165 -1.0624770139428281 -0.6190288244135209
Ni 5.6791260501317 1.8019451284052734 4.333369909295429 0.038955812437907106 -0.4888831819336549 -0.4190383932263751
Ni 8.5490257297954 7.087339740141526 12.212385162565312 0.016135986329914146 0.34357780099421475 0.6160530296146487
Ni 0.8065322846773001 5.81487468762641 0.47575432266976775 -0.12454140891921132 -0.11627068426998684 -0.1253775316672615
Ni 4.169174081589676 8.046281803727268 9.444392120488128 -1.1288369294253011 -0.9817412893546575 0.44021065642861607
Ni 8.884563495066935 9.076767315450724 3.104665400975662 0.7503700298633851 -1.0162339238148885 2.5183135282886884
Ni 4.5627408209102445 5.730987958821375 9.002259283965186 0.7590413323851379 -0.11100326522346045 -2.5742216523102184
Ni 2.2770104599451306 5.585567825651826 4.799072098428416 -0.9142302909868771 0.16347022477392492 0.8843895534763608
Ni 1.9053669974806782 0.2452588823714744 9.70826565830037 -1.2219815692007856 0.5793790712323829 0.4057061948938432
Ni 6.631928498203896 -0.3615455791846494 13.374009567676584 -0.5863063944798355 1.2062824132979741 -1.6854098013964456
Ni 4.880344686917177 5.078788772249158 4.649645202765006 0.026457679970896368 -1.438114671586065 0.2105710349164696
Ni 0.2037400755842006 8.776026804721678 7.6482334195802695 2.9828031118693277 -0.7357679636794942 0.5384933887616146
Ni 3.071994594488832 6.436183647710211 12.51048865810657 -0.540487793483824 -0.6045792246470942 1.1930309476047067
Ni 4.308646748166372 3.6544071230553765 2.4208220321500273 -0.5709394251054619 -1.5126388680468852 0.4622378114319846
Ni 2.3660394598658323 7.719216890863396 1.147304735545406 -1.481331059072539 -0.6744962613532061 -0.08550049296666565
Ni 8.604090120496611 2.541215225896852 12.790004033058015 -0.8638762640143574 1.6341296630652307 0.3001788651832895
P 4.071470930392014 0.5380270428815159 7.573641208567573 -0.48980749352013714 -1.1543049917894186 0.9403185034334967
Ni 6.1402651598956774 9.082614132608928 9.029444696263685 1.2462304144458214 0.14291065545501838 -0.3948551111119522
P 5.306302244297281 1.5059259911560927 0.32079262309556295 -0.8288812359964111 -1.0872256816424177 -0.35054677611288015
Ni 8.08440048961315 5.3780652912015015 2.2196494321442186 -1.0479837054226595 -2.300905672956044 -1.2404968543961539
P 3.600449876135297 2.465773899653668 3.9699412706879973 -0.8772753110290826 -0.6503692863980154 0.6550165553620397
P 7.703625378441518 1.7711555513515056 3.471910483145985 0.08765559163645549 0.03562803361625477 -0.27570916217669933
P 4.25920957585686 3.577684804007578 10.323822960691452 0.4733835436361589 0.7325851950761384 -0.837512429308848
Ni 3.6585154499787467 3.1068284488257394 8.18161869353478 0.7324635818966095 0.877971565765159 -0.03082649846255336
