# total energy = -340851.0523850624 ev
CRYSTAL
PRIMVEC
9.43026002095846 0.00000000000000 0.00000000000000
0.00000000000000 9.43026002095846 0.00000000000000
0.00000000000000 0.00000000000000 13.80213876596411
PRIMCOORD
 96 1
Ni 0.637264916145478 2.659333354341958 5.105659765157199 0.33396984559080545 0.6363745147808202 -0.4373086522904726
Ni 3.697727587131519 4.348547559176044 9.521860953472904 -1.1256827000670355 -0.5907587738242343 -0.5940323023691834
Ni 7.1496177231483555 6.656358537218531 13.384831216614327 0.14753092783584915 2.2649963606539445 -0.07323658799764807
Ni 1.9273471334292736 4.860620114048819 1.0654081559344115 1.768300881764722 0.9436180001203749 -0.5066574751979402
Ni 8.029668458233107 7.038632991775127 7.080345861371796 -0.0612750447603977 -0.47381985984262914 0.36966344233767306
Ni 2.688123938493753 0.4123400098768546 3.8477875443453553 -0.630353762508037 0.6692226716590927 0.30617056399035014
Ni 6.516686954554848 4.632492691442839 13.343507816760685 1.0711498591264779 -1.2163449397402988 -0.7176393723995833
Ni 0.900968938086885 1.3634647294474387 2.0154983759696363 0.20869284405715027 0.6529555590679529 1.0805690955578486
Ni 0.19777424435200658 5.690407562684484 5.751751404776663 -0.9169497468005693 -0.6714482185555017 0.1736710765663267
Ni 4.939428797886534 0.240149118209225 8.339845745080659 -0.32385615419557123 -2.0967976200560985 1.5781521192583465
Ni 5.0582217846405975 3.634384529893523 0.7107973694450574 -1.1977242393153178 0.8225588933228092 1.7912266373229602
Ni 8.286426150568811 4.1450236852277875 4.33050369945903 -0.5989618784603168 -2.734359984497433 0.24867298399451365
Ni 6.73020690423219 0.4708726914267309 11.24839824181697 1.0454018036280963 -2.1714244035330537 -1.4779163769640353
Ni 1.6949383727280056 5.525179975090777 9.240296961886857 1.0537062097287337 0.8270066446815175 0.6740843706267682
Ni 5.381425089794363 3.5868654491398733 10.703558362099047 1.3162541519331268 -1.6508960838902922 1.8796026520652078
Ni 2.993079690311874 1.9213494879918216 11.638543191471204 -0.10563274494016647 -0.17048316575664835 0.3351463823974099
Ni 9.35627973112463 3.0001052341026 11.446956140785097 -0.062380104899118376 -0.3939986766489279 -0.723974827699308
Ni 9.004832796906134 3.2147662452546784 0.817653532936971 -1.0325120921496216 -0.09723037980908417 1.3320998607161316
Ni 1.321537792946005 7.875568577583102 4.658263706303639 -0.7284752866728228 -0.6378189605368306 1.3053896984147968
Ni 6.2094585100473765 7.065169743757816 9.668301576852 -0.6271044023328038 0.4786350218430854 -0.17650366091911537
Ni 5.374248661841689 0.012320634849105562 4.317088211409786 0.9381307517535585 1.6727792571166287 0.0925208901485568
Ni 4.052465682132517 0.1088648088978526 13.724004667284326 1.3563204238263933 2.3772008452743574 -0.07370118633889243
Ni 1.7934940212607282 0.637784523478188 13.58286479311968 -1.6614286079904999 -0.452425196216937 -0.4281979482384561
Ni 3.227336781997011 3.433133348634616 5.541697075694074 -0.8400246542077404 0.05242505056893552 -0.5482206433517074
P 6.225772860058056 5.360669087266325 6.458200481279567 -0.08562827679378156 -0.635066594602674 -0.43271846181662893
P 8.588628266431373 4.8883827998473395 2.1425749032146704 -4.72571177881319 -2.6641274734334313 -0.21582379867497667
P 2.0660191085200483 8.905607599904764 11.781188135151286 1.8776342154849277 0.008234986315282591 1.1474440030035271
P 9.145815185726745 6.194247500470945 9.00164442595896 -1.5676450490794356 2.940189648074175 -1.6033736128292968
P 8.555782670427213 1.6599992589768107 3.619224443721749 0.31325215342747986 -0.44182582343453586 0.16139277341960592
P 5.950852486727804 9.477505724990111 2.0604665713603443 1.0200769517100625 -2.1077253227121955 -1.142023346208588
P 9.042204917768748 1.6528605520646233 13.160449493328718 -0.1963852303343908 1.5350133790873435 -2.080418921587759
P 1.1868642481468648 9.46005974376482 9.270758588132232 -0.03972945737913803 1.1601449955099632 -1.7378626198795233
Ni 9.055529875320822 8.630545772672686 3.117185685618548 -0.014431344933981597 1.1939349474762146 0.5684192297867695
Ni 0.08399061177463352 6.553540411110764 1.984291759174642 1.361238944173933 4.331971240921655 0.011643240665883172
Ni 2.2831414175639106 4.073419720123113 11.25854237262997 -1.0524085739632327 1.4263511032922338 0.4460231493453351
Ni 5.236133072098098 1.7850539384517352 6.819222901625721 -1.1680948464846592 1.2377187774303844 -3.956181888191903
Ni 1.0224665234438741 7.18010575412207 7.503532556440722 1.000999109143005 -0.4668884228301185 -0.35945950522147774
Ni 3.858466370907259 7.6481201337058895 12.715234653641325 1.477959828607461 -1.5100507956047349 -0.14682027492206973
Ni 3.0756699084584236 2.3304058812942725 0.5447446340906945 0.6150883517085342 0.5039323629572934 1.1709114899978479
Ni 7.5519974922845865 8.715097484924565 5.0438811880734065 -1.0081562890130769 -0.7142506584330086 0.6920173009561049
Ni 3.3647639627517107 5.567078620811846 7.5586722303987814 0.20537663519972368 -0.061961272194144906 -2.2188918529863977
Ni 5.971136976249753 5.3979563357878435 2.2713903704261607 0.6140051459466844 -0.32912254480083314 -0.1570424668707102
Ni 5.654025619134657 7.1801434751625575 7.1088469365378515 -1.3594258022245942 1.8217124646166432 0.4924148492359971
Ni 0.7532967227358834 7.692225460295454 10.524392850045347 2.9404480439418843 -3.423222027654007 0.349730707969488
Ni 4.4748281724667995 0.3591514567379911 10.885360574882792 -0.30672566516287175 -1.3879048835008936 -0.2402546780238314
Ni 8.209512949015576 1.9070720741674465 6.694727436576017 1.9090114442446282 -2.665221477828558 -0.2606507251816801
Ni 3.791605826643839 4.268456359961766 2.7832564026022695 -0.031345089970184724 -0.7261247841627753 0.038887678204133025
Ni 2.9876384302216072 7.074439689457525 10.714448426487678 -1.8880746940919613 -0.15987350856160207 3.3459534356788314
Ni 5.567955635003171 3.510329457991507 8.394502589720483 0.5121326393798986 -1.9618306449281893 -1.0812239555330283
Ni 2.1614250501720966 6.713496483296397 2.857870506737817 1.8648856575700075 -0.9112652948212823 -0.05747958227370746
Ni 6.929166532281505 5.002734134084044 8.72460790225738 2.5752140981304747 2.6049116251949074 0.20147550037310463
Ni 6.678189589400452 0.5197289830656486 13.750050102714669 -1.0234399546450246 -0.8981462409408209 0.41195628956861313
Ni 7.893882142739598 1.5801815373060648 9.224672906917094 0.5023233665989606 -1.170931801712822 -0.7556109665473503
Ni 8.326938548051979 8.078884985808678 9.697078958639626 -3.4214055432705597 1.2903425742736874 -1.4789607590681495
Ni 5.087087810873365 5.721989503832326 11.516048827619342 -1.575773848834157 1.0628436532536276 0.635312392064893
Ni 7.784000751800618 3.9254023572516537 6.675031395285668 -0.9458918837562159 3.278728858203218 0.13189810639459865
P 3.3485344850821277 4.917173383999134 12.998330119471149 0.5713968243578547 -0.00993037173983451 -0.04745202283437634
P 0.35746532622821686 3.3821627926763953 7.255770389235185 1.0509561577874222 -0.5794646889676536 -0.06514969722445554
P 2.429810253237955 2.591029980279906 3.23418597992346 0.32096906245576334 -0.8663962022227336 0.14700076636399198
P 7.551827747602394 3.3440362510040385 10.252283637257399 -1.6955268352257897 0.2931240152190371 0.5654917717273293
P 6.2987819339208775 7.812649882050585 11.714344565356082 -0.5279487804765488 -0.16561709591359863 0.7727725659283013
P 1.2306866669327765 8.590929249901087 1.6896442246956382 1.0260833058051426 0.9712810132532821 1.000099223036555
P 3.9829929558153636 6.085516601266822 1.416444873837611 -0.33443547237331434 0.823460579201472 0.528722939638412
P 6.792833261700932 0.6322140688242527 7.360307651763152 2.025955500432556 -3.043743913218758 1.3919636269512996
Ni 0.0905493576893315 0.22167901073470667 11.12753248388814 -1.0612379993294048 3.582259413467559 1.4627890344042938
Ni 0.82655947059598 4.163224087262823 2.9731045133219203 2.4264894070968404 -0.8763605125242971 1.7725000074477346
Ni 6.5989754043775 2.378547359215959 5.009017516403186 0.6274941815720548 -1.147513937009514 0.05349257260150143
Ni 4.649514310962652 5.2340772753915505 4.82745011709647 0.3836420160049522 1.0763673987716755 0.41410933135587386
Ni 9.288985394895608 9.12581360400845 7.63680665063779 -1.0292236512063373 1.0520481053000204 -0.2777642449335152
Ni 5.781928237166359 7.371813512137736 3.669105804635904 0.48987485642296275 -1.1110389820119317 -0.3361326575700792
Ni 9.192862753474305 7.808538288637489 12.834291687678798 -1.384979996544615 -0.22183838030017278 -1.1429384018236899
Ni 1.9730744647597847 1.3743095285874858 6.689731284763498 0.7592693892355439 -0.5410032996676618 -0.012747529473655464
Ni 1.761053926441805 7.6196878994387225 -0.06651728279498736 1.1517171764575844 -1.1130038190477864 0.667563795899431
Ni 3.808570864602921 8.4932977668603 1.956397992760429 -0.06452826159037274 -0.8243316689525156 0.5928879043520952
Ni -0.13514411477921692 5.476001168555694 13.898477681901426 -0.3893673485245036 -0.3679523731838373 -2.4699289663377137
Ni 8.874921533468493 9.520413408544211 0.5329643531465669 -0.3544088301714477 -1.7608631945397544 2.324820274790112
Ni 3.671398300871509 7.815582692948459 4.580985553683689 -0.14457955851700904 -1.9359216383719111 0.16639074085482958
Ni 1.5348597071607901 2.274776776835892 8.902435260399798 0.2397402002812581 0.3496219503057656 0.8238418738002908
Ni 1.2850992678354471 3.2934994870114194 13.278043894021302 1.3587277477163051 -0.3619349633451638 -0.9566637775607395
Ni 7.397294074986785 5.397550834602606 11.17684802919499 1.4696248263792044 -0.06907448620015846 -0.2475956917699349
Ni 7.97918827580122 6.1695119281715165 3.818886626150136 -0.7190488511526003 3.0435485093785 0.03144124922841682
Ni 6.905430567554984 2.3580648342314534 12.231137908445822 1.8389663666010845 2.2021264606026008 0.5988484928109041
Ni 4.634010963322446 1.472921758680939 2.6069482593654705 -1.1912671708360645 2.9563364330373667 -0.057338428710152864
Ni 3.009846692808399 8.358737385182621 8.85311971509295 -0.09124202343613319 0.06060578660751498 -1.294948191366499
Ni 0.06596844165589977 0.3315896354800647 5.356016196922239 1.0194745422393734 0.24742137097559969 -0.8940432745160409
Ni 9.24941602342462 4.208489335847367 9.236294759491175 -0.43734721883789196 -2.8135821006545543 0.01214871954739198
Ni 7.03017404844589 2.345899798674357 1.7665498820407783 -0.5795973578907759 -0.7419010731604255 0.442755791447973
Ni 7.319579301323196 7.669819162246106 1.8821290361453387 -0.7464658097129725 0.5013915988133107 -0.7718739653734319
P 9.596704212929412 5.931699628420469 11.77358357338908 -0.07363356632575062 -1.0914628596522171 0.1814952005964358
P 4.186196200919479 6.399365088379782 9.382997544101658 2.3495967104038438 -0.11938711841178147 -3.1447414733797583
P 3.713108341390142 2.994343345168193 7.597497554346162 -3.874874607370978 2.5818529436032307 -2.5613193424262533
P 4.064196925724012 9.370726889631197 5.903312659401887 -1.4013558667994768 1.057239676803289 2.1157543636642595
P 5.041492503184559 2.134624250905998 13.148924772433888 -1.2709587704304368 -1.8811892798260377 -0.9476340632583035
P 4.094760398778701 2.035606519627308 9.350451830369371 0.15744098786070948 -1.9646123214383842 4.004921262379135
P 5.961659564827364 3.362566712143336 3.3652100140554713 -1.9060245937021625 1.73263813825579 -1.380018024553649
P 2.138669832498241 5.593181580828933 5.15014418820366 2.3041632606613933 0.8763432861331166 -0.7537857404131535
