# total energy = -381175.4432997379 ev
CRYSTAL
PRIMVEC
9.16748807777228 0.00000000000000 0.00000000000000
0.00000000000000 9.16748807777228 0.00000000000000
0.00000000000000 0.00000000000000 13.41754546571982
PRIMCOORD
 96 1
Ni 4.796805684339912 3.5481571238680965 9.489116671375179 0.35917282721899435 1.1935557097599252 -0.03101855986870142
Ni 2.1868768035804402 1.0359444996507896 9.579188159521573 2.4479118386366743 0.15262813985309842 -1.029721673888678
Ni 7.611022871768454 0.6812378803733571 3.077556035730508 -0.012656512421745945 1.9660796500125302 -0.3371173900808517
Ni 0.43502940049006866 8.951410486487145 10.193122008650915 -2.0842380382235333 0.6103665207528326 0.8508698244523605
Ni 3.177258886961921 5.894759074060239 7.952216613464204 0.13560383738096002 -1.1483636866043192 -0.1472985001100689
Ni 8.280524533769986 1.9285003166319095 7.139153920015162 0.04742631180276348 0.0033252077184910476 -1.2121995501133576
Ni 6.001230281817131 3.0356028595588307 7.408927428272747 -1.6251937940281818 0.7128247246197594 -2.2626157762369097
Ni 4.337267004192701 4.372167631705228 12.356875656787476 -0.4847650460002232 0.005446624936868039 -0.16790794883030438
Ni 3.637109261707352 7.784288398426388 0.983645813064642 -0.2611289503696793 0.2761930437916534 -0.1782334991260285
Ni 3.9171851931849475 4.296462514290348 3.7738056780034612 -0.5307083454995569 0.7113095735268136 -0.04180356629934736
Ni 1.533124886277232 2.3759104099130646 6.625074185672252 -0.23336900664759166 0.16660979884417113 -0.05749166645856551
Ni 1.9945612364783156 3.006312734814275 4.2086141420283205 -0.7082317059324383 1.6145702528760646 -0.02025463648397802
Ni 6.233635274743338 6.764955387363121 5.8119436528106565 0.8991669688958515 0.07468334774650363 -1.5561077378637975
Ni 2.1654798861614126 3.2589687091366386 13.377051160014757 0.3338754861047863 -0.29686497031870807 -0.5562874795202419
Ni 5.4962850326997215 4.842175583357379 2.1500812562604956 1.5691409168986719 -1.5984872312712728 -1.1855474947434679
Ni 1.2453207622614013 2.3663670547146043 11.347567294052276 0.9541528382134278 -0.29166851371943314 0.44923060053903924
Ni 3.386653484548899 6.890183275942348 11.97192549399446 0.03553650234371299 0.23989575202251587 0.1626922089573198
Ni 7.008618055778001 1.8633194756510674 5.147721547253691 0.6251665618801427 1.2053822700812078 0.46717021573659545
Ni 3.89129620655627 6.647712380991252 5.476102807464937 -0.7345752289229736 -1.1457293343052657 -0.5557884283966363
Ni 1.4049634014794583 4.00541309945775 2.096518373053918 0.32759093864765515 0.24040945843414077 1.3341078922850957
Ni 6.344314359576208 7.912715740381468 2.291193651614336 0.09290912672591095 -1.4103171897578228 0.7724920585734051
Ni 0.7317773259771945 5.530901468078577 8.40704503818301 1.0265350486305804 1.8577665300267232 1.5579579036986588
Ni 3.8913878814380998 8.299739589001469 3.306821163954051 0.05274669557441238 0.04297778911310663 0.8115885103542345
Ni 5.023105130136267 1.150877299000553 9.340288917966559 -1.6233112322934882 0.010356146423343454 0.7699487233262611
P 9.168954981068774 2.678804219478047 3.307465638373313 -0.9179581334604255 -0.02569509077325897 -0.15712114262744553
Ni 0.24065573229086984 2.311453800498677 1.098329256735829 -0.29721489745895907 -1.3330953918601816 -0.4023645321151199
P 3.725410507885618 3.78021375224335 1.5334512488565453 -0.10003596757867933 -1.2231056555029 0.4549718738981906
Ni 6.934104711826907 8.815658321473881 5.189960749056677 0.4803306643779534 -0.8797739090812203 0.1854367017426871
P 4.977286024197835 6.376556415515676 3.353178401448822 0.0603785010880573 1.193923634622305 2.2622488798157945
P 6.070133123000255 4.874142614651358 11.025478597729814 -0.713067436758185 -0.9031575781124832 -1.1059314855820372
P 7.943830195274432 0.40810540444553495 8.712951284364912 0.933029168860935 -0.8574143104390975 0.4621452517181782
Ni 0.2488606342146186 4.869861397669916 0.06361778424564746 -0.8519710279363393 -1.0859815248226714 0.4012455880193283
Ni 6.275475690810365 6.902971921957576 11.876862308532443 -1.1300785151418862 1.5188470537401262 -0.9555013818215222
Ni 0.259527006715492 6.1969653220115 1.8723778707246497 0.6855347785555549 1.0158539147676504 1.014109164162402
Ni 2.6961399396320234 1.1093485775317462 4.742740422780908 -0.2848473770325417 -3.3141185505564215 2.3726152827862044
Ni 0.23049448838887754 2.380888355996412 9.19466795192434 0.289812691457617 -0.14952918921280053 -0.4405438713983187
Ni 0.9908404577906287 6.713424936286706 11.027437689954512 0.6568410101652882 0.8854467910962814 -0.09583607056471882
Ni 4.591903155962584 7.747563440765452 7.820430303838887 -0.49612392265646815 0.5415882256368544 -0.282206596975585
Ni 2.7033089153910974 5.51554592537212 0.8373941238354343 -0.22964759193194642 1.4053480186780054 -1.0193678414581797
Ni 8.29602675628737 7.883948162463341 7.253766774027341 0.5208422513387546 0.16220575623920452 -0.3407660425770325
Ni 7.951090845915337 4.2486632309043975 1.8852453571382517 0.16157994972974754 -0.9455072467232879 0.46991229725810685
Ni 7.640578853670315 4.667727450723842 8.886561508578525 -0.3999790626020789 -0.6416100521481466 0.3276783561551389
Ni 6.401712003089717 3.736503168586999 4.00354109837079 0.24045008186408914 -0.07224774172181751 -0.25080931361122616
Ni 6.233891964412461 2.4758360311073235 1.7508288951532445 0.36642565212666567 1.6897382535684706 0.7924510181938352
Ni 0.3262470689622529 4.121070130373967 5.240370016328316 -0.9010209913854548 -0.6280145728518991 0.8221994531008615
Ni 8.184165065478899 2.8957436598396007 11.400768061475627 -0.445431024287291 0.36713347682696773 0.5792029506658347
Ni 7.5116564673533555 6.415967447214219 0.5414208510997686 -0.47247645844085717 -0.039498572315254554 0.4045054897175227
Ni 5.1230857562596235 6.06862965493825 0.3848786563851887 -0.555933952835565 0.4439963487232934 -0.9396600439138915
Ni 7.408751412499635 0.7453397079950648 10.937875914151089 1.1714118266730342 -0.8725038577823684 0.33296325870316207
Ni 0.4271233586810844 4.456031813602941 10.42058939244178 1.0877337316270879 -0.08588281600674887 0.008938697250526541
Ni 3.748842607681263 2.234153540139962 11.183617768885865 -2.710818963952699 -0.10551807373917312 -0.19226940839380435
Ni 4.743001696194123 6.415738260009645 9.776667772717158 1.1035023073152543 -1.0774937990666347 0.9517372867933995
Ni 1.07002005322685 0.29882527830938443 7.509397598265075 -0.6499746220627579 0.7489150425844134 -0.35792301397229326
Ni 6.301410514879957 8.347887236938373 9.6372330277008 -0.15924847338309348 -0.7757679011111994 -0.28941725579141125
Ni 1.3143886182318185 6.607888812324476 6.463928995141008 0.4038295466964206 -0.11510263210381466 0.11581302790727797
Ni 8.015703302628834 5.452821971224311 11.796746712552743 1.2949170810182473 0.6450316762351859 -2.066233631226312
P 2.7429124643414826 8.300344643221544 6.772533233095155 -0.6840062577261704 -0.038345946768050095 -0.8116659005593891
Ni 7.350382015238732 4.540721069437121 6.125538671331607 -0.039898121746518384 0.38275318564209565 0.2971791591250172
P 5.244490802266556 5.1416774222946655 6.728214844972275 -1.2538879309910793 -0.9335032802838762 1.0053087922619526
Ni 5.079485182461468 0.15708582676382934 11.44742049208989 -0.8447246307865709 -1.4383134178604327 1.745185893013814
P 5.724656330825426 8.193057529016368 0.18003663342986845 0.17286400728399906 0.3708314945038452 -0.5450934105766354
P 3.7024459499873044 8.276747528638607 9.716450209838573 0.027212812969366038 1.4572400795616065 1.9508036976900662
P 0.05732338685922746 3.955266939096962 7.423123283724061 -0.42803828273214023 -2.262629145973348 -0.679454633799746
Ni 1.319632421472471 7.809049784008562 0.07078859350235837 0.03889050641761044 -0.7566782314696 0.03329758571086523
Ni 2.9995654635116167 4.966468388141943 10.396048943324816 -0.9804595944287565 -0.23831889445369925 -0.3769172956866089
Ni 1.8192238574910322 7.822186794574743 4.5228132980205284 0.6437528095227624 2.088341004648313 1.3350761697356361
Ni 6.0841410449438165 0.3188204867852374 7.485595131946838 1.5167906854317297 0.7045362593587221 -1.1267507363202336
Ni 6.548465153922533 6.572740662631009 8.04738797528678 -0.2645246063147896 -1.2052987092284662 0.43925549160419836
Ni 0.043075276725271804 0.28471651399580983 5.375954416307832 0.31701213469054434 0.8912099188323038 -0.35942916620417453
Ni 7.44615476428611 1.6144496739482659 13.426535427728737 -0.7479634773044215 -0.5387445855404722 -0.7208691921907908
Ni 8.694409122766059 7.86793256060771 3.664720819365608 -0.28140621256147663 -1.1027104075415783 -0.12269175730498223
Ni 6.7075669113377945 4.21444099751741 13.042404838379277 -0.8155230695219502 -1.5822468581530107 1.9204166007577768
Ni 7.031692623534511 2.3322731661621776 9.133255865335512 0.26941587296881986 -0.09826267772834045 2.379108860930348
Ni 5.889982812716918 2.34987474347346 11.438095323110183 0.7261049866684334 1.7965593623897833 0.7189632334173296
Ni 1.3508202162708995 5.682880087175679 4.004748456564486 1.1396412191296568 -0.33898889607195165 -1.0614732552686623
Ni 8.441285606546364 7.930454830015495 12.21738682359084 -0.025980997444793964 0.6189524626496309 -0.13642221951719732
Ni 3.9359052040545515 1.8784274961765846 7.461416798613101 -0.8738531727214113 0.05482774647315719 -0.8120762486239305
Ni 5.1444918411668334 0.5732192006111818 1.689416808564417 -1.012591956186927 -0.3484641825522386 -0.5068523648175658
Ni 8.14696339843245 6.895069547143865 9.771958434037572 0.38126837356645304 0.019409514874863348 0.14910315741897548
Ni 4.691535417534989 2.4429705859714135 5.056012745717819 -0.535085134411014 -0.3387204729019134 0.6160936530445971
Ni 0.9792527527273679 0.3905478310775308 2.8133508597952517 -0.28980883480287506 2.280627382322982 0.33744314885138654
Ni 8.428093591051084 8.54507990775383 1.2703800912095211 0.5474110029662186 0.31328146400351853 -0.8128694339491871
Ni 2.375021163559318 3.4706735137457225 8.676885469104331 -0.0037910916113160515 -0.03830609466905016 -0.1747357703854152
Ni 2.4274775309422125 0.6510768442514203 0.8048247885678341 -0.43516203826111505 0.7130054731719978 -0.3664063688529561
Ni 3.0751880735328494 4.13195193884714 6.16137713288525 0.7755652981820901 0.5169436876152969 -0.021515505474272622
Ni 2.4025236281081965 0.14254985750092877 11.8208709577062 0.060315251950289674 -0.16807789874926538 0.025926232947458574
Ni 7.2816350213547185 5.889386925985026 3.4504830377715727 0.019906766226256038 0.687254589460139 0.5538719281002138
Ni 4.334425082855984 2.214012568602 13.553197111459777 0.5137930578014571 -0.25064090635416186 -0.10394507282509839
P 1.7747248698509468 7.713286202449367 2.4401149134024216 0.5476861110044762 -1.4005567679369493 -2.0958560820784355
Ni 3.1956397007687545 1.7411351931485832 2.716046223472502 1.410667888229022 0.9743485964350123 -1.711259415469698
P 1.7546389032420826 5.08255629100276 12.152042801320338 1.9684512355685002 -0.04365810300958287 -0.7697751738628742
Ni 4.5552240357425635 8.934652318088695 5.772576625055392 -0.1064531839589328 0.8128905169951096 -0.86802422474446
P 5.442178517443895 0.6873223422803872 3.9451341144083365 0.10135442927978673 0.4244744766402819 -0.7789828085040713
P 0.13247203774140137 0.8743299337245781 12.536254064565808 0.3619966698210347 -0.6571490283240101 0.09728411586515504
P 8.781720280220565 6.317444451711953 5.184512510829544 -1.5776093593809992 -0.11744182175995257 0.240585836111005
Ni 1.789796220423732 7.808664749504878 8.811194671477597 0.9111174563895083 -1.890390743819648 0.21927524755868688
