# total energy = -340851.7350143279 ev
CRYSTAL
PRIMVEC
9.44787482073520 0.00000000000000 0.00000000000000

0.00000000000000 9.44787482073520 0.00000000000000

0.00000000000000 0.00000000000000 13.82791980596777

PRIMCOORD
 96 1
Ni 2.7783743467316704 2.4925855805902013 4.403114046121039 1.1794737777455622 1.5223985185368103 1.0783530617431365
Ni 6.076627454602567 2.3396622783730767 3.2761800378739943 0.17438764301737708 2.1197951093925362 0.8251328246975724
Ni 2.556802785901569 9.271001178569023 11.551803196667004 1.027191708377973 -0.8007772786713435 -0.3239101473619583
Ni 0.5271885819056537 8.580191465760933 13.560045362979405 -0.5911876338315366 0.8354879426796514 1.3819790049347618
Ni 6.62826997096569 6.995990707750115 9.24011985485551 -0.7763988498269789 -1.9244856286208278 -0.9964845091021031
Ni 5.84931158586761 7.0993032191639465 6.579324310551379 -0.29397505036542276 -0.7372257791719433 0.2874367350262727
Ni 7.4607411191774355 1.0050554779782244 4.486164645145469 0.7537232626063342 0.4706059808910218 0.13290957837824852
Ni 8.022700714869675 3.808277735548338 11.272782888063428 0.6437389255656913 -0.2146881424086367 1.1365402116068297
Ni 7.112312942823466 7.5892227691743885 3.1761903440426273 0.10169432911770873 0.31063477040929083 0.9203739419907697
Ni 3.421028241462367 7.65879691952203 4.680599075062544 -0.4268612317049036 -0.42022855687973437 0.7591531753726539
Ni 8.16796179058871 8.778502358726302 5.764832468166841 1.5119613823638864 0.05738033769168182 -1.5517893129941018
Ni 0.7268448522487386 4.083125862621017 8.788624811833643 -1.7885100097227458 0.3045957633040625 0.8693491142034706
Ni 9.370543987920291 4.596655651865402 5.598841810253651 0.7915696440301465 -1.0558422822351299 1.4250128440967846
Ni 4.395104137828708 6.801430621097623 12.91061734198591 -0.23262261539987034 -1.388345827693054 0.12464528148692727
Ni 5.716927963560285 0.3474040267209327 2.244105527418287 -0.07149158028208333 -0.6472880763695303 1.9649632770198997
Ni 4.341742540712538 1.472432398612041 7.937737865976919 0.07311394637685473 1.0572695015999598 -1.304567459623818
Ni 9.155500908607058 2.280424103104241 0.6298066745184859 0.7850927780565511 0.3631554660158262 0.23931082605332338
Ni 3.930363174276232 3.0579086197267324 2.41494955863859 -0.7847310238417582 -1.0107962977390852 0.07167104328274108
Ni 8.624690956273886 2.7724316334551 3.6840759728554966 0.10225765782034649 1.1239245797253483 -0.29122679819632424
Ni 6.913227324120929 8.802726709825071 10.380232703721775 0.8326949533155467 -0.9260774201334502 2.5816945636484956
Ni 3.2127687362867783 4.046723200848956 7.918640876555723 4.106567511867728 1.0917243408437198 2.5056912115389878
Ni 3.2847993340937323 7.1742437624227025 2.169352052081432 0.7760160125662635 -1.6968717792894583 -0.697857818897282
Ni 7.328480319243076 6.154714140184215 5.043802782884285 0.2371603553692238 0.14962817668451006 0.1697005219543529
Ni 4.57221399964523 5.14705104874918 2.113763590864646 0.11222402500443898 0.8897423331478419 -1.894525077702995
P 1.4568528529950857 7.789158696612842 10.051874647897884 0.9461276539161061 -1.433917345675266 1.0737212193980799
P 6.870948084196202 5.2329700225761 1.5410390865757055 -0.41778240933208693 0.9104854792324641 -1.8015066790927297
P 4.680250448480818 1.8638578533788452 13.463941580071177 -0.37333677742420224 1.3236285900203268 -0.5297071579285522
P 4.546033938453851 9.01452916806698 9.970524666345288 -0.1317027025543409 1.0893440135370014 1.5815572882851536
P 6.39788354290659 9.137228718659701 7.129814186183592 0.4229045610500007 1.5135752638182254 0.10144930298643817
P 7.727841988878433 8.549514216144042 13.432178769634767 1.0374786921262777 -0.3439871206174915 0.2992843783934781
P 7.493723650256144 3.9567227450896367 9.216543627971006 0.7808959663663841 0.9316101770262214 -1.1388464911425031
P 3.7481231164196815 4.29575028597431 10.010030955003442 -1.4367607286613322 -0.16169462093074088 1.0982523717702246
Ni 4.545618231960737 8.543089661250452 7.951980537303517 -1.5280210069299103 0.09190202561763527 -0.6903008324856306
Ni 2.0878480701688855 2.245551997056829 8.900935479248437 -0.8591490337420171 0.11394769256376505 -0.1333356101720736
Ni 7.23862158160641 3.7833447938363034 5.29177926432704 -0.9278792492288793 -1.0644562491563863 2.117738483973824
Ni 8.467808994497329 4.515951904952101 0.25114435387778566 -0.05830696327100926 0.12084904766928865 -0.36270372319038824
Ni 6.184862308809869 1.0741572345836892 9.420339957070519 -0.4500932056496507 2.3419484498299665 -2.060457133753851
Ni 8.441931265300942 1.5230919035229655 12.43958314900017 0.8094210703892704 -0.8930886239122554 0.31410833078018807
Ni 8.76433054646103 2.2256831162609183 8.614696994264417 -0.006457582699885653 -0.4525714919868141 -0.6093596767548732
Ni 1.1388751772617631 2.4028496653265017 2.642101034351271 1.6478099887658009 0.9770886210739946 -1.406433024212068
Ni 2.401980460840898 5.048197934261489 5.570812799955396 0.9406437479833994 0.6285313645873175 -1.523613364780518
Ni 5.839334630032858 7.667829087872429 1.3079458423739387 -0.46340714914973735 -1.224631348118807 -1.5269426862640672
Ni 1.8685251035515413 3.7213572869880047 0.5276940432097816 -0.32420839532866746 -0.2667511816524632 0.23570536809025214
Ni 5.474939545193349 3.4745882439502505 8.847047635503483 -0.48477815862634577 -1.7030234007131508 -3.1101205408717796
Ni 3.279206192186372 0.8668066149680461 1.6941135547903268 0.49925346942438537 1.6273967152167714 0.4137000117325972
Ni -0.0045718266367766455 0.30371232950710003 1.9048096668880585 0.603940819732147 -0.5096610379109545 0.6263040179186955
Ni 1.611231127938112 5.811104380000437 7.547804230647905 -1.0476983129717568 2.380238860769733 0.016139328764023818
Ni 6.35495239961766 4.631990703780145 3.461349881719518 2.5076010269671913 0.09874887333613962 -1.170365644796707
Ni 1.9609064237714258 5.685882246824496 10.009837273569149 -0.6625061788708655 -0.5599587577242421 1.306715616315072
Ni 6.35062527293933 1.8308658744252928 11.644781622577 -1.6197559108420618 0.26330127543064974 0.5853268041753854
Ni 5.013722638957504 4.807825102492793 6.7340030279144285 2.546330582326905 3.177758294625411 2.6035947061556968
Ni 9.328850516235862 8.085151167585305 3.816865853781093 0.8451547763454541 2.9863460920255793 0.45668525704487156
Ni 4.748804228345358 8.876363446355425 12.137954075896063 1.1209873514738953 1.1495582211330524 -0.5964331985011921
Ni 9.2756211893675 6.676529715666361 8.971457251442882 0.4324634083830294 -0.6207275522721826 1.5444321012980822
Ni 3.35474195156027 3.7174647625524773 12.275348851020388 1.2753887811773323 -0.3503477727281966 -0.03232673715716368
Ni 1.0702836058978482 0.6907605838589038 6.44032623106611 -3.6352632193581007 -0.17230993455274196 0.31324829677273797
P 2.4336780809408887 0.38966626047094155 8.088434304093427 1.5180777796742695 -1.0252780362950278 -1.194981386462858
P 9.28612722619349 5.4385746749206625 12.184540601961947 -0.24487057952928792 0.4164099544645926 -0.041979943976211576
P 5.6555545685768145 6.555700844292654 11.060330416032288 0.40800964621603925 -0.39386497928454106 1.8483267247700619
P 1.0588422294623523 7.588457491312064 5.521474107947595 0.3145359052359099 0.09204086518834471 0.4386024314012318
P 1.534523832083618 1.2753213857517989 12.981194856641931 -0.13217167177095945 0.167637211667421 3.567202262024121
P 4.571911667650237 3.135806347811509 5.886489918164323 -0.39252800564067236 -3.478510772923983 -0.9192855940225974
P 3.1960648935634444 5.422900650555271 0.39039374683389216 -0.11716234284632081 0.41477833239844053 -0.3282200875912218
P 4.612830413597498 1.1848674319999914 4.194436944877367 -1.0373802188752006 -0.9947937516632417 -0.25893579937310246
Ni 8.935544934375198 7.390713470837306 1.7065866391587348 -0.37076978802797433 -0.5864987129962995 -1.509585425932542
Ni 6.000269730117283 3.1333687961018826 1.0860265997495964 0.47627577758228945 -0.20007990557715863 -1.2799841138574988
Ni 3.004320273614319 8.627459183603035 0.18639901236266543 -0.16451280710582636 -0.4563566700608592 -0.5583626168817157
Ni 6.095551547914127 0.34480775071393494 0.08064422530178636 0.44214566866779986 0.40542414487705014 -0.7793242510038901
Ni 5.8854024677698344 8.953080190084762 5.015013218661128 -1.8672425878379584 -0.698811441059803 -0.8749134956651254
Ni 1.1043904340829354 3.8549691330249867 11.679033003247193 0.03291140601604009 0.07601363652215297 -0.11560811098532348
Ni 1.480746528474334 0.7594834806831436 4.053198774266701 -0.786564220395755 -3.046976304113127 0.08774146648204244
Ni 3.856206804629487 1.808559441919755 10.263856615761815 0.6387401867995193 0.15522932492137137 1.8366109789950305
Ni 7.664031042185336 5.525636841603648 7.328562515754215 -0.0017694331955969524 -1.3276107145965266 0.926570814830101
Ni 0.6205685424964975 9.254628011465213 8.889319317128335 -1.629201629635994 1.0639978214627288 -0.12869476896595253
Ni 9.358101136751383 5.964471732335207 3.8322006994396007 0.25450373174367785 -1.8952370161683556 -1.342403813745301
Ni 6.837653773247657 1.8406160812637995 7.084776166804558 -0.35271421607784414 0.21669668819823326 -0.5809443588369737
Ni 4.577504809557598 4.990452523217928 4.561637103757915 -2.311357978637619 0.2581492989160651 -0.3714115353770313
Ni 2.051965041513218 4.6982675458074 3.288472667832891 0.3168573542802349 -0.18076526440894677 -1.1491033929838208
Ni 8.060964607985909 7.240038762832938 11.726186401803687 -0.5915925825794393 -1.4922132532026817 -0.013704236959969945
Ni 3.1118654329580435 0.5635827405903556 5.9559894303007 3.4051605421666067 -0.8253143445807594 -1.3797377743090689
Ni 1.9611804121418877 7.133079371729511 12.409963116578266 1.0531439094673605 -0.1764751216740251 -2.5798305138565634
Ni 6.209039420534423 4.8592404373911995 12.931801366960038 0.02351016730679822 0.6415100362351727 0.8908561350373109
Ni 0.1555715415357621 8.96869752720109 11.366177020466539 -1.0849875363405186 -0.8062925520626177 -0.9748201367547921
Ni 1.1888922266833288 1.5400980782412916 11.082400651666738 -1.3182007341365363 2.3346241482544117 -3.575040784231933
Ni 5.689859802133617 4.310413387731444 10.777785105324597 0.9177802131216646 1.0181491385597305 2.3673056976478324
Ni 8.032186381212563 7.824881111396169 7.608840336499462 0.13628877926312657 0.024564062492609305 1.2895429611905274
Ni 0.9189447122919806 6.127230272264431 0.14027354258914349 -0.11257112393121257 -1.3619773650018543 1.849446697307118
Ni 3.7701083211805395 6.518476217409209 8.877164626142154 0.9327437764100323 -0.6438152873295815 1.5854216563365664
P 8.328792964049857 1.0844081787889024 10.348538862771722 -0.23155175093319477 -0.18740873786739337 -0.13269232016111987
P 7.635215023912616 1.5398429856205167 1.943707512406292 -0.769502636927778 -0.15241011030502138 0.5007621927594279
P 5.1203608023162515 6.819334343926083 3.4291581377652114 -0.15779502876601856 1.147045739123844 0.739020666288837
P 0.1481322848839788 4.345710648146815 2.172144843885175 0.5133145755031419 0.17660573371461843 0.022326431411342194
P 3.5767764582577035 6.590591846089754 6.8513749218828925 0.7372658883812592 0.3190481912839666 -2.3434047226605195
P 2.054941122088925 8.735911338931738 2.3672708582407944 -2.1795385479997558 1.3216079600458723 0.4644990966623356
P 1.6949676426761806 3.618923427934621 6.892775509447174 -5.482224174128887 -2.2498628474466154 -2.3447571229233555
P 8.89530643541667 2.1468028091924163 6.17115155283696 -1.0174410567491123 0.48817381457145603 -1.04557689575338
