# total energy = -381167.0854570636 ev
CRYSTAL
PRIMVEC
9.24255403539150 0.00000000000000 0.00000000000000

0.00000000000000 9.24255403539150 0.00000000000000

0.00000000000000 0.00000000000000 13.52741208247327

PRIMCOORD
 96 1
Ni 8.538918444054847 4.294044415897974 2.211204352037664 -0.03225526048927993 -0.857361088603659 -2.0519424114146205
Ni 2.682669808765094 8.488269247659877 5.338755259210689 -0.16042629574127854 -0.5551248266707085 -0.1811162199904623
Ni 8.779529854593212 0.5409685392038046 3.1386706239947024 0.02472784176398322 0.7095272848154104 0.3717604340760178
Ni 3.1699834729849425 1.2459887164244254 12.742700076742368 0.33611003186225985 0.6984651134639778 -0.19776565562168522
Ni 7.341046464205642 4.059283542096473 8.25713237931576 1.1926735642652877 0.8539875441457357 -0.5051832046452589
Ni 5.390849066809406 3.530138078080341 8.875930617972625 -3.151289044690289 -0.19492432951814817 0.3004082075852762
Ni 1.868899891649858 4.595545772759343 9.742739855969642 0.21142129873190682 -1.2188592215217202 -0.1751605166276596
Ni 3.1278928816742324 9.577134544610857 2.8184096551036126 -0.3846815130130601 -0.9723163964963317 0.7408494919674596
Ni 5.0668698184092476 5.853411171185144 12.314815111044423 0.09464770668357247 1.5866591282880933 -3.1975676160418542
Ni 0.36935279492245515 4.218107591521866 -0.07510591876371578 -0.4505626890869015 -1.941509931092966 1.3014474259375974
Ni 0.9964674837465068 8.36107321831908 1.3642934087338434 0.38363198870262316 0.7666841936423763 -1.5949401373499628
Ni 5.309292769548601 6.559496090636549 5.229805880147802 1.3345364951820822 1.1086650824631166 -0.005494961676300214
Ni 5.984230281727918 3.895792002857309 2.7148301999650823 0.15822080344952752 -0.04210927046522425 -1.143052815914367
Ni 0.19169519303464724 2.595087366239778 9.174399492838155 0.649462972533662 0.5033721195784492 -0.9827795008111848
Ni -0.34635824461022063 7.525167384166261 11.33562011237509 -0.2517382531833987 -0.521086763249393 -0.4787527783678723
Ni 3.708870589008429 1.36408082998985 5.32455130209029 0.12978003161033133 0.47215841297980626 0.45491659518022304
Ni 6.539033075888655 9.053858102439762 7.0734301591368345 1.4410459863002472 -0.262537914902064 0.10125158515333531
Ni 1.2697605655353492 1.6207835271931137 1.9854993327302848 -0.6186580713376636 0.19730825636929245 0.4812241227265003
Ni 8.574206515557766 5.9915688696727365 9.684220624769871 -2.33155399396952 -0.7055927256476945 0.772567649006347
Ni 5.471730657621884 8.99621229260118 9.418231009220317 0.3467885946220286 -1.9401331053500974 1.8953845974898131
Ni 9.096715825739667 6.361206335261061 0.42985640248463575 -0.24164050262776451 0.9732900732635108 -0.21976632826249246
Ni 2.6655248709343153 5.181653097611643 0.04309155991829686 -0.16222735350575931 -0.7674809785120589 -1.0838233408290883
Ni 6.836449223843714 7.575927491210271 13.35973945735654 -1.0993312066567003 -1.1711398039585703 1.3084161439459465
Ni 4.065975151255224 7.405642674717402 8.119206668935744 -0.8316037771338969 1.2157445871521384 -0.37663781677297714
P 4.706428694137163 8.516976620653084 6.182284351974197 -1.2352574603740856 -0.22180392751781156 0.37202962857700445
Ni 0.6663548764544318 5.321622336700224 11.5192816773976 0.21817687228818555 0.9745591697839217 2.042522917872934
P 5.257303402811064 2.352590474667731 12.938550722094385 -1.3856438553808588 0.22583516016439173 -1.2530209550050937
Ni 2.770843774751957 0.34157060159332386 7.427956048793448 1.8575019635114265 -0.8423322192949945 0.2901379360075197
P 1.2324945874578823 0.8527540859974152 4.459284646370336 1.2084681080953832 1.3137509258952988 0.5338196374350291
P 3.2203184225409656 8.167136705918415 0.9431823109260179 -0.44136996684403984 -0.0057479582273707456 0.9273886827457061
P 8.220780489837466 1.9045576653162435 0.998697712047621 0.4211495260321069 -0.11327046399108233 0.2518737503199985
Ni 3.753447427368454 3.7660265434804163 11.509284930897456 -0.6353183056021638 0.280990979400929 0.10912713124667012
Ni 6.51931870802178 6.759384807869033 8.397222695862876 -0.5330632188849788 -0.19076017083812952 0.9327540608226775
Ni 8.345823004076069 3.881234980170799 10.660953407030513 -1.25922811225707 -0.030122787527309413 -0.6900594058987859
Ni 5.491398812718325 9.078665117608393 2.44994969090593 -0.4455917182348713 -1.5648098936234858 0.07782575003022726
Ni 2.1066738380836147 3.9462563481705453 2.8924988929177946 -2.69045351292247 -2.1726683032424843 0.39241153466746614
Ni 8.803699133529863 6.531814641146963 2.8982477615597046 1.0713334358921935 -0.15502157978593947 -2.083917421659321
Ni 0.5298395798280413 6.050499394529365 5.956173584542412 0.4137887147916615 -1.1939858553188083 -0.3288644060434401
Ni 5.010480995926454 1.2252761527161904 8.091570507961181 -1.599885140060064 3.2752966925932174 -2.2984453843410093
Ni 6.187390863107083 0.3589336637005483 11.70839450082043 1.1383458973570009 0.3005254498894308 -0.9460839451623643
Ni 3.9024928545701476 7.166491587724731 3.443362510526791 0.07251076557521705 0.05338690026157257 -0.17178388684594287
Ni 8.716837610223306 9.191655341317974 5.5380552257478515 0.9418933041197842 -0.7882727184464295 1.3076903215235156
Ni 4.920911404272503 4.3135924177912885 0.19057684399015976 0.16901737984439924 -3.6956419775564737 0.5945730053640018
Ni 4.8222933521677 6.443511279402887 0.9551717520872506 -0.9822480537877469 2.018427567486627 1.8346636254606725
Ni 1.8188699463786955 7.480646001130756 12.59630726256355 0.4335440430417179 -0.045039556738141785 0.34189681374736597
Ni 8.65617872775247 7.394246605528534 8.035404431031877 0.5180176374057659 1.2562739147247526 -1.8814188793383406
Ni 4.9114932416581825 5.543887277376542 7.214100908080594 0.456626121672162 -1.8935899674832355 -0.3887685385982402
Ni 3.875633992394275 4.535265835006061 2.180348085219305 2.462640660206417 1.3783696903169487 -1.8914415536816653
Ni 7.474379549459991 4.505514053401059 4.215993819402245 -0.39240510690956293 0.31387153217903363 2.701597445354431
Ni 9.180841553036565 2.9340672799226075 3.955672662274048 0.7228859655105034 -2.5175172576396387 0.5614206869817493
Ni 6.240433881010501 0.7658962597124944 0.31922395432256523 1.3125437929610748 -0.284618034630555 2.091412701595101
Ni 1.1110474267589954 8.189577627240856 3.5608751159509815 0.9742917750551479 -1.9307616914375265 1.2726289590440083
Ni 7.5520354888962204 5.3678535922417625 12.178350648465509 -0.16494963753292882 1.3093144873904998 -0.33456634152422376
Ni 0.23786914474084964 4.789223493645583 8.029154615958468 1.2666192625148187 0.31968659619891393 -1.2208176307996714
Ni 1.913966585376477 3.8003903595746675 5.404579805160568 0.4157453242974002 0.9201808521433572 -0.28652759294844204
Ni 7.288493301668818 3.116681663567098 12.882209036637434 0.49888528745168914 -0.4795673038493676 0.46144256922419885
P 6.226634747759097 5.139091136042513 10.319142499030935 1.591887209456252 0.22983862489683 0.03805489789019253
Ni 0.767883408841129 1.4078720512525078 13.095779506684417 -0.522876508159964 0.7587744518769964 1.9218533332043033
P 2.3418228991567567 2.9669800150252508 0.7834829916286162 0.21724973248822585 0.8833747390586013 -1.395303747068126
Ni 1.267810386623061 3.0623816583078924 11.615082599016786 0.8790349740326667 -0.6574837859556095 -1.3640859267044247
P 6.978747586562137 8.757440150326063 4.101362118086871 0.1651291005335866 -0.4574874412311927 -0.3884178401270407
P 8.619300936946644 1.157343380179142 7.745336113575722 -0.6286396080304076 -0.07040657474802067 -1.4420998814860584
P 7.2104306898527755 5.327574541532041 6.525447445636654 -0.33043072208929547 0.13120519409263212 -0.5210140010299285
Ni 6.37757489854856 6.54729591924214 2.9049846592334814 -0.4296084554327375 0.41935232492236807 0.20946211812300697
Ni 5.765375843509581 3.1493078794930547 6.154404187571747 -1.0704919138275049 0.8694038787008059 0.5334799947074232
Ni 4.218699114983414 1.7895618073698545 1.3880208935851512 0.445849085661316 1.4104285185247063 0.3480759459748844
Ni 6.942951174584451 1.9405851411460961 9.397952845554157 0.32724846770657184 1.1308035662333686 -0.749080364517684
Ni 4.361468847960255 4.65495691042848 4.349333374444454 -0.49978337378592635 1.1854194538060359 1.302308488386312
Ni 6.882588053844387 5.3068065224992855 0.8287336121815599 0.677712968518291 0.23309955503628887 0.6485165494599928
Ni 7.771823425077311 9.188633026131631 9.380489039607388 1.564528872047957 -2.356514777679916 0.7679458339636194
Ni 7.077513519532327 1.5110097123056951 5.253560168405961 -0.35107873735695017 -0.12345486072325192 -0.8767510630944966
Ni 8.49378705244962 8.935839929307031 12.771378797817908 0.08075012276587383 2.2491586222907394 1.8310463404230595
Ni 1.3243840601875883 1.9089478785074134 6.532306345024374 -0.26008893914093917 -1.3747979138052904 0.1303634149176271
Ni 6.539190199308129 7.475969268762899 11.21070791814911 -0.17621389759283848 -1.4300699469047178 -3.1228739838827058
Ni 2.676338659215723 4.769305789588802 7.575148343900764 0.13448720727801355 -0.3973475385165028 -0.018006463879749635
Ni 1.1073596476784129 0.4582486043834874 8.947734172161171 -2.0902153388528903 -1.0105139906119758 -0.10598909983832068
Ni 5.118175236144371 2.024267225846836 10.75352128323018 -1.3881154568498029 0.00348153079069723 -0.40051385205962636
Ni 1.5835545193319938 7.2107819069080685 7.540571949062519 1.8934051051659389 0.503757527942326 0.6007256552289589
Ni 1.4511087192699657 0.23682011485201224 11.275747771257029 0.17735186785202361 -0.3764946063268935 -0.46935282521021104
Ni 8.468434726589877 1.7194108218520043 11.098619767718388 0.41520744951605915 -2.1836389433213745 1.5174866830574898
Ni 4.437322489349583 8.275043524880324 12.735450217316783 0.4583726720496235 0.3694528689887637 1.1904703859663819
Ni 7.857002803540092 8.375084930314475 1.7102301928777117 -1.0201705398651335 -0.47281095896214054 -0.45415374887226945
Ni 2.2751563565295823 6.383342252298643 1.9838892798083865 -1.062380340463964 0.44797744485822844 0.24507601067187468
Ni 4.2591630167748695 5.447487438252541 9.607777308429814 -0.5093180527492389 -0.1812684292976104 -0.3972444372797352
Ni 6.900989979030954 1.681118920270917 2.801040123208528 -0.6978279941006111 1.0053908104527975 -0.5164312667552524
Ni 2.664905619810508 2.354845657864879 9.201088292018833 1.0309298352641665 -0.29637388961490246 0.07446557530874272
Ni 8.61436541306436 3.073093778494347 6.28267142893119 -1.2043479152794225 0.6610262518912292 0.8706930298258746
Ni 1.3713362349478886 6.898272668129472 10.059227090027145 1.9426414735942477 2.6529773703538826 -1.974808802355412
P 3.0233688375080447 -0.06229019326713459 9.68886038692138 0.7672482936759626 0.07223360065443044 -0.3079831917190567
Ni 2.895202339988146 6.088051891783519 5.661532975579581 0.5649667524617947 0.5868437550405442 -0.35583913486007107
P 2.8570121065020118 5.880880041930737 11.249355658062534 0.28806048465320067 -0.6661671726622205 1.7411358913141561
Ni 4.093508719879424 7.558070876714818 10.62425399751856 -0.7765178919033465 0.29589952108164524 -0.07409096557814336
P 3.470440421234518 2.7512588026422966 7.119125346541348 0.2054774224436461 0.03335312153914901 0.2881286188869748
P 0.6419378970682583 4.93989561036653 3.8891170302959135 -0.7498192995662377 1.738804157857186 1.6023186892022212
P 4.595545772759343 2.6835108811869812 3.9412524293880202 1.0737021932346864 -1.4001762446690789 -1.2091211682983498
Ni 7.986259922442218 6.702007032098965 4.881014995301969 -2.528969465340638 1.832328806679909 1.4258098860767832
