# total energy = -381170.55607601086 ev
CRYSTAL
PRIMVEC
9.23176375575309 0.00000000000000 0.00000000000000
0.00000000000000 9.23176375575309 0.00000000000000
0.00000000000000 0.00000000000000 13.51161941752314
PRIMCOORD
 96 1
Ni 7.768722965230553 7.388586634064369 2.2803425511699427 -0.7319017958558686 0.203937588760352 0.1551917868152166
Ni 6.863816262040896 8.019531519644982 5.161843702554695 -0.6688753156220029 -0.3755425268262693 -0.27086083294546254
Ni 1.2328004839498037 4.380554930309029 7.913133597407895 1.323242924546134 0.6719416132521524 1.0909319268494115
Ni 1.822968669558076 1.0725186037325152 5.556355736052082 -0.5647957741015692 -0.5281850648570711 0.75784576941514
Ni 4.842383137874406 1.9214438922442767 8.973565976190493 -0.7155115274233033 1.190712069663543 0.5012098218198078
Ni 2.749126892633703 6.460775925298217 8.751948258387461 -1.227378314736325 1.1251612803459266 0.08685289322950204
Ni 1.5918976257936057 8.603449801272887 7.391558338778224 -0.15226150054229906 0.2848453201500127 -1.2735252456060326
Ni 2.619817579409215 5.093016288779784 3.7484477656868695 1.597687618188113 -1.4133559765841466 -0.9186507886520758
Ni 2.471970884807218 4.026969151354855 5.9997268785835685 -0.9326527593581229 -1.4496175300193421 -1.4873996338641222
Ni 6.763531613682388 5.907340927190497 3.713127961198716 -0.47438807364127333 -0.4064664700986355 0.8588250747436951
Ni 4.31946835034141 5.290972996388316 12.818973108974824 0.6709396543501994 -1.3462987779243332 -0.40158188831282454
Ni 5.9550414498885 7.264428644947775 13.399310389489017 -0.923425841443216 -0.4676582111166075 0.8210871938732891
Ni 6.413075402600215 1.7805856427133822 10.941357937760358 0.5846973981215027 -1.8812435301027408 1.0263167619721874
Ni 7.991568507596935 0.7737796557055924 6.044490777269526 -0.6386483984166613 0.8510274330761473 0.6883496222965306
Ni 1.3596818433384925 4.848051440745816 13.177679747216898 -1.4723563663777546 -1.5340738979922095 0.04405636688926606
Ni 6.3193176111310985 5.44316785166203 11.734976653515885 0.7993523732993588 -1.61027496793482 -0.003143944945620392
Ni 2.6623944732902274 6.475675991803844 -0.03587647983529701 -0.2222638978733656 2.0866191368612 1.280588580210717
Ni 3.8404875259436566 5.145489633276678 7.1538755058989265 0.10719597566222828 2.750302366759302 -0.18568815563186086
Ni 8.426356879477689 0.22497069435497913 3.5443814769052127 -0.39421156399068236 -0.5428508943993618 -0.8929862940064363
Ni 4.589469741351377 5.2841230277717255 9.484589328986251 0.134286147010801 -0.8240398487437097 1.0394772106135453
Ni 0.3704605197011606 2.7529580745419033 6.856917365077045 -1.1963931792087201 -1.5645612679477896 -1.812231007488769
Ni 2.889551249273789 3.0681581803049998 12.680721909494231 0.7308646128406058 -0.45723033091506415 -0.08028680997621011
Ni 7.9967475269957315 4.211022822930254 0.07075408284537166 0.4306073290108971 -1.058487433167461 -1.2873151003012733
Ni 8.27533445818552 6.459095744316789 0.2497339771274048 0.9270351560610293 1.3329832917623496 -0.8649790101602328
P 3.183582921023625 3.5387565633228837 8.365083817884658 0.6977588314255725 -0.4859320697251308 0.8872979853724072
Ni 7.65227349874853 0.26477898232208946 1.2936784260592893 0.7315163874919918 -0.42629250368562716 -0.9810059538505297
P 0.4868776750104635 7.9238350578126795 2.892607886213079 0.662633191367033 0.6921831371100079 1.680511849874196
Ni 8.912612333619206 2.132786657122424 4.525041262948171 1.1145282261121128 1.4842927128040242 -0.45617772128083367
P 7.638047350988201 3.5629530158081684 11.480944367240388 0.5502284178103556 -0.04923045489103779 -0.057474440067384884
P 4.990912982985336 9.018020610794704 9.293102241332582 -0.319956562030849 -0.7071937515862272 1.0290009936725697
P 2.772427864046469 7.194230314273183 6.223073705715288 1.4260803661293504 0.1116000182671949 0.5219876777971075
Ni 5.7991538891611 5.722641032160703 6.100834077081884 1.5589156396262378 1.0043669971739735 -0.1710853181170215
Ni 1.2871109494099067 7.701183382482616 11.778470261525776 -0.398301674899656 -0.3954415797430415 0.12607558617555062
Ni 0.44699553293427935 4.376086756710068 4.699529904222158 -0.8514678630476755 -0.24572932798515743 0.4102902147200998
Ni 6.614106287498939 3.292923929507299 9.429921594273504 0.4805150124746176 2.628593027972247 -0.41214809386444506
Ni 7.7344361950930685 7.236770281099658 11.582686711076738 1.3418078320325149 1.5077149483827068 -0.6260664479865928
Ni 5.0569200929699925 7.3912084549364865 7.745995286339472 -0.5188668727799387 -0.9080951246234167 0.20231959354095477
Ni 5.42522130315711 0.8130912747891818 0.9978290200498766 -0.5013383769778721 0.1533447063041488 -0.6612468525424676
Ni 3.240450585010406 8.576834626715439 12.91508130746521 1.6064648501601109 1.7399017617967392 -1.654982081034208
Ni 6.9982492040823745 8.67807014672827 9.659307841174732 1.4859184213329053 0.12169596905061622 -0.29606587145618046
Ni 6.53001415255485 -0.006890588376580127 12.45587492077195 0.7612301125063405 0.8220323313953779 0.0669317288255428
Ni 0.32403674991376974 5.6882711761505105 9.406573540866205 -1.0162820034440045 2.026865156731019 -0.663126843174
Ni 5.84623588369561 3.1920392165125677 13.380773008111507 -0.3289536233231367 -0.3458938507219011 -1.1286458964604174
Ni 6.909688895539324 3.3777084467239553 5.374408752938011 0.4206363338411143 -0.466047672096378 0.47402529098521584
Ni 4.855298375198677 4.263810047390712 4.518879983898694 -0.6854072518387551 -0.4348838448990639 -0.28994973125611356
Ni 3.7672888720879443 0.32594126275150886 7.780747337364121 -2.48418804735989 -1.3546090975622413 -0.5000173441736033
Ni 8.27889791894833 1.8316280638469722 13.095839239423194 -0.5501348296552848 0.29374596507375217 -0.5773023912090122
Ni 2.9916083962500664 4.490763724574321 1.4042084856990515 0.6439662110851491 -0.2807654936536842 0.1604682047228075
Ni 2.4787562310783677 8.532697564780243 3.767012842355281 -0.01734389059508626 -0.8423461032520655 0.8726216143071552
Ni 0.9630852776124981 3.0159894840080357 11.07150180241738 -1.2288605557088064 -1.7134276267656103 1.4839849517556183
Ni 8.390408391886044 5.063160765186724 2.107704878504617 0.7252778627814477 -0.9411587399466049 1.842972402436684
Ni 8.8934010334964 0.6519554564357282 8.333223155230247 -0.35607156258585126 1.08462681056699 -0.5168994646409226
Ni 1.4077701001091327 1.0800978816762081 12.645348560777 -0.019296643446082895 -0.9852639577959353 -0.2870415564703831
Ni 1.2332713038951488 6.24742063594781 1.9415654442614176 0.5134408166683608 -1.3542545424363 -0.14191281031812333
Ni 3.2127368305804844 1.5505947152941155 1.2486357281115774 -0.8219960788408038 0.5795045410666535 -1.3052117780760362
Ni 4.183170592045819 1.0871140220382136 3.251705951233244 0.6645797735704425 -0.7078709801589099 -0.22442208186694895
P 7.465274894573816 2.634994598823869 7.491058287227823 0.5713466878462096 -0.7981035884939223 0.10952359535414041
Ni 6.049408537757475 0.20785777410622971 7.239958009082554 0.862959665737359 0.9510099217090717 0.04160559135592835
P 6.985998653739768 3.6770114555089286 3.264677502315683 -0.7335596431742657 0.7594090001372017 -1.153340056772988
Ni 0.9685135546294181 2.6312003439702054 0.7930343451174804 2.139281500251922 0.8513174535127402 -0.7124835392302568
P 4.631649669396118 1.2034804026475283 12.201870329787358 -0.7607470022223349 0.6622686089387627 0.88719154170153
P 5.768744459749986 1.294957948498992 5.059087711071307 1.6668446367997487 -1.0620059878436807 -0.6442875989803097
P 1.0035757929121771 3.911045895399983 2.6145120848486303 1.1318654318389798 0.011373789054580412 -0.0886567792074602
Ni 8.898293868222535 3.0066007803920365 9.195346173033485 0.48287477095604575 0.036579856006562814 0.05481180563355721
Ni 3.6586402458768355 8.399658619047532 1.7107602752896127 0.8754660257344857 -0.7550239836956287 0.15110578967130103
Ni 4.82764001135056 3.4348715271470316 11.14836915914133 -1.1639941940527243 0.3359069147125183 -0.13161091417148302
Ni 4.5638885243209595 6.805434588818103 4.461657820188359 -1.3692178486143516 0.24884499079600367 -0.18676030565011706
Ni 6.608834950463801 1.4995061353423544 3.049680805391113 -0.5148268983826101 0.8881796166464123 0.6399308646735108
Ni 2.204028177087682 4.690936055455063 10.643778499245894 2.075801477420405 1.7711239530358143 -0.4404561967805189
Ni 9.158075696889421 5.34568042768469 11.528316239153014 -1.231815524572072 -0.8296875339477904 0.5891379503913596
Ni 0.6101724942272586 6.519296074975522 6.972792615861019 -0.29810758447655755 -0.8326982957496563 0.7583129388595456
Ni 1.7465758254849242 8.658517271350997 9.625298947122635 -0.2759930119657053 -0.5950188346521689 0.39224055630724064
Ni 0.021247827180515568 8.28030114702073 5.239887185965644 0.7829960434285225 -0.5641866797626606 1.0488249703770323
Ni 7.6607020989465715 7.525345980541672 7.278884663622597 0.06362734704265817 0.012191656970185455 1.0441373350933758
Ni 1.5460434558224463 1.2472297305100861 2.9879729277309117 -1.044415528455427 0.4430111019918887 -0.7287627360062546
Ni 4.2781008174964805 2.0203437760576515 6.209089430162175 -1.074788998540962 2.5455772491006483 1.4203905148334248
Ni 2.775991324809277 1.0982382972174458 10.580043326291618 1.460114315785608 1.417555616487791 1.3578399457947132
Ni 1.3727817159354474 8.461696070669474 1.0401446550200404 -0.6651557006785707 1.138670113465639 -1.1490422007285823
Ni 1.3599495644838848 6.503500527397377 4.803948536336067 -0.07947048472250184 0.7566489208935614 -1.3163762793332876
Ni 5.45159645186007 7.668576793326559 11.036034289711079 -2.038377528245993 -0.7322069858011132 -0.23900589321839483
Ni 2.001797162916508 1.67670060653753 8.314091248274693 -0.5609252354025694 0.8545791549831475 0.30332898077649695
Ni 5.180256455123142 3.141716872942447 2.0296881672082066 -0.8147584234417838 0.41939809055863897 0.8104425696752494
Ni 6.245491197348259 5.4469251794611555 1.3231932975742469 -1.3002755171166833 -0.6642452730491591 -0.11260891914768348
Ni 8.679408752455231 0.8219177639998574 10.879677755391059 0.7585492232400678 -0.4971060840640793 0.01759945824931808
Ni 5.5840168694292895 3.7848199912293237 7.397774085233142 -0.045376371252270245 -0.8624966100580114 0.3639139414484055
Ni 7.754035229288513 4.996045843565961 7.271480789187954 1.0419200157270831 -1.2954390149599884 1.4262001795366663
Ni 5.715034058926107 8.62230106261396 3.2257637722447288 0.17308177972175998 -1.4586189621870038 -0.8460975998746977
Ni 6.80256351032786 5.8631761699644 9.31268096564803 0.7140339144365122 0.8879734141728771 0.07445606222704595
P 8.150733344414483 5.893807161702734 5.451249337547424 0.20857791574584078 1.5699122478470575 -0.5573645146345046
Ni 4.1754343741203455 9.106128562919679 5.56377438130854 -0.27288146291991716 -2.298709693745989 -1.3027417192689885
P 9.044469613606738 7.949887094788442 9.101926264113382 -0.23996902846261253 -1.848872827081519 0.29001323750419733
Ni 3.008853330718785 2.5073193077626375 4.306261389286298 -0.8242254823919547 2.4612494362858452 -0.4646703321328772
P 3.4067792704081072 6.6853385757005634 11.24120746695248 -0.36581784333933776 -0.1857436914601446 -0.19723369437761515
P 4.449220788220341 6.399440087712474 2.2312951141577075 -0.23206777133766482 -0.44787742894525445 0.20164185074763982
P 8.856843249504896 8.799449374990965 12.93671317601291 -0.0495155902316244 0.2825274706501134 -0.3123011023681202
Ni 8.500792589660387 2.5184805099964067 2.0870451146676015 -1.330934636763437 -0.22094235084846464 0.9213615027150196
