# total energy = -340857.09678744635 ev
CRYSTAL
PRIMVEC
9.46068393314004 0.00000000000000 0.00000000000000

0.00000000000000 9.46068393314004 0.00000000000000

0.00000000000000 0.00000000000000 13.84666723673475

PRIMCOORD
 96 1
Ni 3.0425938515540163 9.27450730447782 3.3160142447257654 0.36689307868138754 -0.08992664705881932 1.4054400641711795
Ni 9.112038976307968 9.51555607484058 0.502250690010292 0.5632027185828364 -0.5826561993217578 -0.8074822014953448
Ni 1.111620921890727 1.199189013985303 2.454889532347067 -1.0015999759517975 -1.4748781043583439 0.02551331377975606
Ni 3.978293352474709 1.7988260940564358 10.978496662840257 1.6799629193492613 1.6253241489584587 2.807215277896262
Ni 0.5797791041304983 6.302802358937703 5.216205892578455 1.9771348793854273 0.32629433132341873 -0.09036270615497341
Ni 8.767036208977274 7.525709307979304 12.103233877176955 2.664223118471031 1.324988446482331 -0.8128951449808001
Ni 2.6050372116043476 2.5452078453115536 9.2308528698028 0.12015484981574145 0.6782940378327414 -0.97512378403814
Ni 8.49540104689652 2.3259470304472614 0.9641723758091795 1.3121509283980304 0.41962229075430313 0.48744362127365076
Ni 2.3464861756436015 6.006124766025668 1.4058936089027585 0.56740441536901 0.47771482402166116 -1.6310584803390746
Ni 1.1419897178742606 6.872212553286907 7.909119614579267 -0.9672901469263342 0.25856684606945796 0.7492567421945483
Ni 1.8099329371980772 7.116231978459272 10.325584578425673 0.5019305020359163 -0.6287115989189237 0.6012632728999839
Ni 2.19420700425701 6.745146105045524 3.5416733202516353 -0.03195881229478367 0.18741567984592886 -1.3204129112965066
Ni 4.071954125134206 5.127851617634585 2.846833376011561 -1.0088911102965723 -0.38837901646930534 0.7313446378008179
Ni 4.094432710572485 7.5516505038007535 10.410049566133146 1.5111777101203265 -0.11817895703629325 0.8971658793054226
Ni 5.644660408348759 9.459227161667382 3.6477247508860957 -0.8054525726598257 0.20867330367312448 -0.5170095078562257
Ni 7.464243243335996 0.3965010551988453 7.525165318643151 0.2376828035315971 -0.38612441610717374 0.3603761034984761
Ni 5.988631961111787 5.978679321431203 1.4665971424070408 0.3803000961159128 0.14838144876160253 0.17632496924940602
Ni 0.5888055428370059 4.38619074774887 7.72397591874171 1.1310174820163876 0.5310819267888918 -1.2943660936107837
Ni 8.753658801649948 0.8119083415171591 10.123949018052759 0.44091925245986646 -1.371462164563838 -3.3272743712120887
Ni 8.901188709614816 3.902863318089439 4.6216851504723975 -0.660653699043159 -0.3467284308080545 1.5035291924361331
Ni 0.23307814400259486 1.7532445180288143 6.678898610654529 -1.3738350356713886 1.2880247247737882 0.6241270648720347
Ni 5.025874903645018 0.38833459267766574 8.818720872322334 1.1460260396100779 0.07886910369307706 0.08340452966958539
Ni 6.47859133033024 7.744818751897886 9.47930367941089 0.03094425498734025 0.5657223996808967 0.5380509019075572
Ni 8.579818731183458 1.5824791698971057 12.023573970927437 -0.7327942257631509 1.345374980558483 3.3524151321437747
P 6.909194367461248 7.061454617479626 3.3013085573498135 0.7003715864580713 2.1660088889444373 -0.33795428415985024
P 1.8088165764734487 8.059897375398075 5.060860513472777 -1.5735256762299286 1.5629679553187406 1.4011512069878385
P 0.49950141520879193 8.011070784721745 1.9346976009962231 -0.5025995030784829 0.5190005701443255 0.40885913870052815
P 4.116627475487554 7.33341144282002 2.551373373144099 -0.6426449211705642 0.6600749437215535 -0.5804589345601229
P 9.507798313872822 7.940437317178734 9.843347019575372 -1.4587133216730233 1.5970075614019528 -0.5416123940065705
P 4.768118565149263 5.504235474148264 5.608302053257071 -3.7261900255466602 0.36705917194560655 1.2543126772333237
P 1.236889840151777 4.323447490751114 5.63753178287412 1.1599547338760279 -0.4574691863987477 0.6179276209295422
P 7.577203811573814 7.690627953332875 7.509574111234783 -0.14494876893096975 0.7053286733530304 -1.617842238759117
Ni 6.813471165666422 1.8933383282855643 5.642171302360203 0.47345682007625556 0.4407261626124539 2.044943354388969
Ni 2.559247500526371 8.693451007992874 1.0747602044729563 -0.4267858983822778 0.19907743245457327 -0.7209702365450292
Ni 5.011977158691806 6.953167627190677 7.580898208717605 0.0344466117136439 -0.417580577733926 0.06142648273659743
Ni 6.425024936916293 4.642414455419289 6.13980612459468 1.5601412845032228 -2.3271720628517407 1.0765820858856427
Ni 3.009292243497306 0.21938948016814785 10.182340360361286 -1.814657871762707 -2.9400927174849945 -2.3356847283084416
Ni 8.002792686128103 0.23635910925090936 2.6041147949039134 0.2519624533790628 0.5364881854061276 0.22383689878744029
Ni 3.772637001356311 7.331443620525759 5.181381114380514 1.688357828281176 1.4070765713333382 -0.06562123754423538
Ni 8.095488469008682 3.526753821414865 10.321070886038214 -0.24234755599711813 -0.653045804788914 -0.07834048488311669
Ni 0.9757844194821357 4.461223433401645 9.96496222163429 0.3221566550059613 -0.08192717379311051 0.5703295594356048
Ni 7.887694003282099 5.521718818378036 12.616543160839942 -2.6562051332625614 0.010880908578561905 0.5955094011353421
Ni 4.1973649536568605 3.60759536710935 7.227932383574034 -0.4125833816296507 -0.5318252327128196 -0.7130707791922946
Ni 5.634187431042289 2.333364206787165 12.777732404518526 0.8527631848203314 -0.16698980789140916 -0.6799693686526355
Ni 7.411490468755254 2.635992570002516 3.5054086259326067 0.6804247110224991 -0.2937253962484619 -1.7465326368496954
Ni 5.13342396057362 0.06365905121931525 6.215201154448753 -0.41486112192023383 0.09845808156859817 -0.26520054933589166
Ni 6.3067569248944375 7.429456307874485 12.117896991474426 -0.6364876433199167 -0.1293902523710804 -0.43405389279860085
Ni 6.609177153059435 3.7538764647720906 0.6226085671513879 -0.1941206026699302 0.27001982510140593 0.895131365373897
Ni 7.443609491298586 5.84456466353009 8.438159177706996 1.0907560633931797 0.1453876562406012 -0.5019654690389097
Ni 3.1067940539042533 8.22847730550106 8.307321700780554 0.05606650397626473 -0.8269536799563951 -0.810681939379565
Ni 6.338232620918492 7.203232429507426 5.540051732040619 0.37243997664154566 0.3230855945781339 0.15781354070877981
Ni 5.043462315399969 3.6794965663227006 10.342809645979324 -0.15965959277858308 0.3063281726141369 0.7682919044491284
Ni 4.119758961926976 1.6021195501032788 1.0252656894986711 0.882546329620035 -0.6042184988735659 -0.6455744361125333
Ni 6.632743717170021 0.8417690987641459 0.5125287772241583 -0.10583226254548225 -0.2773433553460127 0.21481386935322358
Ni 5.881499174283895 4.434742978586096 8.423093984334978 -1.227002676564461 -1.2338076153014363 0.8730887837515608
Ni 9.595498855544898 8.720934295323767 6.519509735161511 -0.8879885836815288 -0.7832269284924059 -0.4190337652406848
P 1.815136313456938 7.219712941221855 13.34990417255857 -1.0570535289344116 -0.7315850359463982 -0.9286935176000587
P 4.459000172636495 4.378991167143428 0.9232085596941942 0.8817737131200685 1.2422521465243637 1.4571446916343227
P 8.214361964813389 3.577907740381521 12.985640398454395 0.9966899402446898 -1.8676915024499188 -0.39478466288533304
P 3.9061745575268962 1.5016187028344068 4.824996198000666 0.043656046127053844 -1.0504373091694748 0.16441099142063942
P 6.235527434252685 2.120602881904395 8.007043371497387 -0.3443067087404393 0.9913618431635571 -0.43233228212180386
P 7.863266516917774 4.95742685413073 2.6880263325911256 -1.1188703051308924 -1.2741721351614121 -0.7440219761581702
P 2.319542147306809 1.5192439573257848 -0.04218802863843368 -0.6910845047291905 0.03073368163843094 0.8045449732438917
P 7.526153960132334 9.16479175088871 12.679531449556071 0.40607154865306194 1.162043755194573 0.21079317822960472
Ni 3.8803847326511605 6.814010424660522 13.15549752091183 0.7760121559115215 0.9478328095326709 0.26859877638416324
Ni 8.354824741750312 5.761339025440636 6.293476962613414 -0.8463297704901618 0.6340736345617853 1.2105239621831474
Ni 6.032264636213363 5.257444068532543 3.9926726462489683 1.5489891245411451 -0.21584025373520893 -1.7499935988151023
Ni 0.6244902972202742 5.228002419591498 12.252127069721645 0.6768056262126732 1.351073830715473 -0.32895747997787866
Ni 7.958450459718501 3.6537635055516064 7.548205868717387 -0.1657343382177533 -1.8210668606128446 0.36375633282461867
Ni 3.162839146554239 5.287292526890191 9.146485327141628 0.3022835702311181 0.1152774671187821 -0.7411004316360011
Ni 7.512757631436795 9.257506455137504 4.9564419969151885 0.017218934981447765 1.0087792673090563 1.3823916669921483
Ni 1.9505754671330344 0.6489423813632778 5.7067650691692915 1.9521612401592252 -0.014109957038820859 -0.48786836751589524
Ni 0.45997373094125227 4.912242626835603 0.7487128638190877 -1.362820172618124 -0.6159239602359521 -1.0458512324606892
Ni 7.71708948678021 7.3929002244849595 0.3586062850081772 0.02979188655045192 0.29745195317042966 1.0795776781788569
Ni 5.333441743964235 5.130037035663307 12.232644682940059 -0.24663821295267196 -0.3348638181599846 1.427625342018967
Ni 2.778366405129059 5.654754958290949 6.648975412892435 0.06437708072448912 -0.6504407630658992 -0.13268872061669407
Ni 1.0642796586191996 3.098799775833821 13.05058137237021 -0.2695953359694776 -0.9240819869699762 0.1954920290961601
Ni 5.348531535114931 3.131997316365354 4.496829664106825 -2.392362897726777 -0.4641106029746652 -0.502939917137037
Ni 2.8479213546838684 5.382798132950557 11.586572673134851 1.1347903187952586 -0.3070717356483808 0.03362694402582596
Ni 2.532445382451184 9.565508486925644 12.33263086899351 0.1576271357295866 -1.9915775371733184 0.8524340836156868
Ni 8.50921364569277 5.92849985292757 10.375640111967504 1.277875295044612 0.7878310029233205 0.32045741292666746
Ni 6.407390221740808 1.0103726805774005 10.932566933637498 -0.18160910046648077 -0.8453830903061763 -0.08662972147510242
Ni 3.1212026757992444 2.341878822483483 2.972436256421589 0.06232559751209911 1.0421889531177535 0.5578013450616071
Ni 1.1528884259655476 0.2845452116131936 8.548198286692566 -0.4294166511369056 0.07824046897014268 0.008514465228914369
Ni 0.43554529850851625 5.189724491694495 2.973045524478081 1.5351630172913304 0.5667125315083079 0.8443322804441589
Ni 8.86853988876149 7.877608914024016 3.956255634915817 1.394081701735567 -1.2817949418139925 -1.2937058343189654
Ni 5.326923332614498 8.216793360628891 0.9555290948090063 -0.4300090333052659 0.7346649604233025 -0.5400905580454053
Ni 3.7372445821119498 3.5038495051917695 13.182650630367387 -2.3039228625158126 -1.2102833069272512 -2.3171740710987643
P 9.946868663279615 2.4839782977709217 8.807824056367869 -1.9945150225350878 -0.4520480153831763 0.6195666991948621
P 4.758232150257426 8.94190749401143 12.40434285452472 -0.8688562337274519 0.33555570202068663 -0.2011695390969116
P 6.3370027319845805 5.646448477644986 10.509994125176526 0.2138247659670769 0.2460694849333956 -1.245019939077488
P 0.976408824633199 3.207181372963841 1.996786178653773 0.01149077424841892 0.9587548557618133 -0.0522018788145359
P 3.194891944308822 0.9293409751323646 7.840592095318479 -0.29341660675879144 -0.10021311658649194 -0.9598653152171729
P 5.7780749756259535 2.032372541922328 2.2965668759529114 0.3350221981147198 -0.32307531016548874 0.3394861474233443
P 9.135179809633739 1.3631332088758499 4.630561164301604 -0.5536569838759303 0.03324050722068469 -1.155251671973404
P 2.2997882388913515 3.3035857440143728 11.23657088032201 0.7848271830999903 0.2441223885093538 0.9629277561925804
