# total energy = -340871.6986444682 ev
CRYSTAL
PRIMVEC
9.25293958062732 0.00000000000000 0.00000000000000

0.00000000000000 9.25293958062732 0.00000000000000

0.00000000000000 0.00000000000000 13.54261237771674

PRIMCOORD
 96 1
Ni 1.8481544205669036 6.4544066065640555 1.6710772119968487 -0.5677121764174159 0.2559301797775593 0.13567402849726312
Ni 6.138576015150296 4.434240036629039 1.3552901093997662 -0.8528164066557701 0.09117620319520425 -1.3310737334444627
Ni 0.5486817447254054 0.6670203666680415 4.913422025834336 -0.6785174666974573 -0.12014533673404469 -0.4530391756518521
Ni 8.612053354837503 2.914703770166951 11.790957238082596 -2.844596803868514 -0.9309069803116097 -0.753620932700515
Ni 2.8078230634778136 1.6227898207815485 0.4229102363068466 0.320108514227681 0.7180546055601311 0.48654656338067814
Ni 7.269895942780295 8.38473638477153 13.022047913521986 0.7014578775437146 0.4297177273170922 0.05039259351993902
Ni 0.9368601465046487 3.090565142457987 6.496837812231476 -0.8760285831061752 -1.2921269198676197 -0.41770270513408714
Ni 8.033207951923549 4.850409506350911 10.024634891092703 -0.19314538324085448 -0.08276535342368972 -0.3896044042359742
Ni 3.1077108397564865 4.662315747751935 9.675601050792848 0.03821276362429548 0.05423973518017111 -0.6087762934475774
Ni 2.316769552613599 4.009132227139034 2.034033025397257 -0.19277771548879058 0.3696565003591376 0.109664748917695
Ni 7.35165491813353 3.6937180180126092 8.03276010964117 0.08525700949729188 -0.554605978052761 -0.7926703332934929
Ni 6.043761141854166 1.5793657746823255 9.197506282004483 0.6442490324328904 1.264936218385441 -2.6638297396873543
Ni 6.716172271202243 7.513775674942498 5.842283005952285 -1.5268372710344544 -0.5109152220330297 -0.6440914238091037
Ni 4.629495570570185 3.8022920126702444 4.085765999182156 2.1893372792577326 -0.17760126485866834 -1.0497464537500372
Ni 1.5019186692379412 0.525700218346407 7.1319050021693995 0.8923226922805084 0.29847988021431177 0.04907284626725097
Ni 5.698663502110587 7.957009993341171 8.08886716021263 -1.2493121386949388 0.9570229606723712 -2.044867249735394
Ni 4.748571651808391 9.134446572528494 9.997372954799898 -0.4033248391458602 -1.8441751644955335 1.614557397360258
Ni 8.046023273433761 0.12417722690505023 1.570320100813457 -0.5952013829766202 -0.9388779143322281 -1.1144364377292548
Ni 0.7886780180877268 4.947824455707958 8.438699529210197 -0.49535104904618565 -0.33314169326255527 -1.1792459780054725
Ni 8.209300647707549 1.6126115870911275 3.1451362050361644 0.6250277223094334 -1.4404209511217385 0.6134173917640146
Ni 4.377380722058461 7.731256770087636 4.146897396020796 0.8905771703443114 0.3597137873241289 -1.4058190447771532
Ni 2.893384997055379 8.798352043131079 1.705326043071143 1.1893702109236677 -0.5218349542693271 0.26203680689592934
Ni 1.1712186036964485 3.237927460415844 13.25832635570539 0.05899010538096293 0.8797055177371301 1.5996473130176452
Ni 0.3276151354393234 3.3613246645026194 3.694194544408115 0.6293993690145676 0.9729889970833244 -0.07149158028208333
P 4.281233425442858 2.761974747172327 1.8675402545712678 -0.38734080501277807 -0.01602285779081757 -0.3544108870539767
P 0.556716072283035 6.26313908964161 10.044677683817087 -1.6968897770115872 -0.06255159747997614 0.7678859272599614
P 4.18930546933892 8.19672590263002 6.413008954263198 1.8549581140436506 0.9597550148915536 -0.9672844904993794
P 5.246139232234475 3.6831789196731646 8.72140182054958 -0.6583636174574016 -0.4158599954983934 -0.21920762754554504
P 2.7584308712601167 0.7491809196050626 9.772348863196186 -1.1951760189721674 -3.6166224643284615 -1.0341853660869866
P 0.6571373017546428 5.1636215158243175 0.3417841620303611 -0.782999128752316 1.0479628794870532 0.47046045645209295
P 7.1446944154484 1.4320682273024983 13.330047742051926 0.5197767861887178 -0.5345883972802535 -1.73504957591076
P 1.7646096278479853 8.590956652279175 3.4616542898710136 -1.4565556519000722 0.12844922861404975 -0.11877673852129221
Ni 1.0259752089341425 6.668103249364302 12.272952120962337 -1.0612536830586883 0.12123317048158476 -0.20309298137186957
Ni 5.959309561042828 5.971301370918089 3.3422358498632208 1.1732079993415085 0.10192238596811479 0.676469583029493
Ni 8.641348161986478 1.387043422631964 7.6326028521022735 -0.917761186958271 0.3915877532145901 0.04002102047762785
Ni 8.528138444529842 8.368867593154192 10.76595728899479 0.8593099847999136 -1.4628139741049582 0.6976431317833146
Ni 8.909942496136965 7.362008957678603 4.985509828593727 0.10752507686687288 0.7389237356996564 2.429051511397062
Ni 1.626176396718543 1.992898156584407 11.413605701068045 -0.9115056929668625 -2.573963770663141 -0.7448655551053881
Ni 4.095545431170707 5.689179238899059 1.789182659858577 0.5412956340971 0.851180927934876 -0.1840724744053088
Ni 5.676521217364063 6.404561020300149 0.1812946984937766 0.11758246110287493 1.2468351379093559 -1.1068398563289195
Ni 2.467129823040271 1.8519111140926408 2.9496891352428434 0.00021880087902542963 -0.9835942834029964 1.0558548806406205
Ni 2.8179457795299228 5.103819766423236 13.353016314315319 -0.008040610916289378 -1.0729298338450362 -0.08351071623014651
Ni 6.344990594392031 1.9923152213821376 1.5721614358174512 -1.514617589039811 -0.430630983159981 1.1206122275226635
Ni 8.047716561402257 2.3714636792900334 5.385138743274694 -0.43829904122819996 0.1882669721026306 0.94063706311518
Ni 5.061663373065456 2.986488076503574 12.96464082492007 -1.49678853127819 -1.333241944740375 1.3205604926179644
Ni 5.641276769976051 2.7335034516583043 6.2526110948298275 -0.9389373068152539 1.8452550278232738 0.19726043385049252
Ni 3.7515303853742 2.269653583566669 10.345810905781878 3.5365336292956706 3.2893428862736385 0.8609097251868658
Ni 5.167720568119641 5.755439540223699 7.986728585129256 -1.1279362719879027 -1.567503638405565 0.5518440990369077
Ni 8.292900958064777 3.2571180573921468 0.9897684558154 -0.01622083273423658 0.7780397278645116 -0.6670027811896384
Ni 8.756001338039209 4.88328520117097 5.645684870457974 -0.7788511680222134 -0.17912155815793665 0.18273550076144013
Ni 3.9488493248725867 0.9372580229125468 7.9372845764491355 -0.013823279036337484 0.04840255967310374 -0.8371360198060356
Ni 7.12451375392221 3.5662125086907914 3.169201250656207 -0.04145621026225763 1.7740532108674674 2.297553725764675
Ni 4.901680045331477 0.11998842109445611 0.4812268888830989 0.5387435570992076 1.6424322693936553 1.090331060040619
Ni 2.735687145431885 7.641151643108255 7.759049825120288 -0.4996653601508233 -1.0000570569447098 0.8026724388115273
Ni 8.946408331567827 7.543292552644718 2.802142683784587 1.046134568029063 1.2313689239529568 -0.6017749224290798
Ni 0.926866971608599 4.337704116545257 11.088325082319715 1.6247353663345245 1.1737700424925654 -0.6793399625987526
P 2.9891159113836467 3.408135286538837 12.033721991008711 1.4937970527500337 1.161261882723226 0.03673335086529157
P 6.434512786169142 5.161474833809611 5.741999645282484 0.11340544690704983 0.014085531558788644 0.3002081757593281
P 8.803598459951505 2.602833436952737 9.382268057010805 -0.009886148765460394 1.359043736294827 1.742209583994309
P 3.3080925023017183 2.2627416375969016 6.295513275128924 -0.5261981163340292 0.29537270204389776 -0.6387502141018483
P 8.308880784958738 5.487409635396043 3.0588830768616226 -0.4413329429585173 -0.6120976445113265 0.4568276961600068
P 5.286898431694751 8.245720218439818 12.355209829766402 -0.54405905577485 -1.180879142733521 -2.338862611815791
P 6.55073896197403 4.435387401154141 12.618518884749646 1.1111120013417122 1.8095166938813998 0.1619905549046049
P 1.194424976510608 6.140537638370631 6.4159884008525765 -0.6042367537060109 -1.167318630440267 1.2625322369296386
Ni 2.7463280261082343 4.239428643794383 7.136997820190497 1.4313768386415993 1.0632216054183368 0.48807199888626907
Ni 2.9657059738956786 0.32471804001344085 5.0033050822604705 1.1036755996683252 2.731317598126683 0.6336859122050634
Ni 6.185738248895819 6.9000651951689935 10.008559758919644 -0.07661244644841644 -0.40062826615030356 0.8229432732454214
Ni 7.5075391935721845 6.121347041394329 7.621972149659615 0.3906606134146304 -0.36963310332036986 0.3726446364531841
Ni 0.8710032733517381 8.459814737647962 0.7451956784682768 -0.3560106274409288 -1.44109560859126 -0.25404067606433023
Ni 1.082769752926691 5.827418158294411 3.9904801512543515 0.4321479340251396 -1.2821451260645595 -0.624641285504292
Ni 4.576004326057165 0.7047066648477827 3.1411139521405045 1.1429108910198638 0.35971918664076763 -0.455250581480874
Ni 6.084168729605137 0.5543630497126041 6.512222675101533 0.5354420035298004 -0.877404123297463 -0.27847181252350106
Ni 4.345596874125192 6.020499251401695 5.729568320770593 0.4031975695393766 -1.17078781993579 -0.1334065726193251
Ni 0.08497899837529573 1.1250001698022192 13.400469090368004 -0.23055339157566748 0.7703909530700023 -0.8155834904462405
Ni 6.970341272331489 0.9897221911168073 11.15101467420696 0.0548521719531894 0.02473324108062192 1.5284969181250645
Ni 3.30878647278061 7.175293887097691 12.807641570245327 0.8756974250190015 1.2465134929038792 0.11490105761596987
Ni 8.038926268669622 6.3795225654217145 1.0331221795727619 0.3078556650022569 -0.9246149766553109 -1.1571532598714909
Ni 4.552029959246364 5.217381095589177 11.510381272290537 0.07135068382884485 0.9953768778602212 0.7317449585630301
Ni 0.09994470307610183 7.74521020318323 8.07670602154052 0.29142451602942715 -0.3209492649614214 -0.14965980125339387
Ni 6.827614677172634 8.612923131171048 3.4945762493896657 -0.6384722778501133 0.11926164857751075 0.07724185250229924
Ni 5.8792438736580905 3.426465360121313 10.769911995430505 1.626145873528806 -0.37075564696058727 -0.4611327512932639
Ni 0.7675591084740752 0.38659614908736867 9.556371370755315 -1.3800861587874231 0.6045830813018361 -0.6203462576733639
Ni 2.5301330895839764 3.7709615587831853 4.680693011326975 -1.5438145223187414 -0.5265647556448286 0.8489484390599314
Ni 7.5490571340893835 6.378874859641415 11.730691916401613 0.1677739943556014 -1.1491941529254144 1.8965670478336887
Ni 1.7379426555790827 2.5360827298230135 8.940683537763952 -0.38304731984374674 0.9393761941248854 -1.2155810649910808
Ni 3.413909120923221 0.24170806721025564 12.164394781596195 -0.7407368776489952 0.12259097006105986 -1.3479034034072916
Ni 2.087842571036597 7.686380012452598 10.161428501304016 0.6541251538960219 1.4160507498074903 1.0014709065731011
Ni 2.356945816871606 7.46992599361622 5.246584298634938 -1.3117223255010442 -1.3814303315201433 0.6073891832920637
P 7.158601583845402 8.868933467304288 9.243834825881363 0.4444432064527249 0.804373223552718 0.6107282749676256
P 3.97100086255883 6.772309856474775 9.786460521560969 1.1820320253910417 -1.0856462529704398 -0.480073811172141
P 0.7657483081711522 2.1944919542327703 1.7342266749881072 0.10393196019897585 -0.26158789228396884 0.23758021651546177
P 5.160762357451281 7.920627434367775 2.003264224951115 0.29748383484962965 -1.0741004571143695 1.057459506123579
P 8.252678429108178 8.937904879966467 6.441544095061279 0.21348538034978715 -0.30554784280468666 -1.0217088308865307
P 3.2511314053942355 5.624140325617269 3.7046494409961213 0.04526735647823171 0.1317430688739731 0.9587175747659746
P 1.155423835596859 8.906093273214044 12.178709079340814 0.5548183511738832 0.04706815713239636 -0.5971009139921781
P 6.1787430264685845 1.7923962058228344 4.220284311516674 -0.027873072261184254 -0.3266026065924569 0.6736264571537431
