# total energy = -340862.11056478904 ev
CRYSTAL
PRIMVEC
9.33530007972114 0.00000000000000 0.00000000000000

0.00000000000000 9.33530007972114 0.00000000000000

0.00000000000000 0.00000000000000 13.66315529326818

PRIMCOORD
 96 1
Ni 7.628004161527441 8.865332803040536 0.47498192093067615 1.011609794779316 0.06572793832542873 -0.13652403520238424
Ni 6.168719431947715 2.2932630725945504 2.8506803584172347 0.7371458178636272 0.5306674649592925 -0.11842758271198958
Ni 3.667923309478953 9.070167951272282 2.911809768573607 0.220351254231685 0.07406705431874341 -1.4584803797266108
Ni 0.5604288535384602 0.11847895742335282 8.956935432337046 -0.7158516843715413 -0.39325639916626465 -0.9594503391669411
Ni 4.672989691945205 2.8664038038719206 13.403555306469746 -0.9846610341046139 1.3649567593451526 -0.8025120019742631
Ni 6.002084330501326 1.755251074468035 6.503661587034838 1.8168929317408127 -0.27569450688867997 0.6933635305713542
Ni 8.516323284683411 8.825368384592807 4.9673905070569 2.477835108558668 -0.3580973347666284 -0.18323815142947153
Ni 2.596744333822599 1.1519853307331018 13.571598171126114 2.7937362695732206 -0.6524505944070763 0.5247878662500639
Ni 5.698472375076065 1.5449641111525527 9.41969277817842 0.820784832141522 2.615878408619056 -0.9433835155120657
Ni 2.1084708130353755 6.004548849648769 6.902817535332556 0.6757103362659653 -0.36003877476371543 0.2531757569608737
Ni 9.488212011657199 5.855090699836068 2.6683180773962385 -1.1889151256641202 -0.03707196515163293 0.19454894845660042
Ni 5.050014445004886 8.168984784990649 0.5535356681654622 -0.3695400293859313 0.26215507764134854 0.7100954986140544
Ni 0.6928827547637875 1.2529465980800316 3.7001459638017824 0.008321889602134055 0.9828221811236623 0.9005561359338942
Ni 1.4122908303819037 0.8091081708151986 6.539759324305028 -1.6473171082897826 0.9864104126955526 0.5802463043286846
Ni 9.158871969980607 1.5407072144433338 1.1407671009623384 0.9222665310277922 0.2610520743851569 -0.536466845249889
Ni 5.82104486146212 0.8085536540070241 12.921300253464176 -0.255417758917515 -0.7523513219594721 0.17269739979914775
Ni 5.337915090865202 0.615718100139378 4.352179313696712 0.10466549593089071 -1.0509044786138806 0.9992142493284404
Ni 1.1304301234927818 2.6064343750159518 9.22570338125538 1.618869908692683 -1.7191128500758457 -0.4301111061007689
Ni 3.294968747132472 4.853898466787198 1.091837994115786 -0.33760641390212826 -1.3056285538984804 -1.7964164090540158
Ni 4.12918047264232 5.975404043670301 8.377344942427221 0.4795354221701677 0.7882822315281263 -0.20851055284301512
Ni 6.140806885542969 8.694291440088115 9.987410633801437 0.2897772102339913 -0.17305015515287617 0.9111706782249469
Ni 8.521588393771127 5.768627153079964 7.239901208194009 0.6943243518227269 -0.5458030350491504 2.7597331731548986
Ni 5.411113176604203 4.305244226887636 1.8039738711889872 0.7184461845715949 0.7838979864175015 -0.06249271921758269
Ni 5.204140244718046 9.37852223899641 7.937528162316624 -1.6920429904422472 -1.2735761534486258 -1.8850222804188825
P 4.101557320531402 7.672776259372645 9.81753711685411 -0.6241553470068089 0.43645298915839664 0.27806866354781146
P 8.469292044286384 1.3222051873030436 12.702949458180658 -0.6490045448400048 2.0059929412677 1.11371884283694
P 0.9301963445329081 6.963470845199081 5.0989118118321155 -0.7754256872804323 -0.241383649421952 0.7589302607285703
P 2.9220701965847957 4.116997906402121 7.898997645918314 -4.374022147345118 0.06011033502833519 0.7553271167583443
P 3.0900495812025173 3.785184010278286 11.983584324941628 -0.32795834928940293 0.6799773390724354 0.17681733550479226
P 1.0382066967595114 4.595432021199176 0.9307480607511424 -0.3310449586345266 -0.3962198526699628 0.13344771026990565
P 6.268877863511766 4.489569721456765 12.769611900529036 0.45921342278336397 -0.058158353508286936 0.46468241631773516
P 2.6765611471204496 1.8844329531131407 3.848924503788975 1.4081523208960198 1.4342461897695944 -0.9016601676313504
Ni 7.868126743006658 4.7528905229412635 10.59484738948742 -2.326263177884226 2.4507266823776503 -0.19556813374973417
Ni 2.444569611767832 5.98504740836465 12.5433092968751 -0.9760110717390997 -0.24052130142165676 0.6722951399368292
Ni 7.761807013574002 1.5221859796383124 4.556880967141305 -1.7516907840118672 1.4009198077033227 -0.4686066910728059
Ni 2.317702887473354 4.14433166421921 5.736147778012611 2.303445408658762 -2.199255566812709 -1.7408245307213244
Ni 6.657870470916224 7.554778069889039 7.751927465794689 0.13382180577987274 -0.6889427757958393 -1.20898104317606
Ni 3.9607809995335566 1.9658834438761514 5.674909144848567 -0.6900149258140954 2.600252529156341 -1.7417164464079746
Ni 2.0448974213911226 8.327834246403071 10.813976748774332 -2.1497394623604524 0.10481487702456144 -0.4265809814603234
Ni 3.2632007219099473 1.6972321862053288 7.708150510908264 0.10770556830879516 1.7155284751586968 -1.4074828056328212
Ni 7.1789388999040735 5.166780374914771 4.011871228284021 -0.4979501772319296 -1.1203422616907286 -1.3396619893341057
Ni 0.6202989317516885 3.7175124220214304 7.174700673794457 0.048966145486057606 0.6138837898774717 0.059444676419878266
Ni 0.9410168905321523 4.925957645950485 10.504110142482455 1.5446390751025658 0.6769215829652471 1.5573248981003502
Ni 5.677439944624596 4.063450626744054 9.852842287171201 0.0363469140601503 0.14827114843598335 -0.3200164687345069
Ni 3.7382554581790703 5.668132650723081 10.753777134478131 0.21940303138580278 -0.5782513853858429 -1.2429190906844014
Ni 8.55057449965298 4.369461754218151 12.794519413927866 0.762224615209126 0.5153801997829189 1.34318620043728
Ni 4.515391160706105 7.765783851289192 5.985117423113157 0.49525103313321156 -0.1233964966814907 0.1378080441211304
Ni 3.4040237194067977 3.048778220782658 9.837908608079674 0.3477350176956979 1.865672158027045 0.29940599157300696
Ni 5.276386129877351 7.188600935198024 3.7212558772415982 0.6798420990461517 0.14198891497169738 -0.1681123515316266
Ni 2.9512056672634617 6.202895964518877 4.49308726242175 0.10994191383848162 0.5638524363516935 0.11245825250243212
Ni 1.5404084848497044 3.951511046831245 3.1159373010804434 -0.6521636592942769 0.8503777153072903 1.6978642251097147
Ni 5.267312218470858 5.412121388982701 5.454400028251079 -0.40268412023806777 -0.4168609259590821 0.6057328786355631
Ni 0.21944769301012343 4.87140215391392 5.029311550636391 -0.8848564658104502 -0.05907649444718213 -0.2960651001252321
Ni 8.477843178904026 8.817676097556848 11.775672261895497 -0.19689482298095767 -1.4772823429244621 -1.5103963518696117
Ni 1.2495112077532937 2.72608491256432 12.740618326407345 -0.867056718624868 0.8955802799858577 -0.03059869872246343
Ni 7.106170237955917 2.797387932443733 0.623698847939183 -0.525420100517424 -0.20507710168143392 -0.6537986237945386
P 4.8693950644567225 1.5430223687939615 1.3635652330710113 -0.2805346085898007 -1.5212592627260446 -0.06993991952424729
P 9.033965658644323 4.083745568511251 9.017750242890127 -1.2905369496726806 1.053923210835546 -1.1188571925047697
P -0.015443386460658912 2.474535924128779 5.5861808543607605 0.9413950243271271 0.3353176178679515 -1.3396241941176348
P 0.9572789827853517 0.9195839757192243 10.803428793529275 0.9398999278388394 0.7488070562516395 1.7254843008198284
P 4.412982921890032 6.485326124695855 1.8826601796809461 1.748461735551608 0.07030990126915633 -0.44679190919055956
P 6.239452998539272 5.222932203217294 7.69478796277323 1.6167420637164025 2.121644246786133 0.8417138689847053
P 5.924965418845941 3.1919723844289414 4.753248064923639 -1.0507520121964162 0.1903426236847367 0.2276220768614854
P 2.9349715809096644 8.632725137901058 7.1950721650200204 0.2059967852822259 0.7506181413184492 0.3134349588622473
Ni 7.8435935751298445 6.742364269414335 5.449658629482193 -0.7855638041556986 0.537752396830532 -0.5121724914788987
Ni 2.42634710655644 2.700496855810003 1.5969085198348014 0.8819837722483457 -1.4471536418598818 -0.7208429669385457
Ni 2.3683562241931364 6.583934896492953 2.1620031562137605 -0.9432179364684787 0.6631116736653483 -0.3442390887272974
Ni 3.9188281622282304 3.9301332102871425 3.7281145220053333 0.385143283140827 -0.5224311930924294 0.1453326346329497
Ni 0.9227785153110984 7.769293924014337 7.278006968451378 -1.676244847067726 1.7693606904878045 -0.5747652266094553
Ni 1.573315416647941 6.773852235642831 9.26066781312974 0.40695060882390555 -0.3788330246520831 -0.5020706271582063
Ni 8.55516746715503 1.6891758224771363 7.421333693354834 -0.2996841849350581 -0.1674006701765827 0.20144721823833048
Ni 1.1633930670898238 8.864324590662036 13.156688904414347 -1.0730388486190745 -0.030771733965217974 -0.9468488483528467
Ni 0.9132481077443411 8.019321258582329 3.243113957328312 0.16280688015831316 1.9084311462611263 -0.2614940470185819
Ni 8.309294340998449 7.214357027348758 9.460081952767093 2.7233602909528196 1.01412124834726 -0.20168427394980104
Ni 0.6903799608871612 6.731890063037706 0.2333460873537304 -1.5259263291844107 -0.7889689731825057 0.35621862968667684
Ni 7.371600817195423 6.722405398439972 12.908893640028754 -0.07308283602860317 0.02537293154714985 -0.80599687519907
Ni 7.457830981456503 5.393973566169716 1.059658282172041 0.22698855704254456 -0.7226782203750716 0.8256431886750878
Ni 6.359280906783858 6.415358052687973 9.895785599785405 -3.0182269998945763 -1.1943836049778593 0.04465620525679406
Ni 4.761161598564877 6.227905232685536 12.881445058024115 1.2579569588541304 -0.8242519647545159 0.25432581140491684
Ni 6.292496172008089 9.25103004961527 2.334295449339506 0.5097078319884898 -0.41727615911962973 0.27784472046246345
Ni 4.761329633961293 3.8489161020191545 7.431307527662135 2.7092996990946956 -2.961596138774409 -1.4714816770822852
Ni 3.8142541338583453 8.381941644049194 12.012345450098277 1.0154042288247416 0.24720796941321294 1.1216694651425843
Ni 7.323150611228657 3.9628160948901567 6.174803246827974 0.4771975180656105 -0.6918116127032021 0.3467518278468222
Ni 3.154024390738209 0.7968079797975088 9.540611982969732 -0.19494695522596747 -3.056184452974956 3.4086888670348388
Ni 2.8852331035703727 9.425385443997019 5.042045833094822 -0.09880415205410727 -1.954774766522672 -0.7072927390579367
Ni 6.812295000223013 2.500553404673938 11.55810003061538 -0.45223904834805984 0.8105621259722492 0.5532183536766151
Ni 8.974742516707298 2.9934198929632134 10.966594897569644 1.6345469531083077 -3.998448510170598 0.6922476717993562
Ni 8.448754384724364 3.667699262283731 2.4857513533096025 0.22122311531367705 -0.7656410970898427 0.022905958063896035
P 4.726667665800485 1.8178162537337887 11.168890844255538 -0.9354796872839567 0.05568520937744603 1.8024659576822053
P 5.924386630258284 8.054655368328802 12.044904175213938 0.5732595885982062 -0.008437846354708048 0.9797168027254611
P 6.609784341641695 8.813969983535884 5.799353358844707 -1.411317348887563 -0.2212015180471223 0.854744219806102
P 7.474410473902934 6.825467108242108 2.672896108418609 -0.6658496414218016 0.6826250611079276 -0.12909766083132604
P 7.6026681578677495 0.5621922916708535 8.92504604821711 -0.011887238355889205 -1.0427713079837848 -0.036009585325389594
P 2.3320512432673652 8.633051873394091 1.2399285225076513 -0.28499547257463176 -0.5005112530908864 -0.08899076550811125
P 9.059189638706403 6.607767916884697 11.51325791802167 1.1690443548821223 -0.382272132240619 0.1148483500011635
P 8.563018454287603 0.16176954319015058 2.694346760301159 -1.5882928072367741 -0.5611975152273496 -0.5248572860354187
