# total energy = -340861.56671507785 ev
CRYSTAL
PRIMVEC
9.35312570597441 0.00000000000000 0.00000000000000
0.00000000000000 9.35312570597441 0.00000000000000
0.00000000000000 0.00000000000000 13.68924489913105
PRIMCOORD
 96 1
Ni 3.8327893066205814 6.30561543539207 11.62453690851111 0.38784654100460303 -0.0960517861199507 0.1639098834145048
Ni 4.439451743462219 5.25448311385444 0.7424389561734343 -0.15186297955229974 -1.3334265499473552 -0.1280702480080762
Ni 4.872772702366296 7.662501434897588 9.644346455669362 -1.3087609288798752 -0.018817904037451462 0.0008767461779984902
Ni 3.8618588211854084 2.719112633765384 1.486638170596901 -0.5498445521083756 0.6162756871484161 0.480011847585954
Ni 6.401419501572097 7.257193087358266 4.7390520000555245 -0.16760867242233068 -0.3969004236767551 0.7797402554953862
Ni 2.8399456642232352 6.056766173966142 5.259805042357461 1.2324323322204644 -0.6456009184750946 0.0032889551639169166
Ni 4.69972117132433 2.874131338526466 8.526893925983464 -0.9874121144871899 0.6127100812843447 -0.4718136280458778
Ni 8.23619410377236 9.057866193386278 4.806129811382607 0.7457847244855479 -0.5368208861551981 0.3850761773483175
Ni 2.578806395674339 6.620694179647324 0.37630617547927864 -1.5050399726537047 -0.5714163647418805 -0.13165333737364424
Ni 8.811149444611821 0.9502495081218565 1.0690108212450518 -1.098246972453586 0.5907410332124213 -0.7340854337707488
Ni 7.2733833478832715 0.6617935007576338 12.130382003816624 0.578675617407455 -0.9815739105388579 -0.37206073892525604
Ni 9.415885137566603 2.585709002414635 13.419074364103304 -0.8366261700491526 2.5143177768657345 -1.7325124113112031
Ni 7.162754577525235 6.223560463938651 9.594887127156232 0.8529776148239825 -2.0494936927638125 -0.5650611119478139
Ni 5.969080620862778 4.76607224478729 7.386387812160053 -0.76514384573845 0.8138400253925726 1.5962562850582251
Ni 0.17508396524883085 8.364556400390022 1.964105882636751 -0.22140926318255416 -2.4749634434378276 0.2781085156468114
Ni 9.233583365242586 7.489767910128211 10.527247847132438 0.01544435957952824 0.19479217481565808 0.7456569406584319
Ni 7.093812688253247 8.808362213163845 2.729128896039346 -0.9199916189506865 -0.4311066372448188 -0.8147656225306356
Ni 1.825178295268632 1.5402914406579284 0.5661063486484116 1.664523701976056 -0.4495679292737999 1.2012386802264794
Ni 7.074330127494388 2.6856471501383083 7.669508796645326 0.7302935708284842 -1.385880396871697 0.31127188977265746
Ni 6.779837612826388 7.300507412309911 11.485098640481718 -0.21546512978397733 -0.02194076593714931 3.9544939589665185
Ni 7.396348890992595 7.399977903750367 0.4691593305122002 -1.2684612008195637 -0.8712306474968996 2.197585635309454
Ni 3.570190950468045 8.288132010586546 4.206225943146034 1.3452068304117348 -1.0119234693649928 -1.874508268261436
Ni 2.073980791066239 3.8327238347409303 6.3735069686519505 0.4011239748397995 -0.11439532162414492 0.02868836907362801
Ni 6.73671035038803 3.816599046095576 10.296584803248287 -0.7234042999078186 0.38935037924363913 -4.731326811007122
P 7.325199664063819 6.597676137387337 2.93901210063499 0.37132180387670244 -0.9085766922455256 -1.2040815489919134
P 4.983859775881884 5.268391211717342 5.421953634812484 -1.2626947306494316 0.8638492674311639 -0.21127654562392648
P 5.511048703953465 6.798020089117902 13.46642456277912 -1.120042985282755 -0.45636309781876244 -1.4977192706225755
P 2.3265619496322474 4.306375471509723 1.653441813695075 -0.003850998314974013 0.9898343507754371 0.17720634341309482
P 1.4774103768164444 6.189384142761084 11.583578635914316 0.33906371517394507 0.6044205875820429 0.29228840669161915
P 0.37797103184753456 3.646044799605994 4.172304026986538 -1.410369383151997 4.078932523759278 -2.372936927791681
P 5.6654501024207 2.4115912150469327 3.71676658869191 0.3802263054551839 2.0083740399053673 0.38201759302765176
P 6.832065466536168 8.534390456203447 9.882403145391187 0.9698854184573361 0.7322123851177519 -1.427945187252231
Ni 7.293885399339546 2.962237782284726 12.088437911774808 0.9065933432669097 -0.6815775936800197 3.2551351300436777
Ni 5.000816992711367 9.220601226820456 11.654229341245184 -0.8145697044697454 0.2687718116269178 -0.16211268230476597
Ni 4.4499927160859505 2.3402642787305328 12.840977308353184 0.8992700701326191 0.008478726894972496 -0.2884962866390386
Ni 5.436943889314751 0.780031038843625 9.214134475736119 0.36644776361385273 -1.77437845541737 -2.0475741071435962
Ni 9.119465879011745 6.113371290486841 4.258176944336149 -2.55030370804204 -0.7486874999546397 0.2344982351560284
Ni 3.7032204567922196 1.8119716818305573 4.544459285295974 -0.47465006905340834 0.02995103783613551 0.34618104294501667
Ni 8.535933721938067 5.407172890325097 11.687712595811023 -1.1150540167085958 -0.06979285242342173 -0.7798469562765795
Ni 0.09172610339036631 5.234345834299076 1.803161037454731 0.14375089196812663 0.27959538460498295 -0.3104537647467363
Ni 3.1747969161329426 0.8272895768879306 10.066386609709655 -0.48581971251698264 1.3040362697106962 0.5191702629529704
Ni 7.025937055306996 9.216280082763523 6.749659752870334 0.5384309109547952 0.32106213639020187 2.6034995753387293
Ni 7.030005664970991 4.746084615242556 4.904910977461599 -1.5272239649499117 -0.46113095152105094 -3.070845911641873
Ni 2.739783041483617 -0.0607429393146115 5.900310829103014 0.5313711758945364 1.0715085280174772 1.067159249909846
Ni 0.5936849749823399 0.5653814814094238 11.597090161249051 -1.382649034418593 -0.5454297108701316 -0.2850245260403543
Ni 2.531198986042752 7.116643667999947 7.085511789226129 -1.7443790808418025 -0.24943325919930592 -0.590242239199132
Ni 0.796038913418175 4.559480405112935 10.267207570849102 0.8486962138398093 -1.4105578450137193 -0.9178480902451225
Ni 6.3506600885916225 7.068634073964793 7.719104680793155 -1.1362861866144947 1.795807057604791 -0.9814479264839548
Ni 8.458405663306197 3.146391473490285 2.2894992538746592 0.6707002846458836 -1.1355274540715992 -0.0864785406092188
Ni 6.485401216912374 4.484833109185687 2.1042287994647753 -0.07495897000539348 0.8011675721312267 0.18222128012918296
Ni 0.5258860376665361 9.296838554110645 6.678065317159935 -0.755752377221221 -1.5124990000349112 0.003239589983220227
Ni 3.5007814049128387 3.5944529584413916 10.743469664990817 -0.7114273300516005 1.5566355853428093 -1.1033511264493707
Ni 1.2462572291474823 2.0961009332624476 4.923501250032078 0.7795456229860768 -2.805755919741916 4.158746250753811
Ni 2.2586114916806808 6.563593347466414 9.362320722199387 -0.17380528815134583 -0.011665352153070232 0.8739123080941207
Ni 2.334736581462897 4.491183881511787 12.63009425462402 -0.05355453618768842 0.4234601764431546 1.0411373719247876
Ni 5.726264125490361 0.4888252125340809 0.31576526367901736 0.1409645874722411 -0.019651969902972605 0.5623048893589154
P 2.0920884423524373 3.388618721945848 8.595422407101088 0.8720192048364659 1.1504521937022316 0.2769234941997747
P 8.535138706256596 1.583605765609574 6.28167985150441 0.20952613859172303 -0.8297001323532808 2.1648704044646196
P 4.696924586750686 1.0015139898882068 6.553739829579011 -0.9637970461714109 1.7447382639534341 1.2827043410021393
P 4.896651232187403 2.103022246254073 10.633613462812656 1.1741680492619326 0.41964208824864496 1.7603831695795424
P 8.246014885719937 4.373848920052406 8.32322493807922 -0.7164170699567081 1.0543258455906037 1.3424696339862299
P 9.127285092067149 2.6126085918253312 10.998390975598047 -1.6380297694505854 1.1102010594916687 2.877599998267412
P 5.995054250832703 2.5369043926980113 1.1973151284835921 0.19330839118128 -0.4650194879421798 -0.6990086446722736
P 8.613330836810634 8.730927685788618 13.267096360495703 0.6282755398227696 1.6188714513545799 -1.588114372677381
Ni 5.791885655151502 4.841916740799576 12.059375879710514 -0.8129146853648258 1.2213891870324256 1.1431872846097022
Ni 4.899223341745102 0.812076717994851 2.6937011266478876 -0.40307672769079617 -1.2709176327798564 -1.4590133694119451
Ni 2.894072202442879 8.844353040720296 8.239994278729789 0.615949671267565 1.102139879750089 1.2767630358170399
Ni 4.235693900864163 7.957788965247059 1.1626019378928911 0.5130407530164648 1.1147393136816544 0.6881914994521116
Ni 2.3428831539165533 8.240880019730204 11.028178810213898 -0.002871150900207959 0.10165987633534751 0.8625847988964436
Ni 8.823701339253391 3.997161137046022 6.179475441432262 2.676458227084642 -4.980153546970682 -1.059849346511994
Ni 2.154539262413361 2.2051116128805486 12.21407844882414 -0.010650280624994561 -0.06464036168820479 -1.6285339141450081
Ni 1.707525327536663 2.197703937354377 2.752688484275299 -0.056056476673935714 0.7210885072904484 -1.1292524196961646
Ni 3.44512095408424 5.1591467039576315 7.869919155568108 1.3979602108543665 -0.8664993034595013 0.8137317819494824
Ni 1.8861980871029085 1.6029667357347965 7.4277155332205895 0.873710990716592 0.6038660006301536 -0.23851944050027954
Ni 2.6275081210086544 4.111905282696375 4.123228176625648 -0.11408730346542287 -0.7761497099306505 -1.7135500112760875
Ni 1.6451960981093763 6.377082668593436 3.358779445138844 2.280890920397014 0.7037680137341299 -2.1503377580660836
Ni 0.8716869937915086 5.2602352861380215 7.8271538590929595 -0.18749949780898675 0.39109024475288134 -0.08618492062819996
Ni 5.4047036651497065 3.1767704256481224 5.931850504155799 -1.009650614170416 -1.7920612174091137 -1.2248318941653875
Ni 1.1842460059927837 9.327890931316315 3.9881428532804475 0.6585708483722013 -0.5733277228319803 -0.07786251680543363
Ni 7.771240873871424 2.385374403809735 4.541913364490136 -0.5774322319186571 0.5797500814185563 -0.9110158978146374
Ni 7.897826076612854 5.747645370759084 6.572398379966841 0.14991485468699342 5.07718106674034 1.9235116947433324
Ni 6.0148080522358285 0.6041894704159811 4.873918460260179 -0.5930388281076625 -0.37219777872375254 -1.2824976243079718
Ni 1.3648361563202225 8.8174534513096 -0.13697278410426822 1.4992264512957212 -0.8703441311268881 -0.08836058812328008
Ni 8.89461673804056 7.441094244170888 8.133999046825878 -0.23661836682282475 0.3180097227171233 -0.28671322659668685
Ni 4.138542984588469 5.84243929936736 3.090771241102043 0.2900073239669263 -0.026014164675574554 0.43190676454861104
Ni 0.8385535461255177 1.8217176387728191 9.574189595373573 1.605389357707745 -1.345822609618863 -2.0839487891178883
Ni 0.17910767990963797 6.765199971161667 13.463344578497846 0.6755866662039075 -1.134209506591124 -0.5862832545513837
Ni 7.6621553692480076 1.1749022334540895 9.65321696004944 1.1600809750412473 0.5886165306702508 0.37521239718036026
P 0.39036111741511054 6.9524308407108 6.091481235181976 1.0245092764498034 0.9886537002037749 1.0481870796827173
P 8.703588499471698 0.8901884116681766 3.141175235307272 0.6396202754116275 0.6569837063907396 -0.3270399512401916
P 4.98966806691945 5.493726715223073 9.761321321790664 -0.22779511210423992 -0.8853642586848042 -0.07707781612060918
P 2.2941627223309085 8.317846890822214 2.3888556371820093 0.7964010039805187 -0.9582483484390399 -0.4899918416168013
P 3.5155967559651824 0.14136407660368466 13.268629337792092 0.13634791463583615 0.45288953744786525 -0.03604120989427341
P 5.104907928230015 8.183620184413 6.2623506820064465 -1.1463397141957548 -0.8732649043181089 -0.11971981916085189
P 0.9283435525033618 8.901407107272885 9.17572305925773 0.348854990232754 0.6697438342698853 0.1142575104947
P 8.270679078096851 4.655050643151352 13.57614420932258 -0.04745125150342796 -0.9938522136855787 2.0298815749598393
