# total energy = -340885.91224198195 ev
CRYSTAL
PRIMVEC
9.13540492956841 0.00000000000000 0.00000000000000
0.00000000000000 9.13540492956841 0.00000000000000
0.00000000000000 0.00000000000000 13.37058853530920
PRIMCOORD
 96 1
Ni 6.764410898081509 2.2443496845844315 11.453593118131144 -0.19758002197344038 -0.2844917934653358 -0.7132821238721523
Ni 5.048992010106245 0.6756773699753985 5.620179534686455 -0.5562311723610098 -0.15289964834693023 1.0445299425461043
Ni 2.795406431372142 1.8408845360975161 4.497932522697126 1.7817343815618087 0.08911649245269813 0.9675068909228306
Ni 3.4646844503565952 4.470437695177572 4.716782104723215 0.5116896383052091 0.5624563273351152 -1.0235903641799597
Ni 3.8621841795757206 2.928445329989032 2.3692681219652743 0.6702400571800136 0.11613981511907741 0.29220304606666453
Ni 5.235765359156738 5.030054316167303 2.9243216083083574 0.7708378107994337 -2.1321657151427473 -1.0784911299828974
Ni 5.445322407524028 2.809173486252019 0.21704990730058463 1.084283054074326 0.899425878984193 0.6313973732812029
Ni 5.495932549550916 8.146250483509514 12.312319332661662 1.80712582505172 -0.12106296345230765 0.05367820624974627
Ni 2.0896324706192013 6.89206904333128 0.582593990886126 0.28540736330106975 -0.40554370117405003 -1.4619811937910174
Ni 0.9617662712001349 0.14592438694341092 13.268409776922933 -2.04065963941195 -0.12901615686111328 -0.13603552560173993
Ni 8.398177538866099 8.89339869213967 7.46653800527901 -1.0870791287622248 0.9369686131246574 -1.5311459257121371
Ni 8.609662157624665 2.3307340714086653 1.2219416834585408 0.6556798999776514 1.131132410327697 -0.8576858189329293
Ni 7.52392844467275 0.9319757164799758 4.997565162899356 0.011188412516651697 -0.20032364615684856 -0.6703457295199423
Ni 0.966598900285374 7.759804593974961 2.5811784505827675 0.00993242862236354 -0.2694330993600005 0.22654427041627437
Ni 7.582513795000986 4.073148080266501 3.8703439230519687 0.9076762919184432 -0.2794850842793638 -1.907883501287772
Ni 7.989971115340925 4.078702406322882 12.61202090042688 -1.7082365694829742 -0.04832491235763291 -0.781013465780855
Ni 8.75665995462009 7.496732344886821 9.550049754750555 0.30983567154676317 -0.41931093016147136 -0.8617741300696901
Ni 7.143384026573101 0.6338408706204641 0.15771910794899127 -0.0146786850580973 0.06542069149765509 -0.92865623660422
Ni 2.0958080041950455 6.299829892165012 9.245722018046274 0.09113789375810111 1.2004812332351649 -0.4915339892929405
Ni 9.218993650980881 5.0498781443619505 1.156697536645936 0.6591202931177681 -1.760796345857561 2.3106025885288335
Ni 6.877516343647375 2.2675170708985446 6.890078438647587 -0.7776314366824995 -0.05965242155531016 0.7001337594156524
Ni 3.763841548001812 4.332867635830477 0.15353966029965888 -1.0040936889079288 0.303075212894478 -0.20449037594002845
Ni 6.399844302798653 6.139969445354811 4.6598776688594095 0.09879206786924921 0.778804373944678 0.42947887183340877
Ni 5.562812847344931 3.0235997053233397 9.15341149419445 0.5822322244104617 0.27376643662803174 -0.07244083156923009
P 0.38020549458535224 5.662845528787968 12.566039667960466 0.9199311980263963 1.3826726885676768 -0.8730319623716964
P 4.101413022402095 6.3911473975261615 12.990422152584378 0.24556786270662867 0.3397625410131826 -0.6497087699958811
P 2.6455492527062443 8.879613366450396 1.139021442095787 0.9984765998314675 -0.6497748473471261 0.7758437486544575
P 6.546220892274615 8.134310509569234 5.587314916285421 1.7136489987477972 -0.21135290738781665 1.6604880984541017
P 4.977544009963232 1.2095641236332286 12.380389060147358 -0.5730235613280001 -1.0161580762716305 -0.9501522016944669
P 4.20509986572433 6.563879629555837 8.160591241804424 0.7497827899013475 0.6626864132024716 1.5354700070087879
P 4.684717747773725 1.2859269715037625 3.5709365153180266 0.8515491099075722 0.818259751726823 -0.841509723393699
P 0.6650510672306916 5.649699681427554 3.4631560971506206 -0.1573232313359226 0.5543930907110065 -0.6084541342214683
Ni 0.7609088687267451 0.5944745846958673 4.307401781694349 -0.6741530190811744 -1.1014469674481224 0.6179515321889422
Ni 2.1589793276816756 6.963736293187044 4.610352812910643 0.18027932591146373 -0.43097885341770287 0.49808104638283895
Ni 6.674801713398883 6.151845471462203 9.265282746585617 -1.3652364953691003 -0.8848330687716826 0.3568189822748371
Ni 9.199900655162073 2.410851570610075 10.020908610775514 -0.2101743136986832 0.7684636541403024 0.12044795557612804
Ni 2.818345432568805 5.543418383171089 6.862106743002799 -2.7651026649969284 0.610329239756994 -0.6495740441902297
Ni 1.0573500105552487 0.3556997714829827 8.835645577179418 0.2444041814158307 -0.5011427160272982 0.24014900568390252
Ni 1.8548160282619572 1.01079598821427 11.064402039484845 -0.30909365117441606 0.8396598146691538 -0.09912168329452607
Ni 4.534476882110512 7.02565606623005 1.887432163655206 -0.49489262135252826 1.2578548860586272 -1.259452055342418
Ni 5.91721173719892 8.245150374769999 7.771921794766381 -0.34383336864844655 0.8594827629323522 0.8208712212077411
Ni 5.482119817647548 3.071953402389823 4.78699134398918 -0.5581039639036904 -0.3551667913833948 -0.2829208494337902
Ni 0.9414674019611917 7.496513095174069 6.783621740620921 0.8017206164212193 -0.3170000505056863 0.15894868275448756
Ni 4.944007939316895 4.878698931130935 6.960433844388721 3.1955487858396125 -1.5604135643280028 -0.6757175353548168
Ni 1.1625807372714443 7.602593414527178 11.452764536925036 0.30473228888192677 -0.04818298746312992 -0.04446645784349117
Ni 4.916775297912174 0.8002459213563083 10.024197356466791 0.6684767946320036 -1.9216126779484068 1.104667531267949
Ni 8.625238022634745 7.615583960007726 4.601327033069024 -0.5844420875775871 1.606235250647808 0.1462147801275869
Ni 7.5728485368305085 6.559110948303484 7.117792103852141 -0.12850296467012062 -0.16927834681526976 -0.5076874591243515
Ni 2.7482494723210955 5.319409124571573 2.151434396941602 -1.0988645514329267 -0.8625986828535145 1.715936509230393
Ni 2.2993996332945446 5.501313302918033 11.460840234678061 1.3563620756976058 -1.3527566177345347 1.040826782662904
Ni 1.359576604178992 3.23907649593493 3.5468427989675364 -1.2486454516452175 2.277414531812639 -0.62975983767778
Ni 1.4748745468723772 1.178704726563404 2.13568404570179 0.16925469266618592 1.131351982537671 0.13243520984499127
Ni 1.5426866559455883 3.8736217062576093 8.15163306395757 -1.1168517320389668 -0.5083088947584343 0.5255442848001143
Ni 3.6084574494936286 2.731714389817726 6.836729502292241 1.647170041188957 1.1718280882748464 -0.6196011519772232
Ni 4.5607685768313395 7.076247937447541 6.070300108506498 -0.047489046719898856 1.1694161363992441 -1.1696431648083856
Ni 8.746437436763035 7.236592560706736 0.6072778543801063 -0.49725546515775004 1.616921012496428 -1.4022141010347142
P 0.2662659865705588 5.7277434437625185 8.280926446648284 -0.23272006020968308 1.6051720994906162 -1.0735114173801188
P 8.926742919287348 2.031229828384924 7.848268198908458 -1.8296510027374298 -0.5255481414548562 0.5215482762668437
P 2.1257173191762786 3.317805413622244 10.319713995339857 0.3489120687229346 0.5824913916091194 0.6501761965506029
P 4.236571334908921 6.556644389035026 3.9563300062313695 -0.9227123603159593 -0.032348591534034604 0.18536959595017752
P 7.116946165377106 4.141490042812196 10.32685422765181 0.016929171655170848 0.5323741632377541 0.45937977315789913
P 6.610287485421647 8.09288144926383 10.1181659562713 -0.8302642323868668 -0.9642081655669006 1.4145026885940801
P 2.415136075413434 9.09415834578279 5.4737718848345205 0.43954756892332036 -1.3441686189552076 1.7780255652516541
P 7.138185981299943 4.055854759173198 1.2286799579637815 -1.0716782208261222 0.2348975274769761 1.311586057033496
Ni 2.7883721697546866 1.6916577003557804 -0.004508322218460155 1.5710877562123975 1.2112901509252105 0.38323732436736574
Ni 1.5590298949503 1.717364729175936 6.801203740502681 0.040399229752653004 -1.4008498736973358 -0.929790093098347
Ni 7.383709117963235 0.7044685114215973 9.388533059068607 0.2127073645331821 1.8453421882204415 -0.7630707652595052
Ni 3.154674491930161 1.8345902422605982 9.030495537523407 -1.2649976677509955 0.4569968747480194 -0.21057026358552122
Ni 6.407901729742283 1.9400402186895456 2.3197304764499305 0.5700171704015087 1.2328475653810123 1.2579890976436463
Ni 4.36305101295265 6.868919927826563 10.639311560996838 -0.5297243843197328 0.3528885368721793 -1.1914288932249093
Ni 7.578402862886889 6.413501732822154 11.70998829992552 -0.21025993143395402 0.30197298096923475 -0.47814856912497
Ni 7.877961918338817 4.2183736087505155 8.155002201210191 -0.11355482800072056 -0.6306052163972107 0.04158425119968967
Ni 3.2489701392228576 8.778804175608029 12.416369765090877 0.43131283971835394 -1.489792302466015 -0.852806379353441
Ni 0.15818866775046816 4.9458441556611925 10.486605963146106 -0.47328892703982356 -0.4073676417566662 -1.1201108624062128
Ni 8.842139936379224 3.1931254103040185 5.84465835308745 0.5537199759033818 -0.5088295431485946 -0.3011792814233459
Ni 4.145363454404145 3.075735459934793 11.293667809947587 -0.8901118006721186 -0.6654626903960281 -0.24549201516337074
Ni 0.9846595953733086 3.1889413949523377 12.633948612323476 1.535436325557375 0.3980319661780371 -0.6743723341808322
Ni 3.4121924149619205 8.72897967838517 7.599521177927242 -0.8207807183764638 0.5048579600953563 0.23810729266352543
Ni 5.897835543834474 8.557754788130664 3.566697687538157 -0.3302620577219151 -0.1231185604297557 -0.5547597300218059
Ni 3.2517838438698394 8.790168619052334 3.2831749214930874 0.08336827711501127 -0.4099153478791843 0.1548184626361979
Ni 3.7735798894098744 4.560430566857513 8.944709519706894 -0.09778959474666385 -0.5350738215571043 1.6436352885628207
Ni 5.459902513422025 5.0184340813914545 11.742905903673803 0.7332372268378405 -0.30573399067356377 0.058644034895453834
Ni 8.194403201672639 0.1735041737266555 2.2381430906326143 0.6174200851655045 -0.6829071111247206 1.0861774428835616
Ni 4.965503546571275 0.447673198901449 1.1642744413024522 -1.563075170320566 -0.6739768985146263 0.5421083598063825
Ni 6.41734773820001 6.237115338913282 0.5496297965738834 -0.651034173675524 -2.2292307730185605 -1.5026056521805993
Ni 8.247973214821679 8.807480210955033 11.501419702346553 -0.5102210241794827 -0.3533240817477012 0.2966513116460052
Ni 8.983336751391422 5.633630504563783 5.509912459360256 0.955039354583439 -1.8644382856199437 0.0022108916083897405
Ni 7.663325584959444 6.529959871912185 2.61086120752749 0.6580296311567506 -1.0009602854852697 0.9449220636437791
P 8.664501992026725 2.055804067022528 3.397399454134458 -1.365773598819493 0.3553557674657493 0.28007978044056925
P 2.0479932960057434 3.286324809032956 1.2888968915710803 -0.8114231884209638 0.6897927825009604 -0.1146956264733831
P 5.005635379409565 1.3777743303373964 7.819361037822594 0.559652539337733 -0.9190477669801785 0.042783156603797286
P 8.765676599057013 1.600696475777852 12.054066923092183 0.2019951203220005 0.36527096969693224 1.1302080987412149
P 6.587083557488742 8.014033771315441 1.5424043719404203 0.040456822463465804 1.6677036423659342 -0.9767021842688534
P 1.8592832411592766 3.7805410677897457 5.8806655507045935 -0.7172117979438615 -0.47809200485542175 -0.32973035358816116
P 6.860844230073536 4.41688595283793 5.841035251584224 0.7993390035629201 -0.4901350520628849 1.9487493862641987
P 2.701540148100251 8.406052257715771 9.861410839531823 0.14328732206814676 0.4278423646712502 0.8230754279479116
