# total energy = -340869.62931029155 ev
CRYSTAL
PRIMVEC
9.16117102844635 0.00000000000000 0.00000000000000

0.00000000000000 9.16117102844635 0.00000000000000

0.00000000000000 0.00000000000000 13.40829982549030

PRIMCOORD
 96 1
Ni 5.976253169390351 0.9230429317188951 1.8110324753553333 -0.3242760153418093 -2.0095762877435845 -0.671974780482933
Ni 7.523574928564211 0.09404399951923774 6.1316422012587894 -0.12603830517971198 -0.10122613123203857 0.33026771414886996
Ni 3.1629400471496196 6.023698873302498 7.584860413302787 -1.2454451995403648 -0.20614333816241914 0.29575348242208416
Ni 7.465868713282766 2.859915998433257 3.037770969615029 -0.5167549686432584 1.3657864543352993 0.669277179046112
Ni 3.736465988010013 5.6281653211868585 0.18414319886381436 -0.45342406979509653 1.1294650499276033 0.038905418815945905
Ni 2.8060116690609713 6.673784719085424 3.3234345995413714 1.1869963113748525 1.0208503395409774 0.9963312713536906
Ni 5.301642869200626 4.18464878908937 4.561101454526458 -0.3215683866026591 0.45751572336596685 -1.7639063522414526
Ni 5.204937549544977 0.26402769269341847 6.525806158330044 -0.6780266431039677 -0.6636680603894506 -0.2828881964236418
Ni 7.270351004672413 5.8834321861816505 3.2207268807346816 0.8249816438316889 -0.26505476778664677 0.12067884064001151
Ni 5.754736057863863 0.30070902083866496 4.143929216826636 -1.2790662300289197 -1.2129973634243045 0.07465815093552304
Ni 2.1461600151354796 1.6312380843013463 3.4002244498526277 -2.1773202001921983 2.4532198811131494 1.1828486077550662
Ni 8.495062131819585 2.3171074634847053 5.648246607723918 -0.47006887744062914 -0.16849107502728403 -3.5680404416547002
Ni 4.954003918369541 6.429996801185036 10.081673404484084 -0.09484105364130117 0.5795888732503438 0.07904702403183805
Ni 3.4320952471764286 1.5969569829228467 11.291612143610726 0.14274019131542512 0.2359622212960646 -1.4984895731296966
Ni 8.03900988496681 0.6560543486017644 3.238385953694915 -1.182546760243931 -0.6470561628643825 0.6063532858283814
Ni 2.7420758575910225 6.357018914070891 11.454803744705263 1.2775647057827288 2.354113624437591 -0.6924538742728913
Ni 3.1153111198201655 0.34168785423689224 2.0227892754417756 1.4276597948013283 -0.007544130895845073 -1.682315735852154
Ni 4.125046211438777 7.16013295799023 5.636272957402778 -0.4000626234548207 1.2962609966406515 0.8745381146035778
Ni 4.655194008251283 4.834432316233737 2.200341927984988 -0.045074009520503014 -0.6731729145560922 -0.39977697389360184
Ni 7.149020457730444 2.9626676908601013 11.494599870944763 -0.08425196527154521 -2.2997774728888714 1.335173871655765
Ni 6.22937632040263 8.630482559552611 8.93517027689814 0.8114419574740412 -0.3077543635377022 -1.4766699061514441
Ni 4.524271715413191 1.2432166922953733 8.555675186616638 -0.2430605229037427 0.8157069033979824 0.10084535085385214
Ni 0.5192038620966428 2.659011521354022 13.364763123651116 -0.35829325282751845 -0.9262494269349403 -0.5604310693749702
Ni 2.5976041930429363 3.651047230860592 12.264249989926798 1.2598094386818368 -1.5824805714303714 -0.9844751433460529
P 8.00547083842841 0.5133535383819688 8.284250764566458 1.4947879559083934 -0.3521215767991678 -0.1622155264312174
P 3.3062482429977944 2.188576236242495 7.065208569950824 -0.5329125522397273 0.81179137039366 0.038454704431772485
P 6.902878118917636 4.519736935834795 1.5222577118030851 -1.380297760577597 0.19034210946410443 0.16975374378979152
P 0.253742446162782 0.01745111438158842 5.167773427695121 -0.3669023346527681 2.471438975224337 -0.3448890636064706
P 3.3716040359518877 8.973916532956457 4.006748928170357 1.0894702547022204 -0.236464871964096 1.3432911014462607
P 6.608694600086429 8.030389223182425 2.53930433388941 0.13121547850527723 -0.6303573620524628 -0.2246568235855744
P 9.643689734929227 6.140100710318857 8.466375757488613 -0.10914152942437333 -0.12085624675814025 2.2365327059966127
P 8.303950946395513 0.7939107316679119 12.62455792394771 0.13336209253463482 0.7911796076805794 1.0900860339093483
Ni 1.4623610605677113 5.373338192393608 12.897094512140956 -3.376830327763346 0.5754763937438669 2.9553686698074584
Ni 5.046476777085354 6.3608024776383205 3.7358604346158066 1.5111216600714104 1.529627946405714 0.2825063876041909
Ni 4.922562779959328 2.5578721949994963 2.9198987646747656 -1.0175798963198217 0.3929039009228524 -0.32474267056558265
Ni 8.684396050095762 3.898847741600046 7.188940259776626 -0.6827520736040952 1.5861392512288812 -0.17748299411324917
Ni -0.2288808606681342 4.243206993261302 1.562241642045325 1.1798059642740004 0.8517835945158815 -0.35993310242378657
Ni 0.8717422071065695 1.5318027357277935 6.99460067773957 0.15013596955886402 -1.3070282624594844 -1.1026772403107976
Ni 7.8043098485649445 4.339280192127236 9.571796530445551 3.3331241451246467 1.5476863465693216 0.9190035440058043
Ni 1.872323456796428 3.853206788348393 7.689941791480714 0.946387592445712 -0.164344142738446 0.6294435919889417
Ni 7.193195623643626 2.423422851378208 0.6598708923843092 1.1388670599677935 0.49761747648285914 -1.1829062004658788
Ni 4.541027496926092 7.8497675783992875 1.7188362839996563 1.6897865903079028 -1.3117230968319924 0.17100201437459583
Ni 0.6867186197225859 9.15991578503761 0.6746964151958608 -1.8701178525032245 0.8965776109021203 -1.4943007318593298
Ni 7.853835138263546 0.6347051560169286 10.607171907082376 -0.739752659358855 -0.7082389050212899 0.00668769643282074
Ni 6.871088856014538 5.156071864148687 5.921185371318155 0.5763256291180398 0.9263576703780303 0.20646961115358634
Ni 1.944577611412202 3.0089132813888733 5.4070714557543536 -1.4974156233392277 2.1184198263115643 0.7078763794755486
Ni 2.3495380083483846 7.650539595588429 0.8535939276221206 0.32963008056487103 -1.7222812205014986 -0.5802715011396652
Ni 0.9652026400416783 5.818662708162947 6.472454247560946 0.8381492915618985 -0.3732408752762862 -1.2832962089498672
Ni 5.469851127461083 6.311909308729434 7.655910790066841 0.31045890695305883 -0.5283616996442514 0.1655070526982956
Ni 9.415759803796925 2.466883445963885 8.84111070338843 -3.5361374222985167 -0.5410994589258938 1.4417147302324975
Ni 5.394051599720382 3.984550495046295 0.04831693126144969 -0.5266737704188671 -1.6195008574084626 -0.6013933707199449
Ni 1.859387883534418 7.959719951126373 5.094054401857962 0.10731013264258939 -1.718037871844112 0.04997221815306877
Ni 3.351614361123484 4.4962202102231945 9.71982364540652 -0.912348500583132 0.19059510601517496 -0.7890417354019701
Ni 1.0893273440976086 4.983512049727142 10.519494921314621 -1.5399900063663283 0.5895074179156364 -1.338915083865752
Ni 2.6440788128433446 9.287045353137408 6.853438028108084 1.6168402798571637 -0.6948324018073969 -0.28332296996821527
Ni 2.4964648666884104 3.139982152960812 1.5322470525147676 0.08723393071800462 0.35883601270486587 -0.6497954161724163
P 6.106525019096996 2.2946442725226315 4.833813021083233 1.7337079742812014 -0.8553785109559914 0.8633209057315196
P 4.287198935757175 2.0894432063075024 0.8873372682708186 1.3063060395814792 -0.19466104855443248 -0.8734155709633604
P 8.769640744998737 4.967534967737804 4.879213035541125 0.7681486940030449 -0.8409751910464678 -0.5739419593772115
P 3.3353532828373167 5.079209640587593 5.154552942019196 -1.1926529954399976 0.8274113363191039 -0.9002051803523786
P 6.243777681003111 7.910341240161618 11.752213827915282 -0.011237263476716131 -1.302334456528241 -0.5474441701969991
P 5.410642480157705 1.764917889569937 10.56592739972905 -1.119243115089279 -0.4813732467098548 1.5987906214443046
P 2.3357779297084846 5.284135871676758 1.9279253511300805 -0.3385368961361976 -0.8844620585855091 -1.3581513063875448
P 6.563337643131605 4.185070202949181 7.9193842319229 -0.6404227167082648 0.46484053916215423 -1.3730127968804096
Ni 4.102729599210551 8.422102567047173 12.692309363083119 -0.5080821234596089 -1.371771982494773 0.1603213947322981
Ni 4.495468994212228 4.219369626669411 6.674893220760143 0.11904798990480787 -1.5629784968417018 2.590771329138783
Ni 2.451300294321761 7.633105887431486 9.446925190964087 0.3343156589659984 -0.4948350286417155 -0.6186354456298443
Ni 6.66027199205889 2.1081136725312817 7.046383279939419 -0.9751278978031979 0.836580918633514 -1.1682370284894785
Ni 1.0526551771232275 1.374835234119239 11.239104892795421 -1.2382150003405126 0.12201092918787375 0.1963050119157587
Ni 8.530964760441268 6.698648136814245 12.158806745499685 -0.02860686510341525 -0.30835163080206895 0.30140528139122286
Ni 7.34698419896187 6.756152806336651 10.00826311010509 0.22272952465587445 0.5356543766509227 0.21617038338111805
Ni 8.52716287453211 7.243041554322518 5.306629294502689 -0.13964663999176596 -1.092028245237384 -0.7619268814630491
Ni 1.220313765131758 3.943884057574579 3.3603614470658116 -0.5380799553732798 0.2555008055496245 1.1418117444184144
Ni 2.6037604998645163 1.186142597803644 13.36255070088711 -0.4409771022809954 0.3103164678379236 -0.5828408045287382
Ni 0.6218978391470349 8.10493367051456 7.493697602020732 -0.034734061047075666 1.0041808493050965 0.005641000335861252
Ni 4.481626465034539 8.845889170111848 10.308930905674861 -1.0218011334900208 -0.8545069069843154 1.2777343985913736
Ni 3.7884281491588228 1.9713190691684395 4.931049688649079 2.529510939666405 -1.4761870529777543 0.6478290364746649
Ni 5.612600491886465 3.9852375828612034 9.864847728557791 -2.00863552109687 0.5181595623002689 0.24902779623077115
Ni 7.669155094787016 6.978311199823721 7.59506412541272 0.7227219291288134 -0.034207756229960445 0.16149638887700574
Ni 7.23845180771893 8.284355201914323 0.3992713098287407 1.1830954336585495 0.40676060430028654 -0.024745582375796094
Ni 6.665970240337198 5.179249626438265 11.732087651640981 -0.14392906941720374 1.1801448356706579 0.1379859644598914
Ni 6.8594358466736916 2.197261026222938 9.256942661790639 1.5211024254332062 -0.40579978304891406 -1.6891538418199104
Ni 0.8582010804503535 8.928632865368556 2.896353639433482 1.283967523985279 -1.9123759898414872 1.1783648609520996
Ni 0.2817463132642779 8.180458363129299 10.068694773719006 0.24798958477424388 -0.42363295457559297 0.10699440117438347
Ni 0.5667943125084626 6.371740915651664 3.31408928914153 -1.0927095875751245 -0.2937881311655973 -1.062052781921216
Ni 6.055909550065406 6.291214223744391 0.4831610675607179 0.24059432075143725 -0.023565960245398122 0.13155794944636054
Ni 5.837992778689038 0.7307893482879012 12.647941812581761 0.6888124208655622 1.96554768876846 -0.5176589685147664
Ni 2.043628190809406 0.9083346718944212 9.002828272090719 0.638001765971598 -0.1766260454295926 0.7857113854771566
P 4.084425579821389 8.001943787645214 7.9430631102588185 0.27298404993605246 0.5523374937335584 1.1165671109190125
P 8.833494105930898 4.1070261883464445 11.967122070779437 0.524598118836761 2.1294328895926165 0.20694706501063714
P 9.483460856492574 6.924929057190766 0.7382364640844223 -1.2286078162680518 -0.06680703032222042 0.48964577113129215
P 2.0972118792014007 8.743155800026733 11.784192727055295 0.771652079170613 -1.291509855108911 -0.5091272768946715
P 6.380755507783262 7.431001296968877 5.61005918308839 -1.0758423795061407 -0.25334544976951856 0.3750702151755412
P 0.32938073729625184 1.8436215084749852 1.967145239722142 0.0021748961641317385 0.7588716395764931 1.2184380748239017
P 4.370666363512255 4.883078133529256 11.561829123340837 0.6945333825097394 0.03659296863268537 1.0338068997016452
P 1.8135637068654562 3.0219679498721344 9.904027307998044 2.464858493793342 -0.23791214593358384 1.731747765231037
