# total energy = -340889.1405394742 ev
CRYSTAL
PRIMVEC
9.06049480605044 0.00000000000000 0.00000000000000
0.00000000000000 9.06049480605044 0.00000000000000
0.00000000000000 0.00000000000000 13.26094999750372
PRIMCOORD
 96 1
Ni 6.5937479831233405 1.9959273613690713 11.372193194938106 0.8867385133245116 0.5100909263595215 -0.05846200079163479
Ni 4.666852532409231 0.24689033162201451 6.210275221107806 -0.19177395681462456 0.11075129711365443 -0.462214671503533
Ni 2.800472127142621 1.6302548476371357 4.806524591564182 -0.4994722703034108 -0.4982679655826645 1.3404441189157688
Ni 3.3165760377251052 4.1956977370333695 4.798819546699898 0.20072550958095753 -0.01867469359136784 0.41119241481939506
Ni 5.080781241986858 4.492048404273493 2.823588167784963 -0.08386938512114588 -0.1691413070167732 0.22403153129674963
Ni 7.150343245420883 5.85554416101899 2.5224055386138384 0.3386351122769587 0.46095071718944486 -0.34717708830969884
Ni 5.064834770960118 4.1720498453403065 11.586794640879441 0.9261540390076565 1.6076455007317734 -0.6369051904733095
Ni 5.792356269575532 7.88480508313089 12.445600898519437 -0.7468895275139524 0.12353379359030338 0.7251068844212222
Ni 1.9589243001911127 6.4508549180308865 0.3126867395476307 -1.203123298843702 1.1540177995663028 -0.40435353752069075
Ni 3.044226621479206 1.6734009243583496 0.37792502098731096 -1.25646469057932 -0.41723527857936527 0.006776142381568974
Ni 0.5282186983153567 -0.21980579421279045 4.515274076904144 0.9131080044569757 0.17686875756801798 0.8614637979181228
Ni 8.359493471518357 2.4139785961269076 1.307167565992008 2.064926996599747 0.7856129122260793 0.9663997739015808
Ni 6.764656098451408 0.42129670403157377 4.826746710134966 -0.048104825927026834 0.5601683026318869 -0.7273190615811926
Ni 0.8517626289035232 7.528492060632263 2.487807132782754 1.2067362130059411 -1.6148726146078318 -0.5902633222450544
Ni 7.442299572633751 3.683190842926803 3.878231586425168 1.160572055745053 0.3851725937168657 0.16476400388468398
Ni 7.727306500257125 4.2760915082948845 12.7970692743942 -0.0011582819741592955 -1.7354223858691467 -0.3193068442619921
Ni 7.765596151711105 8.831989220139649 6.929164786230507 -0.020546713803100098 -0.04933227057622472 0.4700681061096807
Ni 7.048675432130513 0.9325967402172531 0.19052680493840926 -2.1700936005367724 -1.4521361826761379 0.8156572811069694
Ni 1.822427944499158 6.743354874937848 9.356594593088266 -0.5763346279791042 -0.7070099177101954 -0.5652279765429814
Ni 0.2545038654877928 5.042446288058371 1.229698522484716 -0.7671541913002595 -0.718414302892395 0.8330073423496429
Ni 6.460984551330826 1.8658005335929109 7.04120686618316 0.14161121991730452 0.37965346367084934 0.35240414103659307
Ni 3.3024597866684795 4.355017479382346 0.35695269343867714 -0.5387471566436334 0.007369810101509889 0.39815177958535297
Ni 5.625751889325704 5.333442202811674 5.184501257372432 0.43552045004179835 0.974134166431361 -1.2292130539522186
Ni 5.568534864022372 3.0008540323854533 9.313470261554814 -0.5269514495602861 -1.4836432521454836 -0.13615765300190097
P 0.2556237426576252 5.7780859901055805 12.378950991974094 0.1020033757176953 0.17606425938885162 -0.64770716618482
P 4.213773424361976 6.009028944651365 12.531942884683822 -0.8358946911997668 1.5134829612147354 -1.0127107411529785
P 2.382484315849095 8.782564220451656 1.196964766504371 -0.05517304562771789 -1.4788530298456917 -0.25073835116397464
P 6.247782045802291 7.529244081709091 5.768845191355482 -0.49444936316752264 -0.02722026916853377 -0.22061556363666524
P 4.990547773262254 1.1780546075953315 12.65412909472826 0.48014091696465044 -2.058614681228474 0.8438712816473404
P 4.12691045974075 5.805457745203183 7.901073201726635 -1.943383236856279 3.481581441429507 0.6738447438121362
P 4.740577779423199 0.9767938343470479 3.962411738506043 -0.3838659590903002 -0.6100824138535106 -0.5565625875584996
P 0.0035988285748984068 5.4036791592885445 3.56992740826142 0.9321627070955818 0.030897460909804855 -0.40185571079950144
Ni 1.3751022507143913 1.0899956576471 2.6472437555159605 -0.518729575871126 0.9016771369122148 -0.9649152189362543
Ni 1.6289229548866069 6.359887549219255 4.8512399460023445 0.35100520380653744 0.3448273571305997 -1.8346620827987759
Ni 6.095393582053005 5.466749264298282 9.259299374637386 -0.6571328303740941 1.6763240370450934 1.296704254825657
Ni 8.762884825525475 2.460014970721718 9.996210264119284 -0.22419531056812356 -0.15021464531559936 1.8070162960570495
Ni 2.1516138452625237 5.361393829582977 6.954825013841206 0.09959579471746718 0.09046529317110873 0.7521870284674659
Ni 0.615081662936583 0.20037918709436225 9.491551570696444 0.8842178037851869 1.2514690371369415 -0.5000132304085453
Ni 1.5244554486716557 1.3779563066083818 11.503343858638143 1.1574695055603292 -0.9028145929507678 -0.8351184751553746
Ni 3.774393784605875 6.806298133018964 1.4764737858214807 2.2701735339795097 1.070426350696892 1.200831674596048
Ni 5.434131482652677 7.634735423847918 7.91349876443463 0.19293660966415804 0.3660538706095438 0.820775061949509
Ni 5.415376258206454 2.71754141730867 4.96212862495403 -0.43353658684255014 0.6240900409865123 0.2771811187365355
Ni 0.6688013372079138 7.677084177017796 6.655697304913755 -0.6951753869691124 -1.4123879562439225 1.5735125636038063
Ni 5.425342802598166 4.455289976457877 7.338609456881354 1.1237649142190325 -2.823262561167112 -1.2121057048479704
Ni 8.520199469587272 7.436147496595594 9.25367643150148 -1.8156264063235634 -1.5827561936892611 -0.5171483474269352
Ni 4.851061454252784 0.38783539031063385 10.636064226166214 0.2229007601264161 -1.2602912634142618 -1.5913845587882207
Ni 7.977956031213796 7.1321769531432615 4.369921087445918 -0.2958200739939615 -0.17716649131409487 1.439578143505469
Ni 7.335548821703608 6.270514827510297 7.159958242610415 0.9298602842146502 -0.6025475389290461 -0.44512300612856887
Ni 2.2190420483199103 5.200869041412093 2.488125156153798 -1.0382978455934635 -0.8566884880166665 0.1576477045548769
Ni 2.292395815042915 5.40580837559041 11.4667168079986 0.4036469983719693 -0.2522730426409462 -0.927316948967506
Ni 1.0487160428756066 3.237097376448648 3.7561242026863755 -0.5852046767752244 0.7109650457032014 0.37077595867556146
Ni 3.456026114754968 2.767274473823316 2.758662473419386 0.41370155439449396 -0.578213847279688 -0.37317685480757024
Ni 1.063104108779279 3.378477338892542 8.429734052193186 1.297167567615321 0.6350496253218095 -1.9762722742748158
Ni 3.9941289069584336 2.534709690690153 7.138767557134654 -0.6012182785946613 0.08212643428811017 -0.6215775589773037
Ni 3.782421383088654 7.015695230688846 5.857759452022422 1.0594832214218268 -0.8166034470703227 -0.3682161683681852
Ni 0.9630037611068782 7.937564344942656 11.835146430329079 0.3702601953814075 -0.9421794679016355 -0.7780068177440471
P 0.297703399128926 5.645503768211098 8.070256198825447 -0.3692340681097383 1.0628477670186856 -0.7207059271400491
P 8.529568021315482 1.8091815009530816 7.814943231142944 0.4683084431060967 -0.7517435131721442 1.1154695069794596
P 1.8159134486649382 3.4672701889278 10.48392130182876 0.8128205829891227 -0.4390310342982181 -0.10796807794156243
P 3.697325214973232 5.965502327144285 3.6696100671188594 1.4382992767930456 2.3900795010092386 1.2910645400413767
P 7.124085931196171 3.9144690357839447 10.49992757212185 -0.35699793105486255 1.1738626022063718 0.2662870975318511
P 6.403278259302811 7.556833288684332 10.094195892281661 -0.22196950656139836 0.8038222361452544 -0.30607414762180196
P 2.362850223397422 8.629459977605148 5.953026025664841 0.15799120393722468 0.9935205413777727 -2.1594867715552035
P 6.8215922484127915 3.8397924368053125 1.6156611084991979 0.020187016470836202 0.5086675636494337 -0.12099122967410778
Ni 5.098875050305268 2.992319046188187 0.4380613377479245 1.4616510641451086 -0.4650081750882701 1.268673573940686
Ni 1.5556960350922238 1.1533919404732937 7.269454323495731 -0.20724942674240437 0.996296047240381 -0.5237725376116722
Ni 7.246475096326402 0.7668975034080903 9.246224174444949 -1.6187598654773798 -1.0948263768078113 -0.2540537886904528
Ni 3.0919120061461003 1.9012723711325061 9.271035433683373 -0.6023410793451949 -1.5648916547040146 -0.14880593789353083
Ni 6.26215199071616 1.966381087495094 2.632975288144989 0.7815595680923121 -0.15594589137242174 0.2850715772282058
Ni 4.022506376990109 6.947134465768765 10.12468264552642 1.4895549896442282 -0.3726716330363775 0.1522535301224991
Ni 8.01214127847737 7.135175976955677 0.20371163711915488 0.05337661584892743 0.3794097230911595 0.8366194851809333
Ni 7.723301761510638 4.072429703897688 8.256930481331715 0.7115839102341228 -0.7327872837846154 -0.4843793805260303
Ni 3.318505923139137 8.226829705169761 12.242177385138152 0.22861195157858044 0.04205090642346306 1.2071445041879532
Ni 0.09947426747470321 5.045880215626061 10.143844686193722 -0.336906045400994 -0.4398784699001779 1.2814056767953736
Ni 8.707189963365604 1.8366076190200944 5.625944877867107 0.25662900561679675 1.0604085614495737 0.491006913144877
Ni 3.755946616986305 2.3364841832338907 11.43843175501492 -0.881392932741882 1.2484513333565403 -0.39165485900709973
Ni 1.1370739891555897 3.4507076042477545 12.649912340401073 -0.33243515411383395 0.43115445976361877 0.17857494162584728
Ni 2.9931707327089327 8.337068746637005 7.952750640447155 0.8295805760562809 -0.019470450019785823 1.1965495022809265
Ni 5.530399240981719 7.716461087859962 3.5231163613525265 -0.787381831201044 -0.5122074584818921 0.25566381349005
Ni 3.015577336600483 8.632857663193231 3.368546130430946 0.3102974416745301 -1.3422282073993852 1.0883407690834677
Ni 3.540705500104919 4.296278290935553 9.224900299694136 -0.598842065053001 0.1931171011060803 0.8222609024664161
Ni 7.107505225526322 6.048351492524122 11.452156592691798 0.4553238579209707 -0.29760724780137127 -0.3897108479068514
Ni 0.23104715023715208 0.29259962235087905 0.4632060231987252 1.8403141388782305 -1.3526879692801286 0.41021950938316454
Ni 4.629414567475997 0.5125005517601358 1.8107299395317578 0.16378544202149858 -1.152326527906809 -1.3971850232512388
Ni 5.818677007264555 5.400634833001621 0.5320449453122842 -0.11127760193076965 1.5127617667779947 -0.38815018828795084
Ni 7.89015983561771 8.632060339641894 11.397481942257842 -0.5430966918615808 0.9638440973592627 -0.19690793560708025
Ni 9.031655346285259 4.813541944865438 5.75189753564212 -0.2216226647449409 -0.5570133019426728 0.4616796249356694
Ni 8.021346741297352 8.711892360219512 2.53445962103087 -1.5835002709441375 0.4580741669725982 -1.016664583594404
P 8.400455968968297 1.4483744729832821 3.549399044962963 -0.1158708777284069 1.28653297071961 -0.38371812065852623
P 1.717951377789305 3.0850803929903265 1.5215751173424508 -0.5945964024027695 0.7595185291318726 0.34252082048461013
P 4.977989927328696 0.8473972824599529 8.400202275111052 -0.1311303749906387 0.7722722292531151 -0.3411740766487285
P 8.740197346291977 1.769750227141506 12.312964313655545 -2.2308490253482742 0.3046075903786044 0.04891446631251576
P 6.285383099643752 7.853057108995833 1.4381632952292276 -0.3233432191148948 -0.45253086855686575 -0.16447346922745867
P 2.0075338553379654 3.3174639662254584 6.262695620410253 -0.46340380671562775 -1.4727325187702507 -0.2796421786825184
P 7.114952952335401 3.763430585774991 6.114677033351988 -0.3418898717688305 0.45213183334623425 -1.0156415416465283
P 2.5388956393346724 8.65624280053415 10.208279301735635 0.13738406920983437 0.5870067629809697 0.5198760307707433
