# total energy = -340889.28225949063 ev
CRYSTAL
PRIMVEC
9.12638758924786 0.00000000000000 0.00000000000000

0.00000000000000 9.12638758924786 0.00000000000000

0.00000000000000 0.00000000000000 13.35739074625766

PRIMCOORD
 96 1
Ni 6.521488360934875 1.930824175322656 11.592706131881553 0.02389660411193949 0.6521340916079221 -0.8892013730427073
Ni 4.795752365924892 0.1827769007465291 6.111006266327663 -0.7080558424762063 0.09831409979156616 -0.8337678746647511
Ni 2.7846981179282997 1.4710185193724465 5.035202307882958 -0.07064748711423317 -1.2832432442247448 -0.3084079379613011
Ni 3.5698138569705895 4.417746521301779 4.964020135794727 0.6841142440589444 0.27606268886137614 0.032324166054002394
Ni 5.013617488763275 4.497374252399504 2.5634836108706773 0.1813990413382037 0.6861860389863086 0.8681196126717435
Ni 7.7081651507851765 6.616238516150529 3.19725190250218 -0.5818964383375979 0.1915703254442507 -1.4539362119993542
Ni 5.048945734846861 4.787575122708438 11.256673456094147 -0.715644967677374 0.3717275239555533 0.08886966654921469
Ni 5.59967758964253 7.8906655219899 12.864609691572095 -1.1935631659590926 -0.14161250546888512 -0.6422111760672552
Ni 1.530997138143134 6.56190000486619 0.5639222226759601 2.0610189197945927 1.8227208512764994 0.3355955541196865
Ni 2.80360799286635 1.7046722926175988 0.38242575409825746 -0.29462553946522807 -1.1988020457605288 -0.3587694211329886
Ni 0.6068408852585699 -0.053773587896951865 4.672067911721018 0.5151457151746095 0.2374416340550685 0.365642494103738
Ni 8.689124039584037 2.377633855446715 1.4861966144542376 0.0003666393107993686 -0.6238136473966741 -0.4739977801813901
Ni 6.985136226030316 0.6254568905185287 4.95378854274789 0.45341738492687716 -0.682811980307753 -0.8410366404120226
Ni 0.7268054239099596 7.6855043305770785 2.6754452203072137 0.86472549938853 -0.2960692138902901 -0.03571982199911267
Ni 7.737962806032635 4.193365157775284 3.8078446456695496 -0.5947856355954402 -0.8374504657226609 -1.0909406686001597
Ni 7.619657444632083 3.720910328724622 12.916396464906299 0.935120504172325 0.17880582668973077 -0.3553583385689106
Ni 8.252955727306391 8.876178478160424 7.001811048665118 -1.2860393189126431 0.24950576430845417 -0.9629796924764382
Ni 6.659342444399762 0.9794621612458492 0.4020365355977178 1.3058535254250931 -0.7304776618148322 0.05716359369518542
Ni 1.683380430537256 6.681118005018578 9.308084767466994 1.0120288845946055 -0.25860464128592886 -0.26088109602493137
Ni 9.252514193867677 4.671943792850769 1.4187955047148648 -0.6937939332405536 1.3255054953280656 1.105103076143471
Ni 6.422065495309819 1.8009739337113746 7.102271584551013 1.0866183870757222 0.7303028267998649 -0.20608754522381928
Ni 3.5080555926338217 4.033306573478218 0.03600998723120839 -0.8877800672151485 2.0446916433894784 -0.055597020539013935
Ni 6.086889787310387 5.700624561983155 4.718524874744498 -0.9646082292187967 -0.7869336879200318 0.18667391658389784
Ni 5.3597357353972255 2.8378136932851774 9.19371835491937 0.3594052549447746 0.10477913869061954 1.0270307573200763
P 0.05105392441647943 5.856110826133519 12.761770819098915 -1.731876063278785 -1.326468373461967 -1.0087203890466627
P 3.899833156022147 6.058871777629009 12.692446779509423 -0.4742124672953575 1.0508083193556483 0.019581007455721115
P 2.3390383626315545 8.645125725358005 1.3928154173663383 0.7864613762693037 -0.24588796505020882 0.21928836018480943
P 6.5045680384758295 7.513946498006875 5.7938880286720655 0.1607538542840264 2.2787350503962758 -1.2434117140501035
P 4.679473062553418 1.0300588536476585 12.896080213651668 1.0655448542348744 -0.018790650343941832 -0.605968134574821
P 4.129434813209145 6.063763521338854 8.316030929362059 -0.5308117038466407 2.119695350589878 0.23195232880572308
P 4.9731967184444414 0.9969848252811079 3.867018317061117 -0.7941931976959224 -0.8651949828257808 0.597942436056867
P 0.4915746109016341 5.67454134645567 3.620627757395336 -0.2526242553327779 -0.43380346735069164 -0.17620772694525136
Ni 1.6211019621119407 1.3144462151073957 2.51060167103427 0.01786839563998858 -1.0122607980997536 0.35097743589239555
Ni 2.049777510237011 6.601106965645082 4.908734305485982 -0.31087388300329044 0.07431645132538814 -0.07353560729530562
Ni 6.124088942835239 5.668225886292962 9.308471726297775 -0.6561990057059149 0.5674278124077776 -0.05439374425953213
Ni 8.53883068993162 2.4495954210290143 9.979733955770971 0.3153843692791342 -0.383155820397153 0.9017427000428276
Ni 2.3297659529128967 5.395565932794322 6.980131315115245 -0.34517805560179904 -0.8637073425366608 0.8617417341698578
Ni 0.3243572882351636 9.179503093720765 9.022703542406507 1.4400388851919714 -0.9391607356799696 2.341425487446961
Ni 1.4090959800603478 1.18930518945559 11.557815952398846 0.3023797294893502 0.7767480056362815 -0.5381234070167055
Ni 4.161295032035754 6.938628155236733 1.7265491561378687 -0.27905211050700324 0.11779869087873905 -1.2155152447501518
Ni 5.7681050712939355 7.892098364830282 7.772184933948995 -0.3463029132348616 -0.199014954647754 1.366357496347421
Ni 5.557979125071126 2.8659320932292567 4.801233674268421 -0.754202773345914 0.011296913070057963 0.25549129246792773
Ni 1.0603037018835166 7.56378570024466 7.161458032885107 -0.44782729243360936 -0.3863105639760508 -0.011262460287696731
Ni 5.039043604389437 4.417217190825713 7.288513774638265 0.31961383397944954 0.6095345117698406 -0.3359719636224988
Ni 7.896223491988582 7.309232499582454 8.955328899190938 1.2849160039414773 -0.41034035123174495 0.8374358104346415
Ni 4.729440034216461 0.4705674921118641 10.638600725716726 0.17220297666123247 -1.1160937708270198 -0.45686883381058735
Ni 8.694316954081986 7.077613910753897 5.290288489576235 -0.4228063449092395 -0.2767928821591814 0.09839868908557246
Ni 7.322374497608898 6.031903302512244 7.050178164596192 -0.0013878814864621259 -1.313433651765196 -0.2648760761169374
Ni 2.3467684128596087 5.25992043510888 2.392215084784805 0.6531429924884106 0.5403916342255919 1.3057085152067964
Ni 1.887784131786052 5.617127242577642 11.523568270597435 1.146260009997755 -1.2777457114452833 0.00956630353219643
Ni 1.162391472663935 3.3348458839227932 3.709641065416947 -0.3638524920828508 0.15294284288003981 0.19814206512449745
Ni 3.583731597936095 2.7011916721352702 3.262355900503181 0.3678402730860052 0.030356500804670297 -1.6226244906391085
Ni 0.9899757596670044 3.344373832491965 8.039906599161448 0.592675788341289 1.3502631618887198 -0.07295222398800985
Ni 3.861520581220055 2.4489657002902474 7.002491877173989 0.0028153579616080546 -0.4374752597753239 0.5331395806488689
Ni 4.280303125275219 6.812930419946308 6.114466079835876 -0.4878033186059147 -0.02180424035928503 -0.15456649452639187
Ni 0.2984438235155212 7.3118061408626325 11.128870263203234 -0.3469030087127058 1.0631095053205044 0.18219942575231202
P 0.1840308663915523 5.612153361380134 7.944949274949128 0.68460532476275 -0.3589725382827302 -0.4425624444902443
P 8.747998365465003 1.705831343832431 7.89608750881456 -2.1711133000505383 0.42551885874439616 0.4126610289451215
P 2.1183166804999236 3.3301366679633175 10.711826295970319 -0.306146395620634 0.2658572090832841 0.5541508927932134
P 3.9285265183798828 6.214075123766306 3.809220904907319 0.5607388304233762 0.15130453594566845 -0.20973259817557427
P 6.930067603744509 3.9238629343579987 10.640523655566845 0.26116057493856315 -0.23985410015130304 -0.5962843316281538
P 6.424246701926708 7.706084334430989 10.58092378187817 -0.6601705887591534 0.9825959240454689 -0.3763033162516939
P 2.533622070910591 8.616578385200562 6.044553388251448 0.5486093941496939 -0.21770636040967023 -1.5214644367583152
P 7.052808389478984 3.9514702566010493 1.742925545900821 -0.44026516381563535 0.18569844004450597 -0.42344012183849655
Ni 5.28139482493959 2.86892554833528 0.760216215975938 0.18007826564425117 -1.1429599990902444 0.10095102319378098
Ni 1.5897802001489159 1.0433560002619147 7.30452875945549 1.2317643596191625 0.20383885839895863 -1.0239878567286946
Ni 7.05958016901761 0.34621589898039695 9.150774138451709 -1.5675054381777778 1.4611335010787416 0.25042107703387195
Ni 2.8651654766777144 1.7193840292972016 9.381216335929148 -0.08986571191389685 -0.6548244939558916 0.10750656492411163
Ni 6.583958483498075 2.047769704982971 2.790359216105941 0.44479107671044693 -0.4072102902431955 -0.38179827792799403
Ni 4.060192911107318 7.092270889108389 10.62681947206927 0.20755513090828123 -0.12563618464528686 -0.6120814465614104
Ni 7.92680601656262 7.830723408769285 -0.06508118203220471 0.19797777163249128 -1.3549801077484147 0.2333479236016691
Ni 7.5896955144092955 3.955577130984313 8.310741275156415 -0.18397451537486378 -1.0681162145064766 -1.3494229253756116
Ni 3.119627413464736 8.61513641597266 12.439203215456102 -0.13253445442701692 -0.7202570125280886 1.1304960622952789
Ni -0.3543657630342959 5.121153712892157 9.99723197855993 1.1967870722130292 -0.23963838459607112 0.5883586490231738
Ni 9.104721474395292 2.1130690076768643 5.7878910794337495 -0.3220011032647035 0.41787985414189965 -0.843500785681799
Ni 4.185324810371606 2.712097705219715 11.547170021358676 -1.178309582234132 -0.8322601797709731 -0.29201072755020036
Ni 1.1039369606088143 3.582225743995565 12.955800555655587 0.005846431478447996 -0.7126385767508823 -1.6992420792938476
Ni 3.222646075772028 8.455570656601587 8.133809825615398 0.6174738212215753 -0.4885232274910748 1.2389868455095308
Ni 5.522796901187833 7.858038686611748 3.6576407346148128 0.32098063241998914 0.5666978762202886 0.07901514235263811
Ni 3.044380348375826 8.47022763495608 3.7168810286352647 0.4810510874837457 0.33444164302090146 -0.5408246079979525
Ni 3.3147860841574293 4.25329814460838 9.057739744089506 -0.6769087274494408 -0.4150354427145691 1.020051754899082
Ni 7.247629383833497 6.013212460874635 11.579548618996327 0.11657304600175407 -0.3149727356630123 1.3209631273730218
Ni 0.47998044819830465 9.300701519964637 0.40508657430635503 0.7585947317660224 -0.2726104686467176 0.22627481880497158
Ni 4.613936473784047 0.3987775026149101 1.803247316842199 -0.4104681350588608 -0.35059562707294456 -0.39857241206253935
Ni 5.799034398593672 5.136832846648706 0.3058480617091698 -0.3633878937416064 1.9903935441675464 -0.015331745261063918
Ni 8.09699489100507 9.28117105067534 11.293820591210142 0.021316759199905225 -0.3670609717178195 -0.0887655368711826
Ni 0.07255478077099291 4.59143992855128 5.48626762250683 0.7709676515090788 0.6600044954949342 2.731399102096896
Ni 7.880407462419258 8.907071299910085 2.178843795160465 -0.5578568808898908 0.31450993709398095 0.5092535180598907
P 8.7081890631099 1.466218039537787 3.480241101394104 -0.29999400286599304 0.1924175039358944 1.1718088050011368
P 2.1146022407799494 3.3366620350389473 1.5829171567351061 -0.6099798268373752 -0.8082687019523821 0.6728175880992026
P 4.835579921055033 0.9030569575808586 8.377728959541207 0.32090041400135705 -0.35234012056787706 -0.25052366405000726
P 8.719925597458515 1.7371896113455292 12.592065643194937 -1.0523820916006714 1.069258812751352 0.32073920583314436
P 6.361630557163213 7.18169123401332 1.459174293651114 0.5408860573635071 0.33389914025387013 0.5585755042234702
P 2.108670088893013 3.213601825741329 5.979582635508216 -2.203610244236979 1.022989497371167 0.6411518815648054
P 6.7097839882137595 4.04066244181802 6.062438369871186 2.4390050230653477 -0.03534932603357138 0.3461432477285458
P 2.291407746173213 8.659737071774906 10.391769361533807 -0.254652084396084 -0.4445409083728537 -0.9229460735933203
