# total energy = -381160.95945427014 ev
CRYSTAL
PRIMVEC
9.33290727674089 0.00000000000000 0.00000000000000
0.00000000000000 9.33290727674089 0.00000000000000
0.00000000000000 0.00000000000000 13.65965318424080
PRIMCOORD
 96 1
Ni 1.2913850627519587 1.2255227352953713 12.662430502029187 0.7416005112008711 -0.1905583392399686 0.16560552594937286
Ni 3.0764529277529067 3.5561083701935843 7.3261773754832795 0.39641808472369794 0.6604518674449981 1.1375151739255893
Ni 1.6533338771803818 8.807184717437728 8.743434426923669 0.3056653422191575 0.18440954602975337 -0.1998163675031268
Ni 0.9868896262210494 3.3228230170541675 3.044969297960919 -0.3496692586039333 1.0276074557591528 1.088261836216416
Ni 8.504033219571086 1.6456995589347405 3.1532356901474214 -0.31900962473654737 0.02399662002491351 -1.2969683071203213
Ni 4.092246568163137 8.22425132181091 5.265413559577827 -0.938591493440061 2.267747955257153 -0.14855062734961513
Ni 7.201150014913713 3.5500233145748097 1.7864090037929998 -0.13440004688084595 0.05511442447564056 0.07708141566503499
Ni 2.436206147839435 0.11583631337114679 6.307850784007197 -1.3085220733961915 -1.5281084244373941 0.30803127134817276
Ni 8.160246242925082 4.0713035239782736 3.7684114809370963 0.8379526021700602 0.9110236111241214 0.6850658093389362
Ni 1.7247959490714249 5.744880477289211 12.574899030192734 -0.6304530070900626 0.2782931208537917 -0.4999430392922422
Ni 5.3416895451010244 5.999995500815614 8.865019811247523 -2.5244252976133814 0.08266970838608989 -0.49054257191394873
Ni 8.550389770580988 2.040462875749073 11.594313782914142 -0.5653040811965555 0.691427489890906 0.20227948433163873
Ni 2.8635319785401263 4.891908739218166 10.495094216628654 0.5565067946198997 -0.18686340688688463 -0.2380831242938093
Ni 2.6933370793622413 4.345149692637929 1.5545095874011108 0.4198508618253414 -0.30703394043190996 -0.16658203093002924
Ni 6.425212094445994 1.1448024192726949 5.655574819757776 0.47954673502407724 -0.6784565315525348 -1.3816889844981688
Ni 8.164100733677465 2.769605598559526 7.350559596041638 0.5534068155383373 2.304103868178367 0.6502772409048413
Ni 5.200044009631472 6.423289515523497 0.47250830196083454 1.5095463451644906 -0.5529594435882734 0.7015982597763206
Ni 3.9372736409395808 1.0645020840826027 13.283165905751536 -0.6146836600709479 0.867562711727009 0.6242072832906669
Ni 4.77368880129942 3.5957545607895294 5.734363223950566 0.5131857632347613 -0.027660699140062042 -0.3994710126174088
Ni 5.46211204916399 6.817548855338729 6.09791543186872 1.1194362049366915 1.0298767114093037 0.4739877528790611
Ni 1.6316162016820852 6.358108490306435 7.885594644357603 -0.8659614286781603 -0.4910305672939608 -0.2889056062623154
Ni 0.308288330094514 0.08817544244641469 10.721557214465426 -0.2062412971928642 -0.018209323919175093 -0.36570291502802826
Ni 6.434209017170685 4.100067544556593 13.257827062185626 -1.1558646229670546 0.7453478940584454 -0.21268576726662727
Ni 6.079091890952298 8.869127223790196 7.694701223168492 -0.6911402976677904 -0.18088893447100463 -1.3889112132782209
P 1.4529376896860005 8.438086895947983 12.111646172491316 0.9345756874124485 -1.7828247864125102 1.488284607572237
Ni 1.7819226752102617 1.7572651338838763 1.5962538155784984 0.436689530649235 -0.2269060246310673 -0.556639463543022
P 8.88109201106515 6.385407244424406 2.8001466047050463 0.476123054054509 1.1157338163844397 0.8528768275800602
Ni 4.957341752934779 3.729131140310869 11.475666397836898 0.04137342074046423 1.420475361237747 -1.1950765172798257
P 6.910196627006795 3.404009978446382 5.412050333919957 1.0634825723892072 -2.0220533371646723 0.8684708253635752
P 8.886551761888743 7.940652264927908 6.748811059115049 0.6455561812800883 -1.0598295490176521 -0.8287840482969145
P 3.577872710228835 6.954247949891179 10.093008300675532 -1.984548141130363 -0.9204593026157244 -0.11119892617403429
Ni 6.59051655015112 4.821361292251417 7.211340616493683 -0.8152155655838605 -2.516489844816389 -0.07233155968487544
Ni 8.098275737850441 8.620694561955577 3.0233589508976166 0.2005470750215643 0.48609019256954994 -1.3916851764789322
Ni 1.8505755419766865 5.954637570896525 2.9795120186850905 -1.6206465409771313 -0.9520928703606054 1.0375493974632133
Ni 5.465415898380319 8.598444910736008 12.67853536702268 0.742247914976883 0.6007765630715524 0.13239458641504293
Ni 1.9335544215879266 6.880797968725903 5.492000685082896 0.22378599094484686 -0.63770608910805 0.11753181037059757
Ni 3.40607255097974 4.934541460179154 4.571872145300165 -0.9383001874518874 0.9444001297020379 -0.02656360942114135
Ni 3.4276502328671747 7.39965162220777 12.866901436890373 -1.1812208423436559 0.866972643551494 -0.2648984447144406
Ni 2.2470654466583095 2.7342618782707206 5.3525483828501725 -3.5698602684722585 2.381032560315622 0.9860959667789276
Ni 1.0926034682361787 6.7228198453225225 10.207449344391762 0.7682908760078639 0.6212410015734913 0.8796618089833882
Ni 0.3349795119413462 5.129300571609517 1.3795297066039838 -0.6194198892043525 -1.867296066783713 -1.2287991063432513
Ni 3.699321834104784 7.569230549497865 7.760636347302728 0.06789332140786372 0.6070351423867546 0.27232096243075676
Ni 5.316108045942953 8.025824377775976 10.028357384598266 0.9858488837651281 1.5015288741766528 -0.41210721332418065
Ni 8.202309656535233 8.420438368072057 9.265056220737634 0.2619933552525036 -0.9200741513621639 -1.5049852081563695
Ni 6.2054874557453505 5.236591674973684 4.701366235346948 0.325233237048756 -0.14241391832425795 -1.175114729445918
Ni 7.147812449175524 9.160612587418388 11.069879050812602 0.04791739250656909 0.30665521693625253 0.7611244401664117
Ni 1.5342179801521223 2.336754686683505 9.948844746791952 1.0419007324533733 -0.31166115479127615 0.3157312110955917
Ni 4.1788839474715544 0.9972304876100105 2.213942958328505 0.32973061069847726 1.1105754121119518 0.23479725445368596
Ni 8.7125770352176 5.357658149646613 8.97810758339209 0.09478860313681094 0.5692535527626067 0.15417337285303126
Ni 5.935514443652859 2.3857711162997726 7.4301543634329885 -1.3635745342856451 -0.2702615087985668 1.0231393926854704
Ni 0.7285155514337937 8.40598169452377 2.1954479357522376 0.836682991429017 0.24461038388936582 -0.04871314893498707
Ni 8.838263299048956 1.787727743607314 5.2731589394214184 0.7278852184973077 0.27718960337696774 1.013441705781732
Ni 0.9239428990333348 3.7877791303543997 8.169073306735262 -0.33926580388242217 1.6540459423731837 0.28438303580161345
Ni 8.288499056288895 0.5671122510180042 7.347909983633402 -0.06801570591834093 -1.3059211454382347 -0.2847702439377031
Ni 8.184539800863227 6.679216501992896 11.271181463614626 -0.5066003967077598 0.11820132563379643 -1.1024352995033206
Ni 8.94574106056094 1.0249025580236115 0.9015383215510783 0.2701504371419992 2.3123748499379078 1.824743281023167
P 8.981448764237983 1.5897301133123578 9.164329884432126 -0.27405877105746995 0.3366088258755493 0.06111383659218507
Ni 4.725913648366124 3.2004686011613144 1.0450728374765204 -1.2407182263783407 -1.4879776178547792 -0.4764974066747922
P 1.0339834769148202 4.724215059221005 5.501507184551123 2.204004394351604 -0.7001054772808781 -1.1794547515821687
Ni 6.069628322858069 9.102776560317853 3.5340528434477423 -2.110804732968468 0.019843517088488402 0.7203565142204303
P 3.225340799357688 2.4783815563382756 11.633817180027009 -1.135720543919012 1.033476255835104 0.26492132753257597
P 1.9087008892063348 1.2962008429655905 3.8287739260683096 -2.2501127586738927 -2.729046285594003 0.08396194483495217
P 6.829168325040224 5.111073403475364 9.88061466073033 1.030447239200793 -0.47283204200806306 1.821688039136611
Ni 5.363696540728434 6.4258840637781285 11.63183673707869 0.4966605118862285 -1.901203775274752 0.05841777781726068
Ni 6.112569029762952 2.021890390041462 3.338938148245792 -0.5826942516485448 1.6130551017831187 0.4793438749846519
Ni 2.750939783778007 7.900530096055035 3.161430916127247 1.4440958288701646 2.006027394050061 0.6233022549778943
Ni 3.941249459488044 1.4695315990267703 5.505386874153462 3.0402631537590095 -1.6612401461287776 -0.4856345930893701
Ni 8.449043729224734 8.956735225467254 13.134986401817715 -0.03591445450842202 -1.1831198591385819 -3.346413148924069
Ni 7.221813071876854 7.019214318238253 13.494521726394886 0.9324763816812585 -0.6056927694262473 0.06541683484291315
Ni 4.916360956581956 8.40215520249356 1.5496191439283529 0.7331354111526536 -0.8160645438477172 0.12077731389108878
Ni 5.024697345573888 4.632472579569842 2.567031110480141 -0.038947842018107116 1.1984590605988132 1.5252035920857734
Ni 3.7164290533520457 0.5198896062022408 11.063854659091868 -0.11306786106197303 -1.2336371511618431 -1.036821518158253
Ni 6.102050843133566 1.6638893954393303 0.2679449713164792 2.236941254288941 -1.6153742368345987 1.489868150009273
Ni 0.6409840795973414 8.705801344451912 4.670632038018439 -0.1373061647840474 0.9590986122544775 0.2836860097345888
Ni 4.84106305975331 6.886379047345578 3.69755884789867 0.15065353262523087 -0.5310289620637694 -1.2010491899234927
Ni 0.6114902256610641 4.319950842682879 10.94304857253514 -0.6456592825168558 0.0713501696082126 -0.12342143638215519
Ni 1.1822273779096393 1.7558465319604806 7.279119923128333 -0.41472202523920837 -0.77976390964447 0.6566646324884239
Ni 6.764547274266607 2.9249051775417585 9.606820756352063 1.1245295602991987 0.5486806137072615 0.6954769773699313
Ni 8.508326356970837 4.9330481949966325 12.805924886452848 1.5400015763305541 0.06739812693900005 0.3427627612920871
Ni 3.2739185823265897 2.699748786739693 3.3821579090816583 3.1123126634270917 2.3608735688692435 -1.3690682104103649
Ni 2.7070377874118763 9.037688864174697 1.0589947354313158 -1.0514660075443052 -1.3540318849025326 -1.446564087904999
Ni 5.608853352068896 0.8601590100526693 9.3783493168448 -0.5438500250878375 0.49607789990988116 0.555553686678011
Ni 8.725680437194228 5.484875010290051 6.407893951491701 -0.03887405135737821 0.8256334184830748 0.32903898394809133
Ni 7.179581665933668 6.85320989447882 7.652506215564132 1.6438484330148917 1.7506715987187333 0.7681085847937287
Ni 5.917231278074362 1.7566304961813044 11.71651327254431 0.09829507362817265 -1.022653454187987 -1.046233298390456
Ni 4.007027790778115 4.932310895312763 13.220003588403095 -1.8372051609356037 -1.4509136231229462 -0.942502655569009
Ni 1.6264177722654323 3.5513299216095158 13.256010878407384 -0.03394884614161896 -0.6391438499958412 -0.23959801827643895
Ni 0.4692660499332848 7.195811591886199 0.291742951872176 0.16058493280632988 0.1514482606123843 -1.0615419037230684
P 7.009620089440553 8.901820398380027 1.1232452697815192 -0.4880347178904305 0.02671890405208302 -0.3499464235247199
Ni 6.802980186901753 6.270855139110227 2.46058183536262 0.1290902046321583 0.09232702897019583 -0.5958834966453093
P 4.145425474475683 5.533266135111138 6.915213064729329 -1.6907715799289915 -2.1106620367430162 0.4188069939418594
Ni 7.3049132792841736 7.400752905279879 4.635594437092051 0.6085839749311132 -1.0392306418203778 1.8288254215123407
P 3.5827258220720295 0.5388326083332647 8.076748453662915 0.5406641711606883 0.4922438708757716 0.6921918788607563
P 8.199668443743649 2.9193334318294757 13.69544148999389 0.8741660759761396 -0.5287813036801732 -0.9276650763355442
P 3.304558517290452 6.493780965045902 1.338469580538339 -0.8901742784789378 0.6600302065265472 0.6940065634719919
Ni 4.3286491123710675 2.803353391684511 9.293864105980692 -1.191582388083638 -0.017584545850982618 0.17012526819659735
