# total energy = -340861.5811824183 ev
CRYSTAL
PRIMVEC
9.29638091970288 0.00000000000000 0.00000000000000

0.00000000000000 9.29638091970288 0.00000000000000

0.00000000000000 0.00000000000000 13.60619316856875

PRIMCOORD
 96 1
Ni 7.7462930806444 2.9952660477767226 7.0137615040012715 -0.033774525347283764 0.5945529507593438 -0.09222289929216375
Ni 2.451641579901977 9.009262208807463 10.936045925026065 1.0611534100353983 -1.7864392432366458 -3.1320577072645026
Ni 8.033932403121828 0.3372513186076519 2.2293744081521045 0.3847738156165502 1.3180991755616656 0.36505011193537773
Ni 1.2787357902270466 3.5556054085707145 4.035256831048465 2.6616687274802935 0.3660926942672792 0.2019758370482909
Ni 1.780247652470987 6.193797464674319 10.323916426049022 0.12271284035090481 2.076091754967315 -0.9230157504889909
Ni 4.158429230232871 0.25330871732643356 6.8888153553346685 0.28163478363251493 2.0188065480926003 3.491372459378
Ni 6.628115085527649 8.319405668841643 3.3755465951752672 -1.3146083887995876 -1.1139605265341008 0.7259147250344982
Ni 1.3176132552928363 6.410644846339697 7.5363891658985915 -1.6885066951542147 -0.3682020273007981 1.085590202921524
Ni 3.4158993958952752 1.559235492147198 0.5534758427504551 1.2224402540047592 1.8185775185320872 0.45829605317541716
Ni 7.90796644146677 6.150625071617042 10.682222188195889 1.3892161461131494 0.11823757818837055 0.6757931257877587
Ni 6.300854587509717 1.2812179239364119 10.069331315620357 0.03318599983366542 1.749251578442755 0.6729494856913765
Ni 7.874211282295588 4.293329013965456 13.283495526696488 -0.950898335831872 1.3882782076799123 -0.8452144259387959
Ni 4.425467772560658 2.6138448344375815 6.673633885132655 -1.3742386988677107 0.5883936160261674 0.87821787744801
Ni 4.495218518708104 2.7469411202689806 9.30858150429031 -0.9865870474827332 -0.7039860432822069 -2.5820686591584625
Ni 6.033174594897486 5.717701907903804 13.360792145248023 0.24158779501295816 0.7561557833072268 -0.8906800144707628
Ni 2.7000129893143883 4.072456299355677 10.512294570742265 -0.41056917941309934 0.5552076161925019 -0.44627100369008305
Ni 3.2769742792182877 7.386681176976312 6.787789724449219 -2.4268809861083045 -2.543010516814736 2.4707694599611383
Ni 8.758408665685687 8.528853131283595 4.54874057265915 -1.8474718329689341 0.23041249512242898 0.18203204693651232
Ni 3.2310315646426937 8.655934658650727 5.019773320373034 -0.8461729331973232 1.3000628868852449 -1.8549092630835862
Ni 1.603793045963633 5.49780531329209 2.368906578504079 -0.3281678941970477 2.1031695850207135 3.6742113184865235
Ni 4.0435352582701505 7.763351939658204 9.312962888624481 -1.8040330450590092 0.040890053346142485 1.0613151324242431
Ni 0.7178730431864727 5.247621109597557 12.096382078040198 -0.102474658927159 -1.3745518592327552 1.2310249103499766
Ni 6.727279580950121 4.682791596812466 9.381388900488838 1.2608121689147382 -0.19115946315907725 0.6154843015953723
Ni 5.592842215579887 0.8849187825505733 2.1269468830218146 -0.8060040742879215 0.9888668446558454 0.7636700894064009
P 4.810988689891672 3.3076337435384633 2.2130611188892044 -0.40514595151499905 -0.28397191640612385 -0.5816537261991725
P 6.592277537027261 1.1693266830153586 7.587738655625372 -0.7445927610599757 0.20099393275099578 0.8022806026897472
P 3.8651748936713357 3.136664001782141 12.41942015983793 -1.2319057702930332 -0.9717196434525975 0.7168371882132623
P 3.518819629215064 9.220810653340488 1.9306640256204333 0.7489214703423167 -1.9088759471080285 -1.9459083172709777
P 3.410684126191328 7.339697267736115 11.932386481260526 -0.2905472556307964 0.34644663790157754 -0.38003372982840355
P 6.558299264713665 0.5911708081614461 0.2525268916898881 -0.29096557411513757 0.13990015076346873 -1.2134455067053165
P 0.47407917174593966 7.879751925332224 6.270332709627363 -0.07020551448080813 0.737061228569621 0.4631978613524087
P 7.106469662865113 1.3444983889538271 4.138609346081683 -0.4310575291744383 -0.8130388696475159 -0.4597929494359178
Ni 5.345474815308343 6.775434834187995 7.870897122492634 2.3680392333797475 -0.9657112324749885 -1.6917239165399318
Ni 6.388584534383427 8.591715259158983 9.204888741714909 0.31546895857314056 -1.7189932937788461 -0.7500553268364437
Ni 5.620099204478235 3.397185781075229 13.556693851031113 -0.07140262011270283 -0.8426320099236003 1.6968478680300583
Ni 4.819411211017834 0.8664217734062879 12.140247981115145 0.2714737839391131 1.3055118258149583 -0.7663550924377318
Ni 2.4938285565802536 7.810726296897625 3.1565415234951186 -1.7495382564452384 -1.6140681164286654 -0.6583476766178017
Ni 4.887618757930243 1.207497623130168 4.845750647118001 1.4012571364380835 -0.5412231289879518 -1.413394543131566
Ni 6.125366804619493 3.1585569788815997 5.2696377285634375 0.8857463246145715 1.1545795856070438 -1.617738109081085
Ni 1.027677726724723 0.4721352984926501 1.209421973983496 -0.4631757498652217 0.17636147891429627 1.4586071351124623
Ni 2.4318031029889218 7.4424501661990945 0.8356135669911691 0.09897307353180373 1.0418907051510442 -0.9969671051654767
Ni 5.902448886204244 4.4171196224819695 7.306552880792294 -1.4160108977084904 -0.2525733474901844 -0.47434385066689916
Ni 7.568285978521077 7.344522089440837 6.120433215257845 -1.2538025703661246 -1.0056898297504553 0.8271164307865044
Ni 2.7750068943085835 1.9149801013467618 11.12506273108947 -0.282612574164752 -0.7753513823990711 -0.29559690223956187
Ni 3.001968738430102 1.272377065668223 3.3491643957228034 1.954538739252466 2.762052051096062 -1.3247619322938218
Ni 0.30691722762016455 6.2840374344001955 4.427115091262155 0.3391079381483192 0.004936260959352789 -0.5162384340181561
Ni 4.592123993563626 6.756172732892846 3.461946229937329 0.791266768077747 1.1170301665983602 0.5639388254179126
Ni 5.488815712928957 3.438852160421204 11.099959713653517 1.2321122298768845 0.5407904123259074 1.1461461101277097
Ni 8.61038239207436 3.0783571005643906 4.623996635595683 -3.109062789031226 -1.2463944508275115 -0.2882399476538584
Ni 2.2865843364196485 3.511252375134827 8.07801026368207 1.2825282204355912 -0.2819551430864112 1.7049519851944313
Ni 8.320493345410915 8.736952618490124 13.50810631607981 0.8727794800412582 -0.26307990344846305 -0.29191868205702626
Ni 5.653110653174702 6.82039213238459 11.065372528388746 -1.009534400307526 0.043151595686809555 0.5904939501986218
Ni 8.382574577287851 9.161704263362418 7.906218721851188 0.33261564555575623 -1.765313517001624 0.7605719100970514
Ni 2.4770764781372714 3.4560690579108844 1.9186633274727938 0.8557829454832616 -1.0164334414202043 -0.8725316256965102
Ni 2.141793203373337 0.1489019926953054 12.976266870315035 1.5719444477857378 -1.2419001625015837 0.31178251086048886
Ni 8.185853860344482 0.9842264422394285 6.060593340824085 0.15139606721821025 0.3245264407897185 -2.1387582807586005
P 7.66957004879649 3.601650383336582 11.199693147589148 0.05429347123624197 1.4872008875897547 -0.27525947623379043
P 4.301890980805627 0.5082201307258805 9.56835120636584 -0.6518358436412129 1.3053328770349326 0.6618037534872022
P 2.0881716781462982 5.419827270018095 0.4903292456184888 0.06760921450854161 -2.2521264466698114 -4.3051908875040175
P 8.914104453567525 7.738781604849767 9.612788836868225 -0.20715378170480453 0.018627899513832435 0.4999160427090487
P 7.599531114840091 5.693587095761131 7.6599194757489535 -0.07646795045075218 0.033372661923174785 0.6127347638746932
P 0.602608145624488 2.335455410989437 2.2723292658955256 -0.7455695231509482 0.5889759708921986 0.47736129733698435
P 2.698246676936937 5.925057684635616 4.624663186108648 0.596456852650276 0.6527583554554822 -1.640530681495568
P 8.2316943147298 6.546297636927933 12.821061001708419 -0.07465712249425853 0.20944669150403927 0.6959176644517757
Ni 3.7609810561635952 3.468014907411013 4.119614980557431 0.5698701033006831 0.8776074975575207 0.7453646062289937
Ni 8.008832174600157 2.7706468916505598 9.218100758298242 -0.08728740966375935 -1.4505037892790376 0.3499775338729714
Ni 4.884941400221265 5.597006994238297 5.480383895421863 -0.0429757322305776 -0.258081164682291 0.27648949198614964
Ni 7.750086004065453 1.706852724997431 12.218755918102376 -0.5110910854892617 -0.4484626120247631 0.3817183166196781
Ni 6.608629871090085 4.606849460963008 2.2099998206476537 -1.208195571160287 0.5166284703677232 -0.04261037847135887
Ni 0.7657363900630211 7.61587415252198 12.083633021227374 -0.1090001187505026 0.41577540620438713 -0.18459440834704982
Ni 4.7526167140073845 8.294826037652273 13.467341685684428 -0.02800676962557112 0.15476601213170765 0.3295030680687035
Ni 0.5290561093131484 2.8283495281076036 10.91716032715874 -0.5234115547278275 0.5561895204897971 2.173058339592051
Ni 3.957078915584391 5.2532640128244665 12.19019650623518 -0.33533664403134505 0.5741435338650565 0.6437150143062914
Ni 8.709100661212002 0.5685629393681668 10.092965504868745 0.8104672522655978 -0.009365757485616128 1.0736631124666347
Ni 0.42258558811468283 3.360967080956549 0.2639316918196612 2.4896750386163897 -1.1470267129604503 0.3397787389630987
Ni 1.1218779547284645 0.3745279468766149 3.7049796574174647 -1.4072043551604538 1.3300483775037415 0.20732733116819133
Ni 4.688629724038988 5.308893556333239 9.72030520092176 -0.9865286834409718 -1.1166365307043673 0.3518451832093295
Ni 9.09916750881972 4.8870237895504705 6.340336317336213 0.16576776255885 0.35440034553101546 -0.4129430789619146
Ni 6.73252273979687 8.676619106228772 11.599619736815413 0.9310702453623514 0.7428079012454111 0.7024508375846031
Ni 7.624956716694451 2.4284006275670955 1.1116612320820507 -0.1628091941511583 -0.16140177228067043 0.7228774808700712
Ni 0.21265564350225885 4.571300100271573 8.928397639253477 -0.12892925357426185 0.7693511989515782 -0.08947181890958786
Ni 0.8114680767914139 2.7133161104308745 6.361466991199086 0.8871712299865561 0.21337225181069058 0.25992181743545556
Ni 8.082738403025077 6.493903233984176 1.573747142785098 -0.3810940527721179 1.3774376654209826 -0.8522211962739323
Ni 1.2411133365873406 0.5651353637178185 7.0873711778744015 0.72279520556891 0.7313603215301017 -1.9322364762108402
Ni 1.3987799572271762 8.588117559737544 8.786063539688008 0.5488801313125773 -1.6801369830332806 1.5685130535066858
Ni 2.453380003136626 4.757004605808209 6.293340322800803 0.4823991168712079 -0.23327156183777892 -0.9149445434450824
Ni 8.91884560784384 4.56085096810181 2.574877194476733 -1.3695019555136736 -1.655516356271123 0.1362278441182041
Ni 3.9332987731553404 5.474843252385226 1.7853504359656334 1.1543134764298506 -1.0681442395309346 -1.4377475180546335
P 0.8332039450530886 2.2611215490415524 8.95751483397671 -0.1612117677570514 -1.15183236187921 -1.600134794177025
P 0.5196714127603234 1.2624857163544976 12.571197523156107 -0.539649870963561 0.43953805584162364 -0.03956619232839637
P 7.646858990174844 5.037309083728748 4.463484392751964 -0.3841019863605062 -0.13891079026700592 -0.5343207454411636
P 0.11937575721097858 8.04607347662157 2.606211576052713 0.7591488044972797 -1.7129851399115532 -1.2293994589314117
P 5.662230402870909 7.025182107978631 1.2993114701481638 0.28624245760785544 -0.4534258695673094 3.4324983107496108
P 3.0646077531630747 5.773610342840595 8.611945113709357 -0.8134767285158829 -0.3564060631071345 -1.5235498585324343
P 4.998069059806534 7.938756055120021 5.9373344852969945 4.500572102053926 -1.6049219311530232 -1.9319544261940471
P 2.619989742234924 1.4179119091892507 5.4031142363750355 -0.48442617460356563 1.2338698359979396 2.151819227707617
