# total energy = -340895.79057896207 ev
CRYSTAL
PRIMVEC
9.03507364781396 0.00000000000000 0.00000000000000
0.00000000000000 9.03507364781396 0.00000000000000
0.00000000000000 0.00000000000000 13.22374356281893
PRIMCOORD
 96 1
Ni 6.224578539223033 1.9484769013524086 11.332735479060558 0.7790324307950842 0.24472582642130755 0.6730474447218214
Ni 4.575090298658607 0.16360801911080813 5.78147322394161 -0.0037743794407676928 0.6698988717905108 0.40857914556626407
Ni 2.74729487748706 1.7123633188438765 4.52278444966085 0.25655187252195816 -0.7027817385614606 0.8531488502945241
Ni 3.5053014254584296 4.30872728920948 4.857583625287257 0.29491967366687916 0.1763419385302705 -0.292909842325702
Ni 5.231379986266411 4.5092065408178605 2.845776277938013 -0.028440257618563922 -0.2599824954700619 -0.6981861487709782
Ni 7.185259861725892 6.187046842833777 2.8053379983209217 0.6595535240004448 -0.7221889394434788 -1.7968781791817827
Ni 5.429040294862407 4.556731028783072 11.499381089968685 -1.0409795061906846 -0.39701252377458723 0.31299092934629325
Ni 5.465406466736927 7.734935678993486 12.297248576344034 0.2695937933075808 0.2831442782985059 0.9531490795392618
Ni 1.8884749765278894 6.515155546342648 0.4253974742238152 -0.1519552821557899 -0.22306762472158356 -0.27383611352370263
Ni 2.5486316757039655 1.7279939964446023 0.38452551106635735 0.39131290228664867 -0.6776995987818523 -0.07511297908475452
Ni 0.7110856029331687 -0.012574112148514295 4.873399521900015 0.4157705211083807 0.5718902190545054 -0.6124470574309452
Ni 8.583202613803728 2.201748088926708 1.4216182593523694 0.15981771562300218 1.4363514090380554 -1.126561760237879
Ni 6.847881172541676 0.6530063418042762 4.851249135075772 0.16373736239238254 0.0692547205317646 -0.9151569165662045
Ni 0.6329972674605959 7.405010925659329 2.601149848935028 0.6715338362907726 -0.5038009795857517 0.054852429063505535
Ni 7.68927241622235 3.81711085590851 3.7317402509872757 -0.14536297365025289 0.5376112432669774 0.12292521347202702
Ni 7.777219824179265 3.87853128731298 12.49592171670826 -0.6821391226104446 -0.25635492601980364 -0.09826499172118561
Ni 7.991206511055324 8.699881556309954 6.8683727198240145 0.10784440787950461 1.0488308839143035 0.4748917527505692
Ni 6.711505769243786 0.6022310343010638 0.3620345019614521 -0.42964650775952457 0.03906739831510691 -0.20756515821061028
Ni 1.7347612666890782 6.607927683686145 9.41693211493792 0.39494998481860366 -0.3006992564631338 -2.5034345542943273
Ni 9.169425304420997 5.131632771982012 1.4812181233946735 -0.9187819149133015 -1.5367367895363533 -0.053669207388681764
Ni 6.437869525419754 1.900491624625557 6.914536525681325 0.23738815510931371 -0.010512726605865766 0.6209391540623563
Ni 3.326027491959241 4.320409639578115 0.5377025375239646 0.18234829262535046 0.09986498921845383 -0.3062777789921758
Ni 6.161911267640009 5.7303509696061035 4.824153852383971 -0.7742717761816471 0.3043486802902629 0.7214705732202156
Ni 5.331479568427358 2.9231535531058586 9.165720924180363 -0.7195314472159737 -1.2673815946021398 -1.090285294404348
P 0.19219499247999633 5.663599844684624 12.46150079621376 0.003731956238606476 -0.8039675034738671 -0.8873026133580977
P 3.94735144412496 6.0513852103627395 12.603193340418025 0.0334096858086973 0.20797164962040957 0.3121056985278625
P 2.265951323048532 8.412105422055209 1.4607609093926142 0.77772039685188 0.45200944883575706 0.2772212279458516
P 6.359987189628856 7.789634015522268 5.961091393750964 -0.5512717714732055 -1.0148519558656974 -1.6385321630083005
P 4.534884220437088 1.1675393361841364 12.545061675861339 0.521010915706135 -1.31192184310636 0.6027267448193877
P 3.9476676717064776 6.197175160516096 8.315499702916343 -0.4267211065826135 0.13670324109272586 0.012193456742398355
P 4.760390626354145 1.1386903456759765 3.7727865910682556 -0.28396008933158196 -0.2726683184678465 -0.8733867746079539
P 0.2479567571900529 5.564313419161865 3.9319746520968244 -0.47153029247750405 0.3043486802902629 -1.2534768115955897
Ni 1.3273788260306307 1.0938583096905428 2.498679463420075 0.8190465092941766 -0.46326728113776344 0.6954175848869055
Ni 2.012183206417562 6.50202758417279 4.857755291688652 -0.28391458080562715 -1.0830705218234637 0.1716494181506076
Ni 5.885862659122687 5.501085973005867 9.094510990359485 0.14257101272741252 0.6257077790955933 1.1667774132248163
Ni 8.604724159494438 2.2973391692825906 10.335876817724712 0.20920166537276877 0.15217254037291855 -0.2672785149108429
Ni 2.408687418271805 5.213607996185124 7.087014276700013 -0.2256785799818694 0.1638479198283178 -0.13813894509798788
Ni 0.4617220847590504 0.0544778807290952 9.115893395914327 0.34873826214923165 -0.052831541978734825 0.718532316527498
Ni 1.5559752271728025 1.144680599577295 11.376836577578997 -0.6563432445932632 1.0160683447713017 0.3482533520930131
Ni 3.924384286633027 6.765933053559837 1.7251036763495315 1.0824794252066843 0.4953489921636566 -0.6678538163360239
Ni 5.576221646374441 7.83842341381355 7.9969139671480285 -0.13059018621645252 0.33949051829871857 1.3104378023616656
Ni 5.560229565823409 2.8868686968951573 4.807028773583731 -0.7082422474553995 0.36733505131481253 -0.15203910011884783
Ni 0.8300964979762419 7.448623226687481 6.973937618100961 0.7436483948688354 -1.1271698261355232 0.3057607301464412
Ni 5.051067019285093 4.534613168224357 7.011757533343086 -0.08912523420344651 0.018791164564574088 -0.2979450907567643
Ni 8.06031579022755 7.209808157125413 8.899499765389232 -0.3059859587833698 0.02138283655115027 1.3080759869977086
Ni 4.485200349843798 0.45035867249406053 10.31260246772502 0.19373956518142763 -0.8247345608178893 0.23015384214440363
Ni 8.128575772466556 7.473668451143672 4.516027117997507 -0.5913185029824461 -0.6715685461834499 1.0721248214452375
Ni 7.09891166182408 5.972192788876982 7.114968794906167 1.0659253775027449 -0.19391157198291764 -1.113932501509643
Ni 2.2117679857239363 5.273564745640855 2.615643010749666 0.5271499387243372 -0.14845626786359595 1.1590718170504424
Ni 2.137237662297124 5.381768788962409 11.406787847085589 0.46396019343973 -1.0768535943794746 0.6583631032367694
Ni 0.995945215378946 3.345190883399206 3.8883099476408787 0.8811525345963018 -0.27458147633015934 -0.651504428443723
Ni 3.6257660638691083 2.6572603674921296 2.4265967414742087 0.5575953996983881 -0.06401815472317363 0.7177471016220413
Ni 1.1323206186768369 3.420272346325234 8.241579246968172 0.1956684067730243 -0.250543204434033 -0.16748397391900832
Ni 4.017129318755251 2.421210030499901 6.7976922413253345 -0.8846998856279279 0.11650388332671549 -0.048391761039826335
Ni 4.211220773216977 6.869240086904749 6.173663188076577 -0.021622206255465987 -1.0116265069498642 -0.5539246357150203
Ni 0.8467616915222178 7.511633831073294 11.330526403526813 -0.8562038350707641 0.14615255943108377 0.5109100798267072
P 0.17312195177760814 5.552929226227232 8.064671599286111 0.6381550037200107 -0.10336426062096392 -0.481885410459583
P 8.502420019336626 1.567178718632282 7.906859579990831 0.4926454771895644 0.3480502349432716 0.5708525218186105
P 1.826774457836933 3.353972975091637 10.526682215860784 0.024090465290300445 -0.6023269382778078 -1.5020428376985937
P 4.165105756757958 6.19535911069081 3.8459535218650394 -0.38394592039861614 -0.2587303682305157 0.08202333305134261
P 6.9315730607587405 3.7828588912932783 10.10078510205817 1.0899770191353098 0.9178694304013612 1.9928409772667743
P 6.286676601159326 7.820823090133659 10.289381424660496 -0.06299305589276893 -0.8020669440170445 -0.8921046627324314
P 2.5527064939686634 8.341152987836423 5.81299930680416 -0.7200942616979792 1.013381284857442 0.5428840616301425
P 7.1087508571461555 3.950251702801164 1.4039384270234099 -1.0058744349574353 0.15491436478411383 1.066601577634163
Ni 5.238129186363372 2.804423648856648 0.5856706476106767 0.39699478316277437 0.6107190189962449 -0.5342410412431637
Ni 1.481706920884962 0.9711529729879687 7.0429655816093675 0.035541387439719435 1.3485227821588452 -0.6273422293752229
Ni 6.986614730090312 0.6585529735840943 9.224169719825943 -1.1246167206963664 -0.09606669851828616 -0.31618912456861675
Ni 2.808715308891529 1.8291958576039817 9.135504023505295 0.0725210499878622 -0.310253218700156 0.09699718075235554
Ni 6.405487821072355 2.050537094518764 2.5733407954163727 -0.04783254610224665 -0.48046127641854675 0.10648712252066177
Ni 3.808084817224623 6.923938423433531 10.609118228825535 1.0791508750540835 0.30110471943166855 -1.188696839005727
Ni 8.077084887121739 7.0225472184244655 0.3924754724657091 0.05172005408211093 1.058975428547473 0.028296275841531916
Ni 7.770109221131999 3.6772479141401684 8.089400596160784 -0.15718490598584542 0.39691276497192934 -0.16872427408401267
Ni 3.071952182820511 8.445761071802435 12.519817679782479 0.34264680453951313 0.20741423445504278 -0.1428144961967863
Ni 9.079435969794854 4.808303622490935 10.200584719770363 -0.3602915142044698 -0.1719209266444394 -0.0491396949494444
Ni 8.659666443014677 2.089216245275242 5.766372001663083 0.16823345049052316 0.67031333362011 -0.3026136998770272
Ni 3.7395899230679177 2.865862150408633 11.57160927660205 -0.6416126232513079 0.44144761415951067 -0.664404681445159
Ni 1.075517109962524 3.2958503456087076 12.54831430241409 -0.3469392612672799 0.6312245951487645 0.8358324705032638
Ni 2.9969881758533323 8.535154091560573 8.046277996130296 1.3656681835898803 -0.8979320680474857 0.3770016278702991
Ni 5.59835757708067 8.114318426076993 3.416076458072184 -0.09549874182995811 -0.6819915412889868 0.2871107191454217
Ni 3.079460329113114 8.245037873202598 3.6191406442826275 0.3067894285212716 0.8434946150342119 -0.4118884124451551
Ni 3.5081565087658455 4.304227822478173 9.309410219685066 -0.7940859826940969 0.5537379736255109 0.48547595602431876
Ni 7.21119955848409 6.010971325444794 11.29619764078464 0.8462336112319296 1.174045407641139 -0.08895836960827906
Ni 0.6554069609016825 8.818430759084011 0.07651623263874244 -0.7379320612103485 1.150665338154302 0.8276036548355683
Ni 4.3752435022132605 0.3598181983687019 1.487856192084415 0.17609305574425801 -0.31672391402616423 0.20342105413524966
Ni 5.969509371970962 5.600498889561233 0.4972696789511282 -0.4626635861154935 -0.3652678843731386 -0.3011330015664427
Ni 7.797106021519841 8.812801908132998 11.481303714394391 0.5001379289118677 0.05074303488082228 -0.08460240663242849
Ni 0.2782125086822781 4.51200741368273 5.852736464697657 -0.42424744823114036 0.7357821047468812 1.4460084725118452
Ni 7.900864808552633 8.875360758830931 2.395653420869027 -0.42885872175090656 0.022670187904006118 -0.09733888036249043
P 8.466839898879021 1.5847067617221129 3.5425087626997867 -0.15167708879373878 0.0013642273373782954 1.2200658402353117
P 1.7028042108082884 3.3092041846225064 1.7186634757750825 -0.44157925464136855 -0.13302579224113864 -0.4991462544225597
P 4.804228804226237 0.9541037888072929 8.12595108353996 0.2204564123509816 0.0213470982172084 0.4376698922846333
P 8.42433891192306 1.6292044999785138 12.51243873504461 0.2289773053377992 -0.3567058537357405 -0.6344199621576107
P 6.2624897087101115 7.601767726879561 1.3534901891902242 -0.9839848339731957 1.0929145044970792 0.24028064616576036
P 2.1115148073091095 3.1341586656418956 6.071404223287553 -1.4221954292526475 -0.02427018540127433 0.37025736716793006
P 7.029287383447669 3.959747565320449 5.979485900414153 -0.13377269770949218 0.2781134007428178 -0.026742043980534588
P 2.3406623479504973 8.702510762773429 10.17391227853042 0.722835314778226 -0.9655222563926338 -0.21502315715055229
