# total energy = -340860.23354815634 ev
CRYSTAL
PRIMVEC
9.31723753543684 0.00000000000000 0.00000000000000
0.00000000000000 9.31723753543684 0.00000000000000
0.00000000000000 0.00000000000000 13.63671893391403
PRIMCOORD
 96 1
Ni 3.145536613591189 3.173861015272796 2.861706542542958 -1.9039124324551662 0.1688111773708641 -0.9289452285995484
Ni 7.18574231358795 3.784475485208911 1.2417184766281582 0.5274594995449562 -2.5793489462344543 0.458787648099855
Ni 2.6609470966634343 3.8402857372065506 7.712546369706173 3.6031555401902784 0.02048217911375182 -0.6966458008670519
Ni 4.210981344214582 1.7015511620729533 8.971910762237226 -0.09455668963166296 0.269965831935019 0.7371314196859241
Ni 5.685424844777939 4.723373497529808 12.86282170883095 -0.2763943611691821 -1.1368973378359322 0.21138376062575207
Ni 5.605799733998001 8.675596524803078 2.229985734735348 0.7346274223171477 0.39491964580130057 0.8924643600646952
Ni 1.5411362858386684 6.343985818350091 1.3993456354337794 -1.001517186430004 0.03343179729588436 -1.037427784283684
Ni 6.385140055924978 3.392769507874557 3.514796434316609 -0.2332689907346176 -0.013027265497603371 -0.14106897426058929
Ni 6.271069118494744 1.918763917468776 13.325487766167644 -1.1647285011155877 -0.5196009227324858 0.6790944222468498
Ni 1.2485098109655672 5.824568468038834 12.123847386195223 0.22565672560499847 -0.8677126070413119 0.46904275016895997
Ni 2.730332563545976 3.9160814634170347 11.157672229675946 1.12964656981079 0.6395490558540599 -0.21214069339643465
Ni 0.9267241099402431 2.9599186102027115 12.452956435813224 -0.711036265260769 1.627649454657526 -0.5454050282797832
Ni 2.1375233342722133 4.282276844763152 0.649455237465758 0.927344459771332 -0.29189682768015535 -0.8471255269185798
Ni 5.601588342695342 6.696904136407954 9.77313634308194 -1.8000635188882999 0.8132625556225478 -0.4907536594834903
Ni 5.866337643281808 1.2299591913115935 7.329913518147329 0.26708413951184967 1.6722694073597457 0.42335347566196124
Ni 5.252014912862378 8.647654129854677 11.2393154540757 -0.25297238270081596 0.5808538560056964 0.5246035181533998
Ni 7.648492226061203 0.4936095344501113 11.628384653227192 0.4466003620050437 0.3347452903042493 0.2739374149882572
Ni 8.778486777358994 8.667593017880543 4.456411353061965 2.85202394957052 0.957360546517448 -0.731102954103657
Ni 1.6811370949399267 7.4912079415917265 7.48118538932564 1.4603853100588076 -0.05237439983665819 -1.3777896494437627
Ni 8.87562829444203 7.4708031916960955 0.8253115712352163 -0.12668185230098183 0.8860869957834417 -0.08470550786919605
Ni 1.6451166551698304 2.0653706478832774 8.785238047575604 -1.0031259256780207 -0.28156227852336674 1.459014654963526
Ni 1.7797880044809968 5.181651136053333 6.089995131783936 -1.5679517816865771 3.4399108011635984 0.01565416159748917
Ni 1.3010776643496544 3.056482458567242 5.658092728878928 0.5798788936869368 -1.945176838421592 -1.6412323355482834
Ni 3.7189939407949852 0.9939256163773347 13.637809949170597 0.4563836666440527 -0.38418143344819 -0.25757902823489187
P 1.5405958860697428 4.218127665296749 9.461305178489717 -0.7473237868378937 1.0383580094074376 -0.034011838169070455
P 6.0357063846529435 8.76690545127668 0.10189237643088317 -0.3478278345198203 2.6294301791615617 -0.08702464292067592
P 7.915384491248581 5.3420194261006415 6.727893267984607 0.5986731435753044 0.6860556840560313 -0.3598192025537416
P 8.173015422465065 2.57987781408723 6.661345831612664 -0.6864824871808047 -1.7802210302410757 -0.7166397274904756
P 5.325788798558088 6.304722979966441 2.912053166532014 0.20888053458792413 0.48079192028508805 -0.16857617854192258
P 4.884282187346042 3.6130755860856083 6.0770124931973735 -0.742549762488018 -1.416745976102302 -2.0757793659332187
P 6.539815513923779 5.037662549346901 10.682146521286304 -0.6538726715655835 -1.344133394841898 2.004252818648142
P 3.5185522127106403 5.90990504534207 0.30309252763920286 -0.45278540776983306 0.6673951315320507 -1.0956049068450484
Ni 8.235776333559572 1.3201034631107866 8.60571072227241 0.2060852312309741 -0.8225169843412803 -0.20705787955688856
Ni 6.425697990306568 7.000133627436868 7.200187758445569 1.1705147687800617 0.9109485349118118 -1.6133952587313567
Ni 4.6898314429068515 4.390133184850744 9.365166196150412 -0.22693713497931883 -0.6502926675238091 1.7336226136562465
Ni 3.5033278468067763 6.784262554225963 4.962238580908488 0.07693177746104815 1.5420576875286347 1.2339078883247265
Ni 7.563724000239078 5.646926019860702 2.5827260935589624 -0.48939071769769255 0.5865401077571963 0.6891304663266131
Ni 3.236631243604699 5.797604383016935 2.831855977376007 2.1493046888158793 0.2575988257292338 -1.0701982938464858
Ni 3.4312590155543985 7.8930510732121295 1.5110034083786406 1.0404179772602598 -1.3619999907096736 -0.36783924464474066
Ni 7.2899369793792035 5.614548619912155 8.781323876145851 1.2513193989329547 -0.9250381802356584 -0.42377127992567015
Ni 4.971454260416145 2.717717024112786 11.4090652704563 0.8216443519283398 -0.3918880580638283 -1.1764612161714838
Ni 5.764518873026347 5.301918036351419 4.7151547624234444 -0.005510388295267929 -0.3717383225888307 1.1082971576007365
Ni 7.691127904381937 3.559110147092231 12.530726484627763 1.2354618630754077 -0.8953406531712258 -2.0058296762169587
Ni 3.433811938600701 9.308171723279832 3.3022674541593857 0.7925821444550608 1.137422357101467 -0.16167533765703124
Ni 5.301918036351419 8.601617659884669 8.247624132631392 0.6816318439567228 2.8475507442905155 3.0937991780039367
Ni 7.733605189666952 5.516438110140011 0.06021637356186092 1.276873850363291 1.8358350200609543 -0.5071742669333588
Ni 0.9652937458616839 7.7198715817463315 10.560970258618442 0.3666405963509492 0.12103056755247542 -1.4273425206712258
Ni 7.485282178608338 0.12615073571319624 6.097536503731663 -0.4692150140807661 -0.6269143978091848 1.4065479525233777
Ni 0.3993740637106572 3.7655521760591264 7.587183872276617 -2.6906448029976695 0.7763098896575985 0.6942302494470237
Ni 0.3382492595027579 5.964401566866977 8.546117671892292 0.3286337780898727 0.8842972508728706 -0.8780546123972685
Ni 2.483714606930695 7.815373265047802 12.958414701058896 -0.565781020832974 0.13036290069699485 -0.4859937762010017
Ni 7.002211371376012 3.005824638849184 9.578226258839164 -0.8846476922337538 0.3260698740174385 2.237303008503734
Ni 8.4051637094055 4.532901213458397 4.783011270649423 -0.18552566191206757 -0.15703166823743278 0.21207101650076382
Ni 1.7412612278515744 0.6255062104649677 4.789651665741029 -1.4174368315217394 0.7382218245366253 -1.1011237797807487
Ni 8.807705633830546 7.573590954640664 6.55722943061553 0.6767590892454538 -1.1131141193734053 0.6219812221736256
Ni 6.864353526875664 7.407157143049037 12.495420676965885 1.3928390875777175 -0.9812887751982714 -1.3316236924106615
P 5.788324414571251 8.6462285925332 4.946310763581282 -0.6829500485475142 0.10986760895712046 -0.1260989832143183
P 8.811525701162605 2.581871702889816 10.74408472031881 -0.2250563730168382 0.03320631154863959 0.6569202001426557
P 1.0639446554027543 2.4602724376442073 3.510364224487681 0.7274509591733666 0.21457655653143687 -0.4535384838857737
P 1.240431766143872 7.106881216274423 4.861926407939841 -0.05688977120850848 -0.5536294730721046 0.8691089731682065
P 2.089604782348363 0.09678000827210102 1.1606268326822051 -0.9223945719652243 0.2916356035989687 0.9400361963063875
P 6.17142126455238 0.8517576178579376 10.085608533606957 -0.3223502590740061 1.2619583667040397 -1.883047416080699
P 4.9297223541227515 1.7082409385227537 2.4277310543175035 0.6002482013719082 -1.7593698978236798 1.8112429325438872
P 7.742214317020178 8.072491748207545 2.647105408789028 0.5045111182788988 0.4827125343465687 -0.2611878286320728
Ni 7.3748076948126755 1.4073780257922377 2.6112405668834326 -2.0438254387344412 -0.4824654513327691 -0.6088737382573901
Ni 0.19507499934467223 0.45534364046775616 2.428481091927822 -0.7650623417682372 1.742580851290799 -0.7444246109132275
Ni 1.2194959337167106 2.3689355594584205 1.3025926471501248 -0.6121143566818749 -0.3876981883521968 0.9965045637067611
Ni 2.4848419926555225 9.12342954020651 8.859653890927849 0.5623989917346185 0.1488694441416146 0.9319325933626467
Ni 1.3515118703702262 4.887897275455404 3.491859259296944 -2.3202339409710104 -0.9590698158990709 0.395860412448015
Ni 6.130621081998512 1.5264616369411252 5.043308795208432 -0.08965539567530366 0.9044590705327261 -1.384846299180228
Ni 8.97636626515964 4.880778906085422 10.363442962391336 -0.8864724041473185 -1.4689524829025282 2.0706646704144727
Ni 8.107468657389372 0.728787786991485 0.4155105871555174 -0.20233887681466442 -0.6270822908456167 0.15483157526232044
Ni 3.6819299704366197 0.04989660142286494 5.693466552373793 2.013373035781855 -1.1222641613037898 2.114778115793919
Ni 4.525848064750181 6.317869601931162 11.786611842121069 -1.3564934590691478 0.30682362419331677 0.6252506369535167
Ni 7.492111713619067 8.14667559234865 9.709944043896032 -1.2091363378070015 0.05041804744123575 1.2692466728353367
Ni 1.0366171981224408 0.8802031436256829 13.187729616107426 -0.17063460373284806 -2.329342073919866 -1.6153824643647148
Ni 5.478554222890861 6.630015689147344 0.7506264597222476 0.575026450690642 -0.28941057092319195 0.24524698903210018
Ni 0.3961186209647515 0.687680135603574 6.653355368822484 0.30221954976240206 0.26559547078146517 1.5150153386988618
Ni 2.800509995607115 6.06031320861384 9.909026387044408 0.007323016023974485 -0.42667585516697487 -0.9046814709561773
Ni 0.6808971867798207 0.8400113766737265 10.488300465554067 0.1802253327450767 -0.4786656179707046 0.5453140112278737
Ni 1.3332594023129014 8.043049278038508 2.892962147109115 1.6654066188016416 -1.6382704247064817 1.4441395376239063
Ni 3.3945677346918433 4.44121028025159 4.789201643174837 0.8112010451078288 0.11524352855705314 0.08520892986817584
Ni 6.186291575435224 3.7418025379385953 7.641362676006345 3.96110657918703 -3.5119230298358426 -0.2876264824395756
Ni 4.89703748534016 3.4840132136863913 1.4871522123705005 -0.3009795067077139 1.58247800032721 -2.359616556533691
Ni 7.345700645189867 7.030889828078639 4.666199201977501 -1.401460510698141 -1.1908254553129556 0.17917169466958174
Ni 3.9353774620626294 2.1712051474560976 4.669171400706591 -0.2923046046415353 -0.7160278049380894 0.8522438219817515
Ni 4.9507140899742845 5.3084028335785245 7.307222318194899 -3.934029263354263 3.966348030091627 -0.8181864752867264
Ni 8.620485065610083 1.8416544607855594 4.4830307003002385 -0.2588247277165349 0.4353044773762503 1.5726399311908656
P 2.629333710181298 1.6259510978477696 7.050770017508917 0.7036253175086785 -1.0835456616876693 -1.549416698996867
P -0.2089884299470221 8.520436570459722 8.603501605285993 3.0670545629202404 0.3425444746336939 -1.7462426164131024
P 9.116516150059223 7.427813458354342 12.225468631017902 -1.126717569089453 0.022740379020309225 1.2107664172112567
P 2.727257875205538 1.6897741740053376 11.390205318520803 -0.8335989531870547 -1.3249275113374084 -1.2643137543100935
P 9.29373000531717 4.725628268979462 1.5179438185143737 0.8051106159393747 -0.16087418191197456 -0.0844126592191256
P 3.5667223300441626 3.057302375458025 12.933295429041259 0.4489665482443752 1.2025041772024645 3.136175586087618
P 4.115330585114786 7.434056007409168 7.274698637619247 -3.184610541660554 -2.0455917866062445 -2.097022591582711
P 3.248976583153426 7.906989660355446 10.878855764070106 -0.5204123628901876 0.551213150321128 -0.32607167378965135
