# total energy = -340861.61547529267 ev
CRYSTAL
PRIMVEC
9.39611061559176 0.00000000000000 0.00000000000000

0.00000000000000 9.39611061559176 0.00000000000000

0.00000000000000 0.00000000000000 13.75215765933613

PRIMCOORD
 96 1
Ni 0.5412949053201384 7.924181794964324 9.956906322520405 -0.7537785413243019 -0.8327535744676239 -0.024106406129900417
Ni 3.6751947505384446 4.133753142445506 10.758602221750644 0.41535837327162667 0.3081505705348564 -0.1855621715769578
Ni 4.399973147730074 0.5711839335490662 9.789418769553954 -2.7296278691290863 0.13441521638949752 -0.8483318885218551
Ni 3.478195892994371 8.49936471323965 11.828739366841788 0.6818192773771805 0.2100532147397866 -0.6863526464711599
Ni 2.011359650980496 6.735367073310632 7.242010061873316 -0.4250519464103067 0.47070831079684095 -1.0290704134579245
Ni 8.83883679776745 0.788969806858892 10.148913966045239 -1.8965243675212113 -0.07651088787354565 0.33966535331368597
Ni 8.460201723721205 3.2214753556568154 1.3875518596826297 0.22102771147341935 0.930721603773681 -1.206877623679812
Ni 8.059401224465267 3.220601517359019 12.089851646334074 -0.08646774197594141 -0.3654218934524997 0.6075611900935537
Ni 7.4464647332808465 7.797099397354689 0.7625686149325666 0.8471052152036056 0.21767884960584447 1.4886702730464298
Ni 5.1732260801725785 4.6524466430181235 0.6290884055275603 -1.7903110674872265 0.726556215273239 -0.13891747513522526
Ni 6.215978260544069 0.33835394735104923 4.717100341333254 1.2930481461303085 1.787005143042445 0.7680322230298386
Ni 3.923956782088543 7.878967710136409 8.399336537252006 0.0013698837643331245 -1.092496186012738 2.383026450817199
Ni 6.893663350761982 5.051236374578057 10.663780430717935 -0.7650533429071726 -0.336794202413478 0.5130962888447486
Ni 2.2417522860554118 4.35136706692899 3.201392108584665 -2.1467081317332966 0.6634037509844704 -0.8109789017946936
Ni 5.603953192100361 6.005712094650657 9.079119778995704 -1.1522360250755317 0.9932145801015797 -0.7787838051193877
Ni 9.272326366249557 6.074078196314812 8.20126464386268 -1.4218673564892672 -0.16343834309472496 -0.1899777841461502
Ni 3.838658888890741 8.244119365286547 6.244580021603124 0.49147433969959875 -0.20892038668692403 -1.2976049122630557
Ni 0.5194094842101672 8.75352011234819 1.1750325064364047 0.6226769626890696 -1.2519791440041406 0.20073553688328655
Ni 4.824667956569842 3.218412223559164 8.630702609398446 -0.6095483957269114 -0.16957813744387568 -0.5752048852500351
Ni 7.132380939942787 3.19660385055717 3.4333501357070317 -0.5704714843301079 0.06308433005499459 0.5680227656792991
Ni 8.348012161617026 7.528549156609332 12.09704436909712 -0.08576634503354261 -0.22416188622702687 -0.6568926893388299
Ni 9.102980262580909 5.079715986197636 11.039613584544794 2.0025818587036226 1.928018324364434 -1.2351073079494665
Ni 1.0294190992470496 8.915011067447399 12.580611449320468 0.7652163508475982 -0.6675427128535083 -1.5870059701045507
Ni 9.101871521514889 6.8030566550023 5.580130292958071 -1.957843892366299 0.7803735182040108 1.604705701377159
P 0.5271406041179829 1.0390407166335387 6.712675465900113 1.1960638208937595 0.3862815105103283 -1.4680068311598073
P 5.448297221763857 4.076361698112815 12.274997310193523 0.8083872298081175 -0.773947560073009 -0.7211872376518418
P 6.539927970147572 5.322389337995347 4.39359412815616 0.19096765886324532 -0.9877245035212859 -0.25442119933220053
P 4.949288573168481 0.7745646295002722 6.636007900406892 0.5532615482097246 0.7802408492808885 0.44263057872401834
P 9.04510022049031 7.284269069876964 2.5781856683734548 -0.5688614595305106 -0.9421545282009709 0.3929524947726007
P 9.206967020018679 4.7556911077083015 13.109065629718366 -0.7961112406542419 -0.2959360307465355 2.0174348645560545
P 7.982334324266064 0.09913178702409817 13.146911284512605 0.16904771886170242 -0.18476564381759147 0.41695528544510124
P 2.13041777002757 1.914025339938854 11.9494014019903 -0.5647137559107243 -1.3045466336882112 -0.018774452394025733
Ni 4.426348030546357 3.9357582971641585 3.3954631380255846 2.1438889171169464 0.4257294320933055 0.14267694217765753
Ni 2.971003231954041 5.552236998647981 13.328179173474197 0.1402037980468166 0.30929959653763506 2.1211511091997983
Ni 0.822878491257683 2.984965852497325 10.307118161611443 1.213496671658226 -1.0477677327571118 -0.8770521392746832
Ni 8.992763883729818 8.704622752114508 7.7154143087321865 -1.6846055603275956 -0.9228956799713589 -0.23278999421567007
Ni 1.6938180888941667 4.055943949498712 12.176297744262959 -1.0121319858313729 -0.016945626715403075 0.5917512196444905
Ni 1.9553964154786114 6.544701194397899 11.436322077578255 -1.8787801561639126 0.6443238515348838 1.9830227056247722
Ni 4.674348977127407 3.504495606924823 5.924621779837298 -1.4197281986590775 1.8798726178971432 -0.609107451534751
Ni 8.211402107728192 1.9052023919643293 5.237358294342249 1.417923798460487 -1.253879189240331 -0.3066408187585493
Ni 5.8820968619000205 8.175170704757194 12.846811722772504 -0.6056585737542021 0.8088351159788135 -0.2398409875251805
Ni 4.574120663981235 6.468122891956604 3.416572440389341 0.7769935459881845 -1.3339788229063994 -0.5264950787491577
Ni 1.6434925198296786 1.4593945223165126 1.1325780593295942 1.1511502482105207 0.763512223672298 0.9358656098684657
Ni 5.5087987787478445 2.7530416513735827 1.724121485606243 0.09706428654486508 -0.5829958420493636 -0.6119477491970235
Ni 8.06861880909041 4.24104733085988 5.854830288175554 0.7732921858771973 0.6821229246605285 -1.4751994922535043
Ni 3.8864193197262145 0.7151173161400773 4.623448366086304 -0.12096037643617231 1.0387549877355402 0.8413932524204929
Ni 6.9408224305108 6.328816154288549 6.633436184900367 -0.4566394914086007 0.8522674761308354 -1.115286444434376
Ni 1.615924330950812 0.5496067048710059 9.959821935679612 1.9196524688982424 1.302012811522764 3.2077995781825077
Ni 8.874053420779717 4.883440629179695 3.4964309250861283 0.24746610817060608 0.4191998585049039 0.17505587272899528
Ni 8.831940052492369 9.163585176782917 3.7034977152763187 0.07168029925412171 -0.6784485611327348 1.6106110111180003
Ni 4.832034507381373 6.15409547528292 11.961653930380908 0.5167392849139746 0.31204219227977875 -0.23184100003883942
Ni 6.077517172841624 1.7903161460809283 13.166453315606764 1.2190237721240424 0.48587370568336974 -0.35797186493235766
Ni 8.224340552202015 0.7294745733339791 1.7561227595270485 -1.7786541999745882 1.603976022299986 -1.055854366419988
Ni 0.2508404512433513 1.5849359577665922 13.06939055216519 -1.422286960525189 1.3407572792808136 -0.22222558843626244
Ni 3.5011505915053016 5.579119271443631 5.081559503122666 -1.1413240061487182 -0.10822595958863943 2.077695609119325
Ni 2.544880214283465 6.703664595711008 2.0119685189557344 0.1790912191406335 -0.7032699910517889 0.9897821573812631
P 0.9839137349865349 5.024194367900015 5.830254760563872 0.22791261151871073 0.6996766172735757 1.2599467355906495
P 7.881654997804901 7.023752503804895 9.725140915667984 0.4309240889203675 -0.3753103562108053 0.2614616511187497
P 7.373644875131148 8.277212467274062 5.626942656220988 1.448957784948156 -0.2410092968016688 1.0648653116693467
P 5.9186477326358045 0.7946751252935366 2.185657505003322 1.1119442674350206 -0.16531319151993465 -0.33409351565286327
P 3.10439041986283 3.6531796631004134 1.278289186070531 0.19749363290722116 0.5888944669219858 1.345198859991935
P 4.8211444150464695 6.914034118822441 1.3329426037367933 0.2348875001746471 -0.012259534093643403 -1.3825685588896448
P 2.9997459346740314 2.8852073448876028 4.602049663512095 2.426934722164375 0.7136083968633194 -1.1486948446914929
P 2.8143606699909935 2.136140001461527 9.126069325475264 0.7686659999590955 1.4717369876262008 -0.6007842763810363
Ni 3.664802652072178 2.9238253599837654 13.169822760914181 0.7525104732451556 -0.3335175885447353 -0.632481093263685
Ni 0.5946629350386746 3.3135008641365764 7.6920771885145856 1.689147414062007 1.863436840938623 -0.17727447764686888
Ni 6.434653945539931 2.58580967261896 6.487663043828619 1.0796337282277728 -2.1404374682332366 1.418663761950305
Ni 6.913977742158066 5.751086890005667 13.412163490392086 1.3142705458441948 -0.3047045209677849 -1.3205823469948355
Ni 1.814144682889655 9.033317497636153 8.06790940273037 1.3880082418479773 -0.11507846373409858 -1.5126861763450528
Ni 3.096788966283074 8.354965283556481 0.5710927912749949 -1.1029186668976425 -1.530611650475222 -0.3001377275327089
Ni 8.486106801001041 1.7402160836739358 7.9497786798122485 -2.7392173125897337 -0.174435465536177 0.953255523210139
Ni 2.786397844461509 2.0931527948763824 6.46818960434278 0.11504066851762769 -1.8331973253277913 3.236214381879775
Ni 7.086029925716662 4.522958841061866 7.836859979515498 0.017049499283119024 -2.085157207603693 2.8875902767109043
Ni 6.297668047221936 1.0027717292196243 8.66806718332336 0.7560848208599752 1.1907583495204461 -0.5483923930428813
Ni 1.8530257890862294 5.701832477564283 9.353296410845584 0.640736905514574 -1.0758673192068053 -0.13429180343775585
Ni 6.811391005218917 7.470687906740191 3.637789773337395 2.3280642356487067 -0.6461963859672484 0.334598737424056
Ni 4.256297218573036 0.6885949143853479 0.4234216358359902 1.263674835174514 2.1588558228394237 0.9110084416154697
Ni 6.317005243102205 8.461620536441284 10.229858641142295 0.19789292522816887 -1.0961204130288864 -0.28272287449037115
Ni 1.3159910803706165 6.544917304944667 4.1699018596420885 0.6145383927423351 -0.7239205774226048 -1.891935462598948
Ni 6.3748664929713454 2.6149094275466522 10.545938168399193 -0.46282582272497064 0.12647590693776284 -0.38880376271154976
Ni 1.7151002796953365 1.231134804377078 4.1466060823116955 -1.7391137186778047 -2.136311618990321 -2.0326547668296024
Ni 1.444548667364703 8.717542404366874 5.73381120081934 -0.5507914894026772 -0.16180697813888906 -0.5831814756976086
Ni 1.0037113402925237 2.998421083061243 5.1731762807857145 -2.8531436649972606 2.101380611441091 0.7764070773570951
Ni 4.970984192841726 8.620273866100336 3.242662645739623 -2.269202428315492 0.8012333923721556 -2.214003414545845
Ni 2.895843742232824 4.571893785738464 7.3158587941478395 0.24513488893426816 -0.4515170825803707 0.14603634556819364
Ni 6.755117698062976 5.61049288516774 2.1085492619169113 0.17739583371608156 -0.31460172547683884 0.3898232051149996
Ni 6.13709791097417 8.466365572359425 7.567744092904255 0.3004987104165534 -0.7906659012689544 -0.9500259605292477
Ni 0.6608557162912139 5.4611323090196615 1.4347898667615706 -0.8043865932891566 -0.19865885685991594 -1.1132778986447793
P 1.234987209775965 7.028018338075858 13.644698438713212 1.0789297601822128 -0.009564503759983528 -0.15058951215651484
P 2.9729952074285872 0.33604062488957104 2.577195318302619 0.080520523253571 -0.6294531050706385 -1.7111730264034786
P 9.454178693298493 2.4109950325060394 3.071407252370845 -0.7728003338424433 -0.4164999430752376 0.4996265364930879
P 2.875219279182683 7.916730679156233 4.283686881348052 1.353934954313352 -0.2299376123685395 -0.7556099381060857
P 4.761657638021213 6.013257171566038 6.981778197956336 -1.0626577624950668 0.09861954684712693 0.2649516665498792
P 3.6518548114876253 6.703241770728204 10.284935823402437 1.0449629163184648 0.16058287592380086 -1.3226225173533157
P 5.632573745380874 0.6984627098729368 11.395450875129281 0.29547734594256214 -0.2736844184371867 1.4123439903798645
P 8.416650750492321 3.6247846164773954 9.44586219569226 -1.5095309185455228 -0.23082772828297665 -0.5182796328179009
