# total energy = -381164.0876711497 ev
CRYSTAL
PRIMVEC
9.22945399215012 0.00000000000000 0.00000000000000

0.00000000000000 9.22945399215012 0.00000000000000

0.00000000000000 0.00000000000000 13.50823884502674

PRIMCOORD
 96 1
Ni 7.668623929878999 5.403171435548646 1.0708630643973922 0.3824377112842059 3.7383428588591103 -1.9327596957041617
Ni 4.535584321724986 0.5253146664424589 10.135231446305427 0.2732758701448584 0.8262422557116673 -0.9386251748914738
Ni 1.3892358412264096 1.4719317470567113 7.065768007539968 1.896761680342998 -3.8820983788129273 -1.6247767610954211
Ni 3.535665299665293 1.4653788348759618 2.9167796620086213 2.022660374621052 0.22853507559405803 -1.614419329120497
Ni 5.674618900545855 7.060873628202713 9.408460877573804 0.5156234261419764 1.9402233510710587 0.30174543833946094
Ni 6.7273950043790025 1.2737107683159317 13.185513311288842 -1.254973193635458 2.100423903954776 0.23068554627815754
Ni 8.362900360702502 3.3025016089297003 0.9536231589753885 2.093711782041923 -1.1334456318419062 -0.1507581765238952
Ni 4.071472009159971 1.1823945526591235 7.517523927390073 -0.4944601618008 0.4563106473142722 -1.1932530909178418
Ni 3.4894441951565707 4.545136806382839 11.034610336604876 -1.6955908556945056 -1.4533574566777485 0.10447523429695556
Ni 4.0397965238017575 8.181449299472176 8.19994697072944 0.4350784774083733 0.2557278339587661 -0.5822149980192812
Ni 6.06647381950089 8.411871842436385 6.676433652411079 0.0936046101310388 0.23791985924306766 -0.35348246170243636
Ni 7.988747534089267 7.880246075502099 9.71807028804279 -0.13753422163445345 0.16996071759427503 1.5290047109994183
Ni 5.5506211890692825 4.716850793879799 4.9743682442933395 -0.37659230824702233 2.651907791438788 -0.2444437764045145
Ni 3.6793678949529927 4.168141308006687 6.6181044274940115 -0.9105304735377867 0.016835840610416167 0.5545483853419483
Ni 2.143466803776882 6.249835377662787 12.61384463620329 0.12971729669319593 0.3401068117264788 0.0716234778742573
Ni 5.377098228632284 8.420741347514836 12.849833462739625 1.990519014001817 0.8307344871550661 -0.7256342176796019
Ni 1.4465230608122002 1.9338935968919877 11.103110419582768 2.7054312172782247 -0.33125296088027467 0.9965855534563416
Ni 4.177186172706877 1.9808715166103175 12.400589800207268 -0.10127935306747718 0.6728980636281509 0.9527063355748882
Ni 2.8861517196539497 5.964645255993556 5.097293493241176 0.49426501507085846 -0.7077408823389488 -1.6059328889160407
Ni 8.086727415372135 7.345076198317945 6.200646080819799 -1.3147989075438389 0.3605882195092822 0.27407856855181184
Ni 6.052601950476008 3.8858400053692512 0.8310873929768863 -1.430370251753956 -2.1263023143834348 -0.7145445355243436
Ni 0.6033967683302863 4.368955763258439 12.334791178349523 -0.39134606951742923 -0.03430700081198608 1.4526691723614724
Ni 2.32697603319919 0.906818752988042 4.738460636950231 -2.5594750901286627 -2.125980155157326 0.5511573573825281
Ni 1.344962151464361 8.31451033455649 13.79164107499136 -0.4721411865886256 -0.14594944228134218 -0.4958367304333525
P 3.326535106561632 2.6040811533609056 10.076213704136691 1.2385780401068862 -1.2979869781928226 1.5832220775820862
Ni 6.393242630429665 6.909888993885983 3.355635574316424 0.5167562541948391 0.3071054170997937 -0.07821115839410402
P 0.5250654711905149 4.90965408325424 8.460223104876539 -0.6111126548902378 0.992079180945556 -0.8561506132353256
Ni 0.755701214536942 5.251088496232608 1.3282106928614597 0.6874044847744419 0.8139832358386562 -0.5869895365897891
P 2.7578438532641227 6.643720776448476 1.9147120231099435 -1.3938096790211028 -4.2973500513033605 -2.6517658665442845
P 2.9179194995499205 8.022047403312005 9.974456207423431 -0.923787338547693 1.407218496227841 2.0172173492286096
P 7.675287595505057 5.9571509395276845 4.800908967087394 0.5637323658340614 -1.3592725644761814 -1.8813255482935858
Ni 0.32253987520874755 1.3736472937992468 13.204383852478642 2.472511125242593 1.87330396354069 -0.5427441936181685
Ni 8.385143344301948 0.20511630365660735 8.088773585274208 0.6489888611107211 -1.495744920505024 -1.235516370462427
Ni 1.0414331051428072 6.715784351529168 10.228208963641862 1.0486735324008327 0.0008795743914759046 -0.7329425784155571
Ni 0.05822770092553445 1.927220701812154 9.002754394392195 0.3769026403985896 0.4084688452406449 1.731653662855334
Ni 6.25734815303621 0.3466656673784359 8.567464743023324 -1.2458989992483318 0.5510408864093219 1.663566223158793
Ni 8.757902523395051 0.22426465140505894 1.2352377902519125 -1.9846368441894273 -1.5346482824384409 1.249220350312081
Ni 5.574008624936914 5.438501784602038 7.457547244974043 -2.7158691247820967 0.5771180431123479 -0.038534408629772345
Ni 6.665853006602613 0.16647534953387041 4.1408018200323 -0.5001291871611192 0.35629087768550893 -1.5611237030211502
Ni 5.887044008647443 2.8532487169435674 3.7169806879251164 -0.8617581892300901 -2.173668205261908 0.26588369144584534
Ni 3.453393948708673 6.129566365511598 9.441813354683063 0.5449913377811324 -1.108000452295924 -0.41537637099375563
Ni 3.2965116934292693 9.281138716847224 11.89590850062577 -2.515623897271668 -2.6911510532101266 0.7169672860332232
Ni 0.3721952594674088 7.1383179748346395 7.761752810257355 0.422613255061827 -1.9407766524713674 2.152480515440699
Ni 7.331213558746839 4.633619579730507 3.07302969970439 -0.5101588034829794 0.07863924707045811 -0.026848230541095697
Ni 8.011064353318918 0.467513366281362 5.835572267885723 -0.1374948837560858 1.7781068121115506 2.534813325715925
Ni 2.073276807812659 8.195921082992479 2.8216415295432937 -1.6846466979781762 2.8577472252075427 1.5919023789649036
Ni 5.542314680671149 2.917928729003696 11.102110869738857 1.452200203144854 -0.5980889889370603 -1.8227403916605251
Ni 7.492885900535833 5.836042047082906 8.547230088565472 1.8896934606423068 0.6478963993774907 0.6957968226031952
Ni 7.242287771617937 3.9237084542109613 12.322228968815413 0.6254527256619937 0.7211185891974355 -0.5446771489748232
Ni 1.0415438585881156 5.155951286712659 6.3024986409069506 -0.7774830840300933 -0.45963328392960195 -0.6588973784736846
Ni 2.6672752233631463 6.359241322719973 7.360652747455199 0.13534698417514757 -1.8584864389118834 1.6251745107544722
Ni 7.889226334025858 3.4003891956748094 4.990659153152833 -0.1022424883116949 -1.6244173208734733 1.2484032537274241
Ni 3.3189854133731065 4.886681972806515 0.8128638364967603 -1.0132190482479646 -0.08569126882123305 -2.391962576964564
Ni 8.130059700849062 9.038837866873683 12.360700100988678 -0.1852235572906165 -3.4743183321091906 -0.06802316211750867
Ni 3.6253848198189043 8.032892011498456 0.6847017954765893 -0.04763328560724699 1.1207844914344698 -0.2876673629798401
Ni 5.954095990327927 8.799582736646128 1.842902258008084 -1.7938702455933944 0.531314354514672 0.024223134213422797
P 8.567415826918312 2.8243512971718405 3.175597542459158 1.614107454307033 -1.3036650024142065 -1.239279437049285
Ni -0.39740920423725257 0.3251647318625575 3.908811192871599 2.6552350560398077 0.42451278607738496 -2.552870697438268
P 0.7001195980089016 8.612197136638024 6.3169113559230885 0.17194946588952967 2.2952885838795822 -0.2964821330579926
Ni 2.658193440847854 1.3768406848056403 0.3824722562466544 -0.012060787819276003 -1.1064081681081397 1.4164556985553929
P 1.5131966348878805 3.154359646375887 0.37392578205035315 -0.6659779394695498 0.7416005112008711 0.03382209075576756
P 5.031538249816178 4.662507770048458 12.396956164255773 1.8246633197148512 0.8252968610792626 1.6090480375062544
P 4.717146136400622 7.035991020823418 5.936289605158462 -0.49822194283607735 -1.7628668552333446 -0.4173494355597264
Ni 4.668063901221431 4.411217432097384 2.469846131756322 -0.31983546307195243 0.5092774293192907 2.9426918456707383
Ni 8.726328562028371 7.528834622992197 2.50288757627334 0.8313407532804974 -1.373365552234138 0.8024068438549665
Ni 9.425118195748194 3.1169157524078592 7.0188270056367426 -3.1583523792949735 2.4291972929463066 -0.23257967797707688
Ni 1.137179458611953 2.86555157882658 4.766975957335643 -2.193974520919428 0.20246383242830293 -0.11980235157232916
Ni 0.6883843475330949 7.34802962352617 4.597029410236731 0.5929048736329596 0.2724999112107823 0.3233609597267076
Ni 2.1996003416407097 3.061363670131901 8.481809874312532 0.5409498207219071 0.8762188447401102 -2.2403340820205737
Ni 7.135410696895294 1.6336317772070326 1.9945587965596854 -0.8769007012984833 0.23658751358488928 1.45074470164525
Ni 6.725779849968254 6.468684185592264 12.093331131614951 -0.40351150123536955 0.06674969472172375 0.38079529058477646
Ni 0.9226426514864854 3.852983149927747 10.193856936688693 -0.650128631142119 1.5199112333385825 -0.003485387445439159
Ni 5.897685568850829 4.967061285739114 9.975685570666355 -0.9219885947760572 -0.23242746866992875 1.2074098420341979
Ni 0.5283465420077774 5.163787092968231 3.8586149626216812 -0.3412712643482252 -0.6400488783086138 -0.21545201715785475
Ni 8.41987377885992 1.9454119552040654 11.408612723121566 -1.9899564566301275 0.6300331459438246 -1.4232920047509359
Ni 4.982603685897399 3.0766845633995685 8.699346253915103 0.3312092521265328 0.23393362090181002 0.054377803419932154
Ni 4.122473970724507 7.1269195994216465 3.285230532079227 1.4431738312765274 -0.5552322987828502 0.9865770201804043
Ni 7.519669775392924 4.838698042626634 6.602570333844126 1.021520883245441 -0.10305804223445476 0.089062242175995
Ni 3.145905466717343 3.61239897835649 4.33414503245262 2.325752042575762 0.242949194136859 1.0341552841799997
Ni 7.572942182586283 3.4350181062412486 9.704831559546923 0.07529295630604452 -0.349380780829237 -1.1242387685316575
Ni 5.2634836526533775 6.1940987063113155 0.9408680538573666 0.951697948915032 1.1438791684704042 -0.36739110136372854
Ni 1.2939786488073761 1.1596993258246693 2.383974370881801 -0.7759573914141862 1.1049696358894001 0.181939487222706
Ni 2.1520963430571647 3.6688186292873635 2.391998457994398 -0.8563100216313253 -0.9016964201859246 -0.14343130384517877
Ni 1.3522349610396154 8.967032716498712 8.662441360047575 1.818147115862888 0.10988612089988171 0.47740834852483593
Ni 0.6627873804315595 9.0856311975165 10.910536943607339 0.5402782485761792 -1.0591507777830726 0.15267930480600803
Ni 5.62067274322687 2.9049151991799547 6.34442804940997 0.5639370256456998 -0.8273347174448977 -0.02498855162453761
Ni 8.381073155186863 5.498197891623287 10.667820768213895 -0.9374434958785468 -1.103479424497119 -0.3407760698793615
Ni 4.663679910677972 8.913548031868512 4.6525888760757095 -1.3608558498029015 -0.26130198561243384 0.2141122153005087
P 7.374121289350083 7.618877174027959 0.9179365530062542 -0.1014421038975866 -0.8601959869492928 -2.1228071567459827
Ni 4.306269313213863 6.654565384634928 11.743508991045225 0.034956718580843024 0.6343058051772495 -0.10862370924769035
P 6.571020369057261 0.4284875439361782 10.993707243361714 0.014524933089052403 0.0234029523049726 -0.14387199092702319
Ni 2.8029758822273116 8.081872722686114 6.1287144869281 -0.5381977118980666 2.893751154105978 -1.1632416321574162
P 4.931509429795105 1.6995854538882085 1.0044968311324427 0.1407216182234996 -0.19257434122873285 0.43251045957088097
P 4.105177974348839 1.710799240225688 5.109112731746341 2.3165863169160943 1.9647185079989453 0.9938023342842499
P 7.185120534931231 2.008513730668549 7.5217787055806715 1.1076327845438603 0.5490827342416866 0.3875092122698423
Ni 9.09639274061897 6.780196709429801 12.311813530229532 0.17256241688318022 0.7914863402877207 1.5478023033218955
