# total energy = -381171.31874007895 ev
CRYSTAL
PRIMVEC
9.28185493039367 0.00000000000000 0.00000000000000
0.00000000000000 9.28185493039367 0.00000000000000
0.00000000000000 0.00000000000000 13.58493291490327
PRIMCOORD
 96 1
Ni 4.287158887575245 5.158075344062745 7.316219874747097 1.2444057025322568 -1.1268859763465173 1.2571905130017509
Ni 5.263201634014545 3.420066555355814 11.862499380718546 -1.5444914937811078 -0.1467984205451988 -0.6093069691400668
Ni -0.23126762785343907 4.968586273837952 7.524232743034473 -0.9770053173315689 0.5309526002998791 -0.8820711897558293
Ni 8.500833328960448 6.614918180516458 13.686412665817222 0.24261469361557575 -1.5228124661457774 -1.2733213571253423
Ni 3.8410914990441114 2.4529065441702547 8.155972503006346 -1.4957438920637594 0.6036078618727604 0.3962455637015756
Ni 1.4403953893590122 3.592903977675474 8.292650602726216 0.7592958715981053 -1.4671678801982797 0.489583550434789
Ni 0.911780751396717 4.786615506179022 10.223042544053046 0.34026107791615595 1.5337316841614423 -0.6666189154876583
Ni 7.064883948155817 5.420937478217343 11.96124810808639 0.21783517267805064 0.8161784437177622 -1.2116845581501519
Ni 4.184306652103243 4.781640431888524 2.1986941707084062 0.6354933977274475 0.47577029870078064 0.986448979242972
Ni 6.423758376388141 1.5083385681023622 4.787602167367604 -1.828453897105535 0.5598374016550294 2.717138992633456
Ni 4.498915127992018 4.899603527332409 -0.05455224650659684 0.08354902566724966 -0.6652680578867188 -0.20254610772946408
Ni 6.877306940065058 1.2061677779398283 2.774341824425934 1.3653362541717582 -1.163537823241596 -2.6349811908867777
Ni 6.775856264701013 3.993211820960062 0.011830652407960855 0.15944516277493184 -1.496898831603809 -0.07932418895262468
Ni 3.494869024958635 4.613063381022854 9.894124232280578 -0.6026462692904394 -1.6178334970083683 -0.5772095743848897
Ni 4.455633838035701 2.3835246778988703 2.65112705541197 1.7678735644193166 1.3832298466227273 0.4828997106567102
Ni 6.707151973846057 3.969654472920359 6.116331271728018 0.46186577280454644 -0.8690752917167937 0.5143311896931142
Ni 4.9210817398477245 4.719452003257317 4.769873824280199 -1.1445599965875126 -1.3633313079265876 -0.941620510074372
Ni 0.770563824572271 7.278598659981721 3.6979949965782 -0.9770837359779883 0.7302007540043619 0.3690160385616612
Ni 8.127739884593279 1.9973809453741662 13.185196207501734 -0.7619075981893394 0.6034793067146962 -0.5353458442715684
Ni 1.7524049458423046 5.954319276917697 0.25773205288527495 -0.285149995874625 -1.515053391025649 2.0975532672752
Ni 5.6134802787435785 3.402895123569585 9.150294934721213 0.8670950280619711 2.085651630741608 1.026482083905458
Ni 4.108993680474343 0.7967813522605859 0.8036137257405013 -0.3214678564690528 -0.04371286750691827 0.5213001648117797
Ni 4.602352120330254 9.626861570661195 3.388367164092933 0.4528275738616782 -2.1718337231563307 0.8945580093689304
Ni 2.3551314833939645 1.185283604145766 2.470420476406707 -0.4988264091892957 -0.2332175686713919 0.5940330737001318
P 8.88058186337666 9.196081397347315 3.1208798815820757 0.8287485670732888 0.686504598667992 -0.2846424601105872
Ni 4.85456796677739 6.8584462106652655 3.5626080028915545 -0.20502490828725983 0.6436299107916528 -0.15873913784684276
P 3.30699499750725 2.2797999480550266 10.455466691041925 -0.10843113362091004 0.9726838071380797 -1.3225366425077287
Ni 3.9327034080873986 7.13609433986606 13.53097408073177 -0.30626955146205964 0.9753384711521073 0.794644169190412
P 2.437832811618452 8.756669098865222 13.681929529842764 0.4723615301295478 0.9289161751338261 0.34432650623478117
P 6.670739256604233 5.384329842020107 7.754795878091925 0.11243434124303217 -0.5598183754916358 1.2317725871492786
P 6.64695914404406 5.54376426569149 3.518307565254087 0.33842839558279136 -0.9632445161020506 0.40794202620289743
Ni 8.894875920106818 8.64316129383074 5.278153774265592 -1.0992913545577003 -0.5423225326997175 0.8933524190966033
Ni 9.460530728710262 1.3626876991350612 1.3902817259227802 -0.5418386510847636 -0.3284692274875504 1.8880692947753224
Ni 7.218053119688981 7.75954725967645 3.3506419925513384 -0.6064108785391943 -0.5563972656252288 1.10819996990124
Ni 0.24660589327330046 4.47235974078099 12.400652981084468 -1.1847311694897598 0.7377945071912196 -0.5871211770716469
Ni 7.832159211494649 4.993665846100866 9.654336789704665 -0.5009552826068405 0.8407013685597907 0.23356389626721713
Ni 1.0127060737666538 9.203163452727258 10.53410999225185 -0.7098599855644807 0.3657070287930863 0.6024534365533432
Ni 7.875616856696339 8.439276066470573 1.2908684177355334 0.6015090703622027 1.280442027330524 -0.842345074810801
Ni 0.8333073081336501 1.2272468706893018 4.732488368632322 -1.1762125904957872 1.3505341561619193 -0.9912122049595704
Ni 5.900289598848702 6.427387581700797 6.05343278118781 -0.7019294178634943 0.8073323061810419 -1.3520747611761619
Ni 0.801257062751029 6.786910954029337 6.306492348256227 0.46087435542555466 0.9842473436059629 -0.22431486686512336
Ni 0.8576814594150758 7.84638829523967 1.2470849794226573 0.2366191381537731 0.9264551151878432 0.9464981498816474
Ni 7.8133820187900325 7.181148464131118 7.134901621496044 1.2344475628782805 -0.19991329809230732 1.085218421404402
Ni 1.4793977441513013 7.523481840963388 12.130258621581477 0.3707618176081744 0.24276793136398833 0.006829107106691465
Ni 4.54140746027167 8.216882820201358 11.425621956842303 0.6578722796432799 0.22075646008990368 -0.8462917181633748
Ni 7.181974549227861 2.9082650695759913 10.932257947873381 2.883682714126382 0.6743623068785032 0.1533709315563939
Ni 2.233372109247071 5.895388779398362 2.932715332068578 1.0544587716240421 -1.193655725672899 -0.8247034504696377
Ni 7.052585490254869 7.703392036807971 10.582092541775586 -0.3892282518434781 -0.3260883859601996 0.4019513558371013
Ni 2.0009637414117254 5.874365377779006 7.999460935480631 -0.027701579680326483 -1.0021535344624224 1.2751746082839972
Ni 2.5922643154342784 3.5320057268919878 3.7084964873473565 1.398876552021049 -0.34599000998013313 0.24478727578686232
Ni 8.088691120525892 1.459293246178884 6.324615170181964 1.3540735367737453 0.37483110258154156 0.6159869522634036
Ni 3.871907257709128 1.1000576113559521 12.107829947112156 -0.6624624701171237 -0.8064622448712627 0.2964499942684765
Ni 5.691809853253842 8.45358868691077 1.528984198222421 -1.686696381418353 -0.33844665041523647 0.6917720177145182
Ni 0.8103959772033107 4.6870304836739125 4.593908416818939 -0.02698655589117288 0.4835815672150833 1.062812542905376
Ni 8.225542790934629 6.077721539403057 5.041056213274352 -0.9276730467553442 -0.46200924036094626 -0.7710612396641495
Ni 3.1326539146744175 8.103913362758009 2.3445965779467377 -0.4665680633762223 -0.08244473685947735 -0.8956306736078189
P 8.253072772922712 1.1881609792018368 10.171650769180616 0.22472367226776785 -0.13324999243680277 0.17309232124472126
Ni 2.2377160173962363 8.494298903026662 5.193288845636039 -0.8412819236536091 0.6705174792111162 0.5375035140445195
P 6.0026591778596865 1.9248432483961229 0.8096209423091755 0.7623084331721839 0.7184513267779175 0.2514060666549605
Ni 0.6658162343052697 3.524710188846596 2.4926997130102126 -0.10367767809632468 -1.984436812363479 0.6942271641232302
P 4.961977593064009 6.0646526875354825 11.617997683978185 -0.35451398829074426 -0.3570953758646753 1.4000638874609308
P 4.93498595866706 8.935929564858435 9.329601809989525 -0.31811899460147797 -1.2653931034172012 -1.212016487568274
P 4.353616969515461 8.309859161932522 5.270437768187812 1.0637736212670648 -0.6044681529905267 0.01986254325188192
Ni 8.12350735870435 3.2159956908952556 4.181550869347928 0.6058694042134276 -0.06538263917086803 0.9075353954652047
Ni 2.8581616161802805 3.172482354563449 12.405693028360101 -1.4525413885343563 0.8711100627586352 -0.37823215784329056
Ni 6.335682854107315 8.751202086258688 6.568681547921906 0.16851575761763238 0.9241691473671437 -1.7005129755864714
Ni 5.612301483156092 1.2541364046810346 10.520946465463076 0.11932232661211709 -0.0915163601434424 -0.808865969216749
Ni 3.061295013283861 1.4267139350601468 4.865036042868477 2.3853412149933053 1.179803650281155 -0.32456397889587335
Ni 2.9450861884386783 3.0763037728505274 1.1245338630425932 -0.6764269027170158 0.5555300325289271 -0.07109305929208402
Ni 8.334558178139634 8.684261347857454 12.455983975227207 0.8755696411918856 0.8765901120366 -0.3814997728509688
Ni 3.0260239642094446 6.277114348933745 5.399467619371546 0.005740502028203017 -1.0142780856400984 -1.3702468040994982
Ni 9.197297320354881 5.509096537193345 2.107172295658809 -0.9910204006637384 1.70137378092487 0.17044305654733224
Ni -0.06210582012153372 7.538444191254956 9.142333887670915 0.3387040178416812 -0.7362171354017707 -0.5054544560287746
Ni 0.7641751237622918 2.4831375459690377 10.99712511986324 -0.12110178711004306 -0.12179469941200961 -0.7833670536146959
Ni 5.362591737564243 5.997470620903739 9.581929038696895 0.47324496117576564 0.48738191479778 -1.3386134934649334
Ni 2.9057868142857624 6.956583263787319 10.15263224824549 -0.38028312683504834 0.8073539034475967 -1.2453482689511843
Ni 6.10192861729413 1.7753032821756165 7.677402842753137 -0.0036915899189742876 -0.33302265118618773 -1.0470197988474936
Ni 0.9213067192033153 1.0192033722803622 12.863993901807047 1.853599286022911 -0.9864914024451333 -0.5103403233661663
Ni 2.638794254647449 0.1574109792771129 8.827489652664644 1.6954088215906866 -0.6034523101315027 0.741380167659949
Ni 1.9829105333986357 1.39478435379278 6.964492332449506 -0.04962203390250163 0.5609686870459951 -2.0973871740109815
Ni 6.228458864921088 0.5169854018082596 12.735956280924906 -0.35538250693862666 0.42145317331545484 0.32398573779490014
Ni 6.285904265637289 7.518794504178499 13.077386533263772 0.06592437060695099 -1.0451642336959936 -0.6605264294366754
Ni 2.77976706868488 5.488917784380771 11.948641492598792 0.1273210285468775 -0.12924241393930644 -0.6595542953313931
Ni 3.5641766363898637 7.2985360845637866 7.3417329096394255 0.9944710782165003 2.8972049169825334 0.915137890402811
Ni 7.176516818476345 9.109398153319427 8.699749979328633 0.06426215241317965 0.5284167212519029 0.5076062122644549
Ni 4.35698628288757 0.5030357018993278 6.928451817593966 -1.717297651243978 -0.6025603944448525 -0.18951909934217684
Ni 2.6376340227700017 4.004916240139756 6.279594460594977 -0.27398292351421205 -1.3958513920414801 -1.0610400243859854
Ni 6.3875869873768245 5.858614069810773 1.3582268396126493 0.07301598734640974 0.8047475761730012 0.6464565816071706
P 8.95879077377167 6.82914339436844 11.246558266175505 -0.8534607251079883 -1.1441051684382813 0.03589105746965432
Ni 6.982693121957407 3.4994821069033684 2.2187995968663254 -0.5393439096873678 0.9533465402620483 0.4592633021846929
P 4.742424594430786 2.668496190710116 5.924660965573622 -0.36622124942534345 0.2872706417620537 0.1980461629765815
Ni 0.5750155593906943 1.368080456901439 8.643467595046385 -1.965327602337854 -0.14282735171259273 1.1778946061839004
P 0.952828827035322 3.5629143041072 0.455856961020288 0.39997392039575635 -1.074739119139633 -0.13381974889734374
P 0.42185288515604463 3.132245513053556 6.289959508095346 -0.26399778727704215 -0.20172746848291068 -0.2665894592636183
P 0.981918160666696 8.737743396480292 7.557828417277855 -0.2244979294102069 -0.8209452689787861 -0.8773362461740051
Ni 7.954132068306993 2.96998940545622 8.31801419975273 0.717262705786455 -0.1001120722322534 0.5458986800867502
