# total energy = -381176.4859596941 ev
CRYSTAL
PRIMVEC
9.17344554388764 0.00000000000000 0.00000000000000

0.00000000000000 9.17344554388764 0.00000000000000

0.00000000000000 0.00000000000000 13.42626481957095

PRIMCOORD
 96 1
Ni 4.904004795026995 0.03256664943746356 8.351404938280037 -1.0131239174309972 1.6713978033880696 0.9055386767501501
Ni 7.8929060334044525 1.8539166740975286 7.427799495619992 -1.2997227299370067 0.2770443360483551 0.8418442239149824
Ni 8.16111923761069 4.525077275150567 2.9135670679286436 -0.7765906541228109 0.9276807600648281 1.7661892347383583
Ni 2.344998740612764 7.113080591295966 4.566299987912779 1.7185004133028272 2.4259335345933706 0.054864513248363576
Ni 1.366770015770421 7.357626305699477 9.209437674018043 -0.32576185585871636 0.5511301036890186 0.600311707619992
Ni 1.140002439055934 3.183708530412606 9.564227106329387 -0.41541390909991033 -0.3724929413666681 -0.10399289534389833
Ni 4.070505522362017 1.4679347745085827 4.597784170762366 -0.574948546264855 -0.6533875043990489 -0.2717280660417643
Ni 5.470336636290973 5.134845381614508 2.214326676564739 1.575185580430855 -0.2543510082158974 -0.2878134016394011
Ni 7.254250746557262 5.418038822583478 0.19222771911556336 -0.7818321050274084 -0.22049060802302672 0.8233759899074659
Ni 5.054605252426741 7.143031891375772 4.172427090367126 -0.10464209889212302 0.24049250506625033 -1.0286551802973767
Ni 6.067005062352477 0.3215925671570425 4.169204458906778 -0.5767254356596198 -0.6100003956626656 -0.5165665067815361
Ni 3.2737550730108826 1.6976286803886003 6.755773965495524 -0.6740527460578843 -0.4361624545011714 0.33246137936607906
Ni 5.42990008782182 0.18466879989174714 12.787778663276947 -0.5100171356987927 -0.8567666495527696 0.35339530130526875
Ni 0.4718820447489157 0.9730549014901193 2.529481319557614 -1.5146947221346494 -1.1491365602146015 0.10122304590824503
Ni 6.8140262627809065 6.164803166533429 11.376812821005917 0.09841900080054662 0.03569462518813207 -0.8562341740880672
Ni 4.982960641822366 1.0623859153269184 1.961926657987161 -0.0828586844684444 0.9283330489368463 -0.4524503930279175
Ni 3.523226927733798 3.3584351498980762 1.911618564643313 0.7691177427845335 1.6158786872748432 -0.19346882801854423
Ni 0.3631739616445596 8.62496534396147 0.3547380610156502 -1.0960440512649963 2.004946759391373 0.006185559985421605
Ni 4.748441503525204 8.42809402665283 6.003487207258271 -1.201935192072872 0.3229786366866244 -0.14997347583907075
Ni 5.261870083668129 8.09766651398067 10.609139442363192 0.36297985966991037 -0.16104387472061943 -0.3622905469123696
Ni 3.1092293250993004 8.962456409791809 9.866170152882772 -1.043059528648165 0.12075777350706299 -0.0513960950837889
Ni 1.4991061428611647 1.9284050528564942 0.5039606668772688 -0.21107445691544938 0.39744909709137355 -0.8635165666820935
Ni 4.8003632059606405 4.755147292302643 8.355594450912946 -1.342963800013829 -0.5353705268619167 1.6996547413512342
Ni 7.3319223109602385 7.495154603033765 5.092930991049535 -0.09672181560378182 -0.33473552011223645 -0.3188435314723283
P 3.802558348079919 8.764062300503614 3.2935431126440067 -0.3913890069402227 0.2618375464009297 0.1359365381300304
Ni 0.7600227249623074 2.5058000695863982 6.401884448203421 0.0001072150018256218 -0.007120927315497413 0.04523521768871564
P 0.2027588347332102 2.4515758322903087 4.310166376951592 -0.5766485596750972 -0.604978516968042 -0.17283186849448298
Ni 8.725964980677752 2.0717126209565637 12.297438728515603 0.6213451312515235 -1.4842436047336438 -0.14349146765915285
P 3.8234371104020135 6.142511693579699 1.5090052080728396 -1.8201039824789427 -0.07969519913879823 -0.876052237255259
P 3.535519344918159 8.079814988726365 12.098286892615894 -0.41828531711043443 0.31973210472486874 -0.6424896265396226
P 5.994819218454164 3.599687597309657 10.691106931368733 -0.44342093583579767 -0.5140694513912953 -0.7057804161784683
Ni 2.9073951736886148 4.541259233294755 13.171326847732301 0.387170597983501 -0.4467008921386501 2.3645289062336436
Ni 8.416021772164308 5.5650983299584755 5.889444765502641 0.19550231350880523 -1.2700082335917096 -0.23547731123984605
Ni 5.566300051339931 2.8924608041541817 3.5350955317286683 -0.7830340957553095 1.8181514867382622 0.25805571076099426
Ni 9.166969207335207 6.63491473626997 12.383755348108535 -0.978926702723998 0.2330044242193213 -1.049465946395141
Ni 2.3764361388894852 5.132918958025914 9.378192380378872 0.5082412747452925 0.9511929842541553 0.2368294543923663
Ni 7.257883431038611 7.718674779984622 0.04936689781913472 -0.1108140320307898 0.9204449044380213 -1.2336273809698304
Ni 7.856863565406426 3.4180900670248686 9.519920281136292 0.33363431662825765 -2.234114069252791 1.4879634767873922
Ni 3.9800920419373407 5.089345091141052 4.062478757409542 -1.5774586927357477 -0.7861952670921104 0.9606006507213004
Ni 2.3341373809513577 3.0772690404199605 4.173675596321448 -0.0307791901643857 0.9432493039270464 1.291065825592957
Ni 7.354947659566765 0.8604068234748056 0.6336952047788447 0.4274991223992186 0.4758394613758192 0.5692144719945551
Ni 0.16210028887908615 6.6405930991334925 3.9195161108662875 -1.3175109071583633 1.4917450553170115 -0.5840348248368394
Ni 2.557015416706017 8.363870733587373 6.866580932966881 -1.4751665821330402 1.4269902795381295 0.34905656472059887
Ni 6.297075079504553 2.449218256755696 12.602590646360847 0.6149073460459797 -0.4660993512699198 -0.6308957510544361
Ni 4.278320760343003 1.4533123021265888 11.094726614928106 1.8477664813912178 -0.8386570844362523 -1.8489772138698672
Ni 7.521243882490722 3.1421344746816167 5.291546180378136 0.5695654275760708 -0.14961737805123265 -0.019588720765204976
Ni 5.676674949520705 8.038378534680275 1.846191715507267 -0.5549695320397668 -1.3943614377595146 0.07869349734716125
Ni 8.023425818254523 7.684366093216329 10.049250111986213 0.009647036171460805 1.0318654597045585 -0.10109809029460654
Ni 2.557033763597337 1.5070962140309994 2.5914837214287925 1.8262736016247643 -2.510644184668889 -0.15045041547548926
Ni 3.371232106593736 2.3816925232526485 8.982010526560604 -1.4744019360528737 -0.10059749650910417 0.5066091384585082
Ni 6.623383715075387 8.581611639772447 7.207003832030147 2.1719815615881046 -0.1791693806767366 -0.06262821635418246
Ni 1.3202056056004072 8.572750091264915 11.58294656639743 -0.0941226874180379 -2.2259790988504826 -0.23863771124569866
Ni 8.035268736601546 3.3533163672198123 1.0037969525858146 -1.1459882443936071 -1.5498237046272985 -1.7606461934329418
Ni 5.574583672770885 2.5100290280356448 8.654664374285627 1.143688649726153 -0.35955695003129046 0.17975687774909044
Ni 3.8585989276166828 7.090568955646397 8.213678494519494 0.40907819668986967 -1.2130400437367819 0.6368763941179032
Ni 8.761227705794683 6.607073328691958 1.556252122599955 1.3412897547455158 -0.04206196216705659 -0.6691090288993637
P 6.227274331477832 6.483809739358926 9.027605303524357 -0.8578285151583807 0.750515554302314 0.9960631052939685
Ni 2.288637090477901 4.001374435868474 7.310722478040044 1.15911449736292 -0.4066485042024545 -0.49936788351506256
P 1.6094810410419373 0.935966660686856 8.458963588643199 1.3432332516251317 -0.10364296820364732 -0.7315876070495594
Ni 1.9057649889676853 1.4681824575414018 11.502576174281291 0.6661885128184591 2.1379627814404984 0.6142200901709679
P 0.4866714738419212 8.096235456457714 6.008401422098317 -0.4951913835398698 -0.759519557573137 -0.8311759455678588
P 5.768024121402697 3.065306867279358 1.196653052729086 -0.26719418272715273 -0.0072307134204843216 0.47093173966155666
P 3.823620579315213 5.44909093614248 6.493451948092122 -0.9949603591480928 0.2696853245801226 -1.1048981592215164
Ni 5.315342098420101 3.5780290921064655 6.334914625507368 -1.1138476551053202 -0.8936141573984222 -0.8990355855243097
Ni 8.006152220076798 8.581987751044506 2.4191577926725363 -0.8848006728718505 0.04221699968768213 1.1628315412031909
Ni 1.6066739666699863 5.374565863600875 2.343340181637441 1.9451128179528756 0.7766477326129916 1.7160992600605025
Ni 7.984420327308325 0.5492389599657544 5.3603286759366 1.7980392893694195 0.6744029303084514 0.14616644338815474
Ni 8.066651094204307 4.191246414138557 11.820792913435463 -0.8627123256132433 0.5043925904231635 0.35310219554488215
Ni 3.948287705834221 2.293875127949745 13.094635924670376 -0.3631696070832132 0.3755476690325919 1.859237972365927
Ni 8.823671350402106 8.89820559638937 7.944240635317652 1.2822677676853529 0.030294537218483308 -0.3668784233933682
Ni 1.6095636020528772 8.038818860071954 2.269293962959286 0.4464661504200247 0.7674254426837751 2.5459595721407315
Ni 5.880444697965643 6.17404082631302 6.832411682572621 -0.1411589628712343 1.713893253548119 -0.9458954833006419
Ni 4.474522416118465 5.730009362587777 10.598290925525712 0.09766566757428988 0.04518790939054799 -1.0604512417620513
Ni 0.659343241499558 4.980337036363614 0.41610841248085717 -0.5278636769619103 -2.2496216779700866 -1.8243193061118708
Ni 0.710546663139819 3.170920747162606 2.3207432329432343 1.5898064156678233 1.0359103191978933 0.15305699986040092
Ni 5.232276547969062 4.565018457554081 12.46083614261101 0.22691476638181565 -3.969450066055719 0.2834420120445828
Ni 3.133373834076344 0.12912266907605585 0.4947890559064297 -0.1038694823921566 -0.27266780424721426 -0.1855976528005836
Ni 7.03546406756695 4.3072446345088915 7.760703838620345 1.070020630618041 0.25008554807132416 -1.9946366357146161
Ni 2.0323310187383075 7.095375841172221 0.37008431826021587 1.6891908657054329 -1.7709948836571174 -1.1468832454040507
Ni 1.4896024531574346 0.5908120983521777 4.908615368815696 0.3236180700428362 -0.03491403826836567 -0.24746945060471573
Ni 0.15796214754187313 1.0159682802874643 10.000029989297637 -1.1863365663036667 -0.35311479395037254 0.11684069784084393
Ni 3.1479596126756983 3.4830655826344445 11.114329350958897 -0.1390884534954508 1.2177202228212705 -0.4580926789153595
Ni 8.11045429723067 6.5332179176835306 7.9256047804594205 0.43181729015859827 0.6119336081296364 0.5374528633122422
Ni 4.9855659003897985 6.542061119299742 12.859945242939375 -0.8775483621848112 4.152228247129636 1.942340140303745
Ni 8.983115009418064 5.499370591804782 10.044444143804952 1.353699184153462 -0.2445049686597531 0.031631767972668104
Ni 6.797550754375599 1.0140877239271704 10.22902854799663 -0.2399610580428125 0.17047982332253866 -0.0010479816485401308
Ni 2.243329442363304 5.99590168504204 11.709179600090597 -0.4439071314435968 1.2332304026417276 -2.0860699492259496
Ni 1.4262322905383538 5.206930317610562 4.9487739618813515 0.7217497950235311 -3.181153693460205 0.8387915531315877
P 0.1335534433298219 4.481668530287583 7.976598130194068 0.12983479610766674 0.20645958385125734 -0.21358591048339343
Ni 1.4458451173593723 6.198066080496484 7.17601684993533 -0.1346818397873229 0.4300447716392078 -0.595667009759129
P 5.518772429375621 1.3426897209129967 6.421970624820494 0.7271573391923476 -0.11587936236883914 0.1842946177184439
Ni 7.468973589120207 1.8979216929284102 3.0796229465763094 1.646026414502817 -0.31056046552792965 -0.7379042932962065
P 7.192696926178856 6.4880478712538325 2.9217837232062798 -1.2958827873656262 0.6928217991352713 1.4897537359185955
P 8.05889953262163 9.155612481608163 11.64227674354786 0.1866893432028656 -0.30370179073488346 1.7172963656923972
P 0.9694589107914106 3.8968797163557425 11.757836473215647 1.3917134586137065 -0.15782819599679915 0.008893445834887909
Ni 6.29161687933687 5.173061956233949 4.7608595969151075 0.606980120779103 -0.30713704166867745 -1.2410979783152627
