# total energy = -340892.90866850864 ev
CRYSTAL
PRIMVEC
9.03865868347879 0.00000000000000 0.00000000000000
0.00000000000000 9.03865868347879 0.00000000000000
0.00000000000000 0.00000000000000 13.22899062489452
PRIMCOORD
 96 1
Ni 6.438100801331749 2.0254910390813152 11.507131379920695 0.9850850090159099 0.0033408914477748913 -0.12446581848626952
Ni 4.727146036053117 0.19933043765044778 6.297012766839505 0.04162281774710896 0.3917271070059318 -1.2171203844537424
Ni 2.673644194577638 1.3609507958984417 5.058527657523435 0.17389964763736504 -0.4572593843807867 -0.8530735169718986
Ni 3.3492477556470734 4.274508100494891 4.718834085784748 -0.0699885133739956 -0.11619252273388378 0.1614904753397348
Ni 5.168639305799145 4.675309330105866 2.80146347853273 -0.21485423567285578 -0.9572692723552223 -0.21747933200052869
Ni 7.3122836875382555 6.004480203055653 2.344282713260626 -0.06600356058431858 0.7148085878190077 -0.04878822514729662
Ni 5.121864248558164 4.714726919405947 11.288601927954195 0.323405696921714 0.2604882314618869 -0.1949094171198127
Ni 5.624269037289112 7.976100838048804 12.425091200375556 -0.5397578572963349 -0.668657800294558 -0.3802399323019387
Ni 1.795258332213246 6.579429264137541 0.24078172509144036 0.10149044063701874 -0.10669641031799044 0.02588920906193606
Ni 2.6220696097241047 1.6322461278961287 0.49766762786138413 1.3289345756142723 -0.38883872971454325 -0.5292037359295725
Ni 0.4258301785976421 0.0205105236504798 4.795852494045694 1.2136087717560584 0.5623529689880316 0.30988195140366637
Ni 8.538802516993199 2.334848161618474 1.334050844622136 0.6064998387085748 -0.24812405346957914 0.9907985144609196
Ni 6.739829296175887 0.6105640867913827 4.766563625353196 0.4521747707690277 0.5669398170277655 0.6002610568877146
Ni 0.6039776164123484 7.457209536388861 2.439465209450359 0.40043183386878134 -0.20042700450393225 -0.4417062671375361
Ni 7.573220717004896 3.956148474187293 3.71074528305386 0.5790471418142608 -1.1955645126598378 1.089451485649143
Ni 7.5397776809098955 3.86462301918784 12.829858593294231 0.45905170039451904 -0.265801159034368 -0.9855691477411799
Ni 7.826565273412132 8.857315800493666 7.237196840578256 0.30866093451237164 0.5202318714482653 -1.7212064993800806
Ni 6.74888603189675 0.696452130544227 0.4458923847912808 0.011069370440284162 0.5028105906480244 -0.4676944636711816
Ni 1.9407265005680945 6.4946195323323 9.113425282506702 -0.1130722319373472 -0.2394828328548134 -0.35967933454176765
Ni 9.3483228409771 4.770893142728739 1.3982913014972704 -1.1895756420662544 -0.015263096806657585 0.10365325261629245
Ni 6.319459371120134 2.2024860479495043 7.104139654078015 0.3254006158645557 -0.4063201743287583 -0.6449172621445086
Ni 3.3376150022810553 4.301678307657477 0.14291022802650102 0.6699122415269495 -0.16422150111765266 0.38978181035410286
Ni 5.983302626414954 5.704839638302852 4.8466524658740004 0.20134103167776937 0.2334911340477527 -0.1760046097955098
Ni 5.466200979119013 3.0719959477611147 9.260914494880696 -0.16123567901645136 -1.7360440786135456 0.15713142704009067
P -0.11289917052751987 5.593618946640966 12.622744966892052 1.109731833164734 -0.2661397733207094 -0.854222285864361
P 4.024616311598004 6.179387281832506 12.54916576815385 -0.05639766206343835 1.5211785300867802 0.06549782459249366
P 2.344736453912509 8.438048591763208 1.5062526529386555 0.3424303176533328 -0.0021635833102220804 -0.3091810686818998
P 6.507355002023613 7.669618008884135 5.746130941490093 -0.45623274288848525 0.8431721986977866 0.4155360365000714
P 4.733509251569571 1.1503048617919582 12.584566577659169 -0.6776456056154652 -0.08400385381648114 1.3455346460647988
P 4.130603620043943 6.170222082210795 8.146081847995449 -0.5988004131817881 -0.07068528233070408 -0.4817208598572607
P 4.599167671710113 0.9731200410972838 4.002047685428921 0.3813997569379947 0.3050598474246746 -0.10936752939225035
P 0.14939365769972912 5.414915631334409 3.590718226508903 0.4109587015420342 1.2794470104071063 0.1116036178116207
Ni 1.6217341681722135 1.1326523619288407 2.67536515513777 -0.8603201712319828 0.07463552522770373 0.36539875352404816
Ni 1.8217958332875495 6.373772669470096 4.7194423874953415 -0.544416696224585 0.5966957081339594 0.9112336702523985
Ni 5.978701949287291 5.299808316558779 8.954346702327028 -0.38329465996786244 1.3558573681470454 1.2333368463126049
Ni 8.751039254978796 2.3945756163524643 10.179721237628018 0.5280541957061615 -0.05360184448585607 1.597535665991281
Ni 2.340723289581109 5.078478688218704 6.9071204013814835 -0.5922348441491284 0.6378986647348304 -0.10242735062899135
Ni 0.4383044310610773 8.974592393286269 9.213673946731907 0.889582667641526 -0.22943727569335323 0.6905373739764687
Ni 1.5838893054344387 1.1794726124618413 11.629367484579603 -0.45888226469619037 0.8226252277843703 -1.2493820727009257
Ni 4.164408202475106 6.466536420670904 1.6163046460688981 -0.2653473593264011 1.9837642117764869 -0.5226201691747838
Ni 5.771924560977742 7.908663407696157 8.095374974348704 -0.32825813991800884 -0.3782015617156712 0.48741508202856054
Ni 5.378480799307668 2.977894475116506 4.7691034883647365 0.05182572642203978 -0.5476321178380891 0.07829986145316838
Ni 0.46757703016844726 7.2436983475682934 6.701277610350915 -1.0588232192403249 -0.9928373992678192 0.3806834475972605
Ni 4.826688781056966 4.4613733243403075 6.801936629667664 1.261837010634827 0.9225241555645531 0.08071952663825453
Ni 8.109755479869554 7.136192544510472 8.935548100578275 -0.4197138220268449 -0.28776017980396246 0.9233857322339
Ni 4.823904874268517 0.6035880502351337 10.474396867319474 -0.8790028352431507 -1.1108057829552032 -0.9371889566655796
Ni 8.213926017976279 7.3139739166598146 4.3247549064288675 -1.3280285188602354 -1.6099327541040533 0.9627611487077289
Ni 7.0484542873823175 6.058196949950947 7.073686606183075 1.0020869428905452 -0.6397562867688595 -1.010622491165382
Ni 2.2232026530115965 5.381743754991531 2.602803709335863 0.9930387166453478 -0.44475508126618885 -0.36678766345177477
Ni 2.544472727325299 5.352087916767829 11.294567442500872 -0.9334153485557602 -0.7696422478294358 -0.8636278954489771
Ni 1.2095713449473418 3.4173088534296014 3.8244353361917343 -0.7694841249850167 -0.5684670523055694 -0.1291709372714227
Ni 3.7117883442336876 2.6716828057039583 2.559729982711343 0.12051557558926987 -0.17421949287062902 1.3744366738111296
Ni 1.4420546777580199 3.323189303468185 8.25093480481168 -1.6391307158242479 0.4070657942455312 0.7354802572357463
Ni 3.5614212230238422 2.587306929502112 7.0724690988960495 0.6497259963870616 -0.2678775819474225 0.42481180537504254
Ni 3.9190357427802467 6.835937350986195 6.059618730917905 0.017493271688756966 0.7558449369350273 -0.17353866475352048
Ni 0.6660072174418512 7.070834005590756 11.061632176769992 0.1528176301560852 0.9623608279455167 0.9846443219340656
P 0.2360346216976311 5.516555345087999 8.054946863039051 0.55500784147687 -0.4556408749407572 0.07633451019668144
P 8.86138319677549 1.6923983995751093 8.152563469936995 -3.3184475169490786 0.8287765920977468 0.09183851936955151
P 1.986010179172406 3.264284366648964 10.443441270017267 -0.7416534759259937 -0.005081528287965442 0.6280166297344281
P 4.020829113726705 6.228539506233753 3.8893103068868333 -0.8739081943290626 -0.30951711186507985 -0.24792453586426336
P 7.040888930298125 3.879102949951135 10.52883399528957 -0.14144949752845962 1.113914503787514 -0.42204684103539575
P 6.290137963257382 8.072208892859113 10.288503299252492 0.3806633929926025 -1.1410962064086283 -0.8492749691614148
P 2.0937690646655405 8.364808342715156 6.182754182088016 2.27893533933254 0.06718189716313591 -1.3450697906132385
P 6.879820037537879 3.871356819698861 1.68582277558616 -0.22100200044180648 0.3867592214776952 -0.7196168078409283
Ni 5.215088971337579 2.8486326212801276 0.6863622761677813 -0.44240097921171545 0.1951654989946768 -1.2778143598996896
Ni 1.5036892894152658 1.1026078613937644 7.293551971861694 1.924190208867596 -1.0701756681386665 -1.7529850773432585
Ni 7.034353980271994 0.8173324364425267 9.175707062105676 -0.912294764527061 0.951400215168955 0.4739070202397967
Ni 2.647947288734912 1.3183967921321544 9.45961403417454 0.42931046457634453 1.0411872513261167 -0.8939232039984089
Ni 6.25154289187207 1.9115497112398077 2.5740436021600033 0.78332694440538 0.3762140989719972 1.3992033392328482
Ni 4.2882468612690525 6.928692063528599 10.195172824169749 0.11157687833874332 0.7363528896486866 0.996607922053845
Ni 8.059789776211943 7.406023613846702 -0.03792169133420941 -0.7496552631845477 -0.01806894168656888 1.3545910998401123
Ni 7.80159146024173 3.8644693619949715 8.371781667673883 0.704342398180361 -0.6877621252241768 -1.0914068096033012
Ni 3.231745196394369 8.527251111552818 12.697369938407606 -0.04655187961761015 -0.8591166378421848 -0.7350665667370954
Ni -0.018563596630246527 4.937728699550772 10.345652024743805 1.237003496530915 -1.2860195214183012 -0.3769705175220475
Ni 8.690624862206098 2.153677292567612 5.844104575394998 -0.39505411449663574 0.6241892855685378 -0.13702102944346078
Ni 3.9265649452308238 2.7358120870807223 11.240686192022626 -0.849927258033433 -0.13840068339980682 0.6017898348274152
Ni 1.0605871384733163 3.529767841292844 12.63225725099648 -0.22393614336946596 -0.13789006231197543 -0.8912937367953617
Ni 3.2848111598845713 8.3015919658372 8.200624728268872 -0.09510664859786201 0.3288178690762208 -0.3130860601632608
Ni 5.562562116364635 7.893993665106376 3.4835369112877874 0.09302045549279464 -1.4801223834764186 1.5734667979675354
Ni 3.0476096473869765 8.244106098387416 3.6119111688688887 -0.013208271160157898 0.1678287588529368 0.45326646117130975
Ni 3.4715317651955226 4.29506200970571 9.010701833610465 0.0005641000335861253 0.22064847375712968 0.9536969816229316
Ni 7.2749269123543 6.263889699252009 11.116651394341309 -1.3842459465920676 -0.359478017164239 0.5682387383448473
Ni 0.6634402384550999 9.070474481636476 0.15079826521571912 -0.26197047243436816 -0.4962288236654487 1.2783463211437598
Ni 4.681491772454239 0.2096507778161969 1.8857922463857744 -1.6893662149410325 0.8490312285817249 -1.9598516668249473
Ni 5.876736843831155 5.474028457296924 0.2563779301676359 0.6094859179200923 0.5870507288450277 0.41949322137560663
Ni 7.993572564743842 8.822363308445189 11.273256093715792 0.7026249012686222 0.846172161866375 0.29552465424072977
Ni -0.07821331890196184 4.787216959806462 5.890657281639238 0.9161452486214028 -0.1517040853769323 -0.3326102462391175
Ni 7.558831172825642 -0.21175045816345867 2.562111669200811 1.5843808737768779 0.005923564573286573 -0.05795395080696471
P 8.54219201389472 1.5204379234379781 3.4891200905839717 -0.11287939920025075 0.9087885511460156 0.5213659850527085
P 1.973807990326933 3.354661912031102 1.4946379768894458 -0.976679301450718 0.04030924114200799 1.1276825041058838
P 4.67507432498736 1.175061747160663 8.268753615989432 0.384639346921215 -0.5492837945088992 0.4460897409172123
P 8.425313122071895 1.6293266412316192 12.493656655297032 0.8437098163688114 0.20600578414329035 -0.559594689516604
P 6.2497713148248755 7.732780153811666 1.3084199209857594 -0.26576542070042614 -1.5042424164530739 -0.07920000466993457
P 1.7691908413759538 3.0689589585373525 6.0277890953480275 -0.6522719027373669 1.0027700850004988 -0.9722361780776999
P 6.968299464655165 4.024381306479499 6.037195627149127 -1.0451899447276065 -0.663558788505096 0.024283812248029148
P 2.3085818202962924 8.460554851189302 10.394269160567532 0.3848177814806082 -0.7313389813738631 0.2059286510484518
