# total energy = -340874.7274260531 ev
CRYSTAL
PRIMVEC
9.17028219671231 0.00000000000000 0.00000000000000
0.00000000000000 9.17028219671231 0.00000000000000
0.00000000000000 0.00000000000000 13.42163494121711
PRIMCOORD
 96 1
Ni 3.891950314610309 5.30655805273977 10.795048085896187 -0.39417633987737277 -0.3394542657441444 -1.3280372606109838
Ni 6.590406736428754 0.4166655289350398 13.33944101502115 1.6740059304348782 -0.23564726115880708 0.5173234395522187
Ni 5.328264110798583 4.458508691876705 5.05128582309154 -0.08955717953454254 -0.7156915046445933 0.7714353351741166
Ni 3.0415625317763975 0.9990013767929814 12.160349967513259 -1.466326615243907 2.0823904434918328 1.1487041006628733
Ni 6.977557711978796 2.001166500958287 3.7055524067434558 0.027542171284326757 1.755621486524841 2.349371738877231
Ni 6.600512387455712 2.0999396109504587 9.291623413201021 0.6460362062403002 0.5225049837531582 -0.3371456722156258
Ni 2.2128074447433885 0.20546384166916776 1.237018803381025 -0.6136799013967817 0.010300610595059679 0.11639718254552212
Ni 1.5779396350815145 4.099088649816249 10.74212638709711 0.09974928957619596 -0.2473241832761031 0.23062178291975766
Ni 3.107276774298345 6.895281939733901 9.020493014477548 -0.6508912203397564 -0.9287824777694391 1.2245884106960137
Ni 0.19361583701687124 4.003451776349685 12.750123831294946 -0.21059546039650182 -0.9457854400853389 0.5451052376511774
Ni 3.810664932847185 8.461813743710573 7.442323205311843 -1.349383587497244 1.5054356654302266 -0.41512363155300114
Ni 1.0009546469098074 7.77485873093334 8.43230285843847 -0.9967285067921091 0.33063486768030154 1.0377319457876644
Ni 5.727088855638389 0.7163503524931286 2.320359265922591 -1.1137916050564045 -0.8829916446875696 -1.039418589461468
Ni 3.09621741391857 4.05265034055988 5.872421322612479 0.5991495689910908 -0.20152152311969163 0.111580220772853
Ni 6.591314594370377 6.949404945506234 -0.040432691418297716 2.4967766826581776 1.124173976731993 3.556043160083508
Ni 8.606887608725536 8.695720132771044 0.7845882566871448 0.9078655251111138 -0.28644300365443576 1.4864853495799688
Ni 6.993119680937733 5.07663156617086 3.082627055640936 -0.7616862262071528 -0.6686012360250099 -3.8821282036095983
Ni 4.5142823484519905 8.567042732398733 13.046003904752231 -1.0455409003091218 -0.7269256827975158 1.697733870179437
Ni 7.4399233424499975 2.6141173360698597 12.662413749795446 -1.8894088395223525 1.1508460867065406 0.10104538267980018
Ni 2.4737294852788327 1.8387883133590492 9.766977831435003 0.5887224601204958 0.9110068989535729 -0.2969444174063918
Ni 4.440507427842295 3.3699319981768876 12.532103122156437 -0.6174041443259044 0.47784646450351903 -0.6308286452619265
Ni 7.832264697747098 1.7250951541646435 6.172461953121426 -1.084916573893267 0.6724756313787515 0.6841520392754152
Ni 2.2932858416695145 6.610058651266116 6.7943400579922955 0.460331081327575 -0.7411747365173622 -1.3796205320049142
Ni 0.8637048667008355 6.965764729019932 10.841526744394406 -0.1302518290404273 -0.2695354292658197 -0.8771763235573731
P 4.34547579300348 4.144499887461893 3.088197085072673 0.1421526942430713 0.9825689274622756 1.1222420498166028
P 4.4579034532489565 3.2529742185055333 10.081916502468813 -0.4353001065008762 -1.1353078818616253 -0.542069279038331
P 4.995547930616985 1.6881297464607679 0.26297985186978995 -0.8162710034315684 -0.2224914405031394 0.8537024088051491
P 5.998006503813928 9.297382350446876 9.71486128341648 -0.4698914713225004 -1.167848534801808 -1.350785867161409
P 8.84502149789801 3.6640137792871803 2.569061905375074 -1.1202553584038772 0.5585852744154832 0.4410400943084469
P 1.3179713038988872 4.9084302493501 5.148378020349373 0.10230445189788187 1.2155625530483194 -1.8842465785951228
P 4.517684523162519 5.651947562975139 7.413238738163837 -0.37238212682041677 0.13506441993772222 0.2627762561651152
P 0.7635186162156925 7.207869350401728 1.848011783234653 1.1742791209185002 0.632869329841039 0.5512771707898441
Ni 3.4589662684316456 4.57859353779143 1.2394021597348421 -1.509377166576478 -0.48682681362525837 -2.1937102115144476
Ni 8.63236265278442 4.849437823709059 9.638747023807715 -0.8854442199931202 -0.26049697321263526 -0.3306875752951079
Ni 7.8703488798840855 7.360462846852358 9.510772067054882 0.32510828143511755 1.1951137982756643 0.19320966081988664
Ni 2.748076819011615 5.8342802847256126 3.459117578088583 -0.29553493865337493 -0.1406308582819062 1.0279350143019006
Ni 0.8469580972766684 8.671648141894668 6.2836066908817205 0.08889974845620173 2.431671208408096 1.4399787213779975
Ni 1.5908330519090137 3.443679407939867 3.625518768505903 0.627108773208178 -1.7141999861552608 0.41962177653367083
Ni 6.007708662422387 0.22970639979518254 7.172145598912961 0.8585137141508634 0.7343358592186578 0.9598550308045275
Ni 1.1807013490689904 7.914531299709755 4.150492666904832 0.9791352191903782 0.5652454600444781 -1.354982678851576
Ni 2.883200927797675 6.939051696858832 1.1010950459837574 0.9494598036131325 0.8833451713722463 0.46183697644914007
Ni 7.72649466240686 4.28608904522618 4.835344933964749 2.9836045247247003 -3.0668766425814797 4.510988155180928
Ni 8.600624305956558 5.725328161448573 0.9911626195354095 -2.404652256617091 0.4050600766694121 -0.6884686643728982
Ni 3.3009072837667985 4.188223793175632 8.285953407164117 -1.116560168940477 -0.45970167527369216 1.4510905150204427
Ni 0.9260242707380466 2.768746635177464 6.28105643539116 0.5659982790501027 -1.315144720919032 -3.3668760447641115
Ni 8.959053957535243 6.808668623990139 5.892326337239626 -1.1536874128100778 -1.153494322962665 -0.6333796938185544
Ni 0.8810110233415585 0.378452045818488 10.50256376795186 0.7330132837524924 -0.9404087491544578 -0.14452890778473176
Ni 8.533167709809272 0.7084978398121986 8.433538095456013 0.7543693808307653 0.5961958856794055 0.6024323535074205
Ni 5.428165165506104 7.186502592785743 6.4224942834985095 0.6338324650852567 0.5000032031062163 -2.1933728827796872
Ni 4.200796250124779 2.2339907967146 4.080405116783285 0.18545804189892576 0.3825091879520896 1.336329325416447
Ni 1.2822622248617026 4.995428716947884 1.8710832963187958 0.5819943973680428 -0.29514850184823366 -0.9654739196532018
Ni 6.110415823494926 7.907213414483336 11.539304524269658 0.44135299756317536 0.18363950063294823 -3.8921048552063358
Ni 8.056092946627325 5.6064996442005395 11.887702804107517 -0.855523778284604 1.5456942558399573 -0.5747924803029649
Ni 6.855492085100531 7.590205927776495 2.89926084308217 0.8104369132482945 -0.5189488909707838 -0.3445998145008259
Ni 5.399801482542054 1.217520032257048 11.463700132353358 -0.43120793870937346 1.9571985454728162 -0.3344904939809658
Ni 4.910988758094675 6.551919061873267 3.938941591885668 0.469102913982934 0.8303238819802087 -0.040342665483104716
P 8.999228964022636 2.4009174443041927 10.158902855918472 0.13177212233969565 0.07979984303746257 0.542829040022491
P 3.345245598390524 7.658607062994358 5.075485280891034 -0.08535548274836913 -0.2053840913988914 0.5594684483513848
P 7.8248551096982935 0.2740630549833856 2.8734510837215748 1.385668537971207 0.1280620204779601 -0.17445320614798987
P 5.106755943324726 7.798435526568831 1.7264917881495851 -0.9859049338140439 -0.525583622678482 -1.3547852181287892
P 6.76647615541025 4.701732087691614 0.16434613016764515 0.011722687753566908 -0.9541597801919632 -0.6415048940288499
P 6.511368073814091 5.7685477016391875 10.032135625336467 0.7169122644255718 -0.3335808376825029 0.38241482846607044
P 7.014486438553718 6.314188665119292 4.772720159528991 -0.5980751049799894 1.5583299423260968 1.5950648358532853
P 3.2526440883449435 7.208905592294692 11.937631322783906 -1.2644986166273902 -0.2902958017416226 -0.7299305310621107
Ni 1.1003513360942054 2.476847381239963 1.1829590725561385 1.788328746949875 0.2518272133527792 0.7963907195678736
Ni 8.11039935804443 1.9407343410057833 1.4391483304282306 -1.1625870292925524 -0.4631222709194669 0.2841259254854849
Ni 3.7892523238200084 8.961795871924592 10.37109860177901 -0.01336485134268021 -1.5073753056551007 -0.953503634665203
Ni 4.879360454653676 5.80015766451571 12.717951730117198 -0.985096836090452 -0.41631585208888944 0.4183349394014473
Ni 4.342963135670098 1.726039693235221 8.21583926322408 0.1045899054979489 0.1624484683776299 -0.5672023266605328
Ni 5.795343266340434 3.9632309184510994 7.873855595812134 -0.6765369459323187 -0.9763247463247766 -0.022650390409664215
Ni 1.4181841482025224 8.381692987791753 12.686075829055756 -0.005402144852177794 0.020957061867641326 -0.21719059711551625
Ni 5.329786377650193 7.201477663681409 9.08039329806021 0.8248065517064054 0.810951648101184 -0.7584430366795067
Ni 2.6200321681137693 0.6476576023000769 5.4236286268826595 0.48452156253084944 0.6725972445582804 -0.7596421991939304
Ni 0.06069167893985615 1.2931106687499896 4.3180080466141435 1.8460171028002788 -0.12300054679465268 -0.6871417180313585
Ni 9.01003155649973 5.9995746220767305 3.644067498389959 1.4438551736142682 0.2516431223664311 -0.5140645662952888
Ni 7.69361003029917 8.65217046241984 5.051380276998597 -0.6481954186751482 0.1767934242453923 -0.6910163704954164
Ni 7.120788350263795 5.962930174251206 7.492547007076316 0.8782662141874423 -0.20565225745861354 0.3848064686266986
Ni 5.387880115631848 5.603519302472989 1.66393395677417 -0.12478000729257865 1.211542890365965 -0.6861359024746635
Ni 5.936959934951436 3.1576583049173212 1.9281921459880234 -0.41356297193410063 0.13086092337933591 -1.6011532081392101
Ni 5.001682849434622 0.12372269687878416 4.862403685766243 1.370724257956549 -0.9007420266924553 0.9016308570553118
Ni 7.816079149595934 0.6942270465924587 10.980414337011194 -1.3359950820054798 0.30326444608714864 -0.42418728441716624
Ni 6.347109978355936 3.8777272068582103 10.939961470971973 -0.19435020218223303 0.29134018384573696 0.30776079129560546
Ni 1.4996896167393734 5.934630683262827 12.915626334052881 0.42560216248682187 -0.44399994826771916 -0.10840670814087781
Ni 3.5041299084568474 2.3131945244095573 1.8987316972682342 0.3161168765697846 -0.63628221217733 -1.5314611429597107
Ni 0.8122375746648067 3.1678923398956207 8.367114073088796 -0.08208066865183929 -0.7207061842503653 2.8501393309532976
Ni 3.6608500319148565 8.658855598171792 3.0923713975476925 -0.9002383475831593 -0.713967579974951 -0.277587867256651
Ni 0.4953658081350972 4.933107478854225 6.974968941302834 -1.1447050068058093 0.8430436435397224 2.2260911989483145
Ni 0.22500204500677068 1.5028166829827427 12.681848328943753 1.3858066062109682 -0.9556106537058768 -0.3265316441452054
P 2.2123397603492188 1.4623665680281916 7.527967222222983 -0.2070103141484048 -0.4201200563263281 0.3940076755099924
P 5.379360923432171 1.9961045051625688 5.938268534226887 0.39586581176465374 0.4178749690458932 0.5322291530194576
P 8.254602046246724 8.185118817724703 12.15789416592976 1.1551930508213266 -1.6754647743685918 -0.18940879901655766
P 7.947718551131318 8.295703251240218 7.208478257142373 0.013108512357500005 -1.3442110421573688 0.5510653118893541
P 1.4087387574967443 5.548616822710373 8.951103322834362 0.012469079001288203 0.2940933211108419 0.42421428100035974
P 2.2086716474537713 3.332709822570331 12.935664317772488 0.5979882016931378 0.07867395696313548 -0.3008530084321786
P 7.795170906091882 3.7680322907198422 7.151543642835678 0.4966656540925511 -0.6510313454620466 -0.20659688076007
P 2.2743492088467647 1.1564001011366483 3.2548669647595845 -1.5841381616384524 0.5680063106190669 0.3819787693699163
