# total energy = -340889.7271003095 ev
CRYSTAL
PRIMVEC
9.10525251808370 0.00000000000000 0.00000000000000
0.00000000000000 9.10525251808370 0.00000000000000
0.00000000000000 0.00000000000000 13.32645743324840
PRIMCOORD
 96 1
Ni 6.558422474370263 1.682932963612337 11.232217890251452 0.15642334522947254 1.2000755131563139 0.3667436975877168
Ni 4.981729599376334 0.5265421958056802 5.708441670755125 -0.4085313230474641 0.3551559927501174 0.12785504667347655
Ni 2.6646704160399373 1.6025700031952939 4.572174421962483 1.28031012973835 0.8737526425878048 0.1006103520249106
Ni 3.6572431191922465 4.644980933155631 5.037254340926205 0.8474183755686503 0.4861459855081498 -0.7192907919600774
Ni 3.84024959340731 3.3004446865044774 3.006621823659042 -0.5439983777402437 -2.801750398126949 0.37818356399354225
Ni 5.352686700027903 4.724132894962265 2.4534941109911728 0.018706318160251655 2.2900162797370496 -0.07505487215330946
Ni 5.864483849595269 2.99119388346749 13.403351741033607 -0.1416274178672206 -0.1916896246309344 0.4821852010881889
Ni 5.533079966715242 7.947146512422267 12.442326917470348 1.1490409151770018 1.4817414071370805 -0.027320285081507786
Ni 2.0589434795178674 6.584509023383953 0.06497690438795634 0.41674034122081777 0.48539188095094477 1.5130397030297298
Ni 0.7673142142625069 9.443057585374502 13.512361647526346 0.25489325387261264 -1.3817712597993301 -0.07235752782680441
Ni 8.310355043017765 8.963729766970424 6.91966973353206 0.061166287096675306 0.7800048220106824 -0.1597225848060346
Ni 9.006360560157892 2.4111437595871674 1.1316108225568289 -0.9809864134665042 1.432245614399798 -0.14251290579596745
Ni 7.3994473514200045 1.163642191064773 4.747350378847084 -1.480067104758451 -0.3934859986785675 0.6903633102924498
Ni 0.8230729608070217 7.778389758698103 2.4499758413440906 0.43030625283071056 -0.1931078451346997 -0.7252449526609832
Ni 7.793468057185597 4.2775930915663185 3.832635781091342 0.9390797459303891 -1.103272193582319 -0.41292868078421147
Ni 7.855238091569149 4.340100651419366 12.731791095843585 0.6229392152115207 -1.938509196593429 -1.0799736280656949
Ni 8.37864443834156 7.336994423083216 9.187073421215347 0.4663559473654162 0.031241988733417162 0.9205557189842728
Ni 7.231637543977664 0.673843332044379 0.17630865032170537 -1.0169360920882358 0.21624288849026627 0.43729116878897595
Ni 2.174316136604243 6.774572068449143 9.183502341102548 0.3398245045993696 -0.7117844562807031 -0.4096361260758688
Ni 0.12214332300141241 5.223637953371347 1.1046419745555554 0.9384644809438935 0.015788116072192163 1.2655221727958978
Ni 6.733216010641051 2.187864752636484 7.1954077434452115 0.3004020369376891 0.1610544162435807 -0.7347603483505862
Ni 3.681071565533896 4.282673822578409 0.018280615865544678 0.20129552315181462 -0.3335684963873287 1.3340721539511542
Ni 6.306771499975721 5.989662863850142 4.784091894581829 -0.8716422811130214 0.4347874285305157 0.21738651517640628
Ni 5.358122535895677 3.2431453312014575 9.121880722338167 2.542134027747054 -1.405500999316102 -0.24590956231676356
P 0.3581150522296118 5.945702703767037 12.250812495123212 0.6747675127367216 -0.8774532313678436 0.47228054037996725
P 4.283329400773518 6.185207271046655 12.49613987151077 -0.224725986260613 0.20123201690373088 0.8029416333125139
P 2.5275817312405944 -0.5996783171469235 1.296871159240415 0.4029972806031124 0.3469490314592928 0.0656466914655321
P 6.715488083614994 8.251371215963424 5.648272339797963 -0.07206005119104364 -0.9726694089603765 0.4117133203198715
P 4.789608767198721 1.1839013783441656 12.55802736365428 0.768712794036631 -0.11877725274192448 -1.0142526317188016
P 4.44990999910003 6.6096304156104 8.024725997085913 -1.0585342272449962 -1.2160790876734218 0.35685677749130795
P 5.019452661353198 1.2884569952112521 3.645025691106184 -1.04443326906724 0.12532610960403578 -0.06265701270958887
P 0.47777537281705096 5.849624077172812 3.4078948632080217 0.5774797973271409 -0.8756146354972082 -0.49293678317773815
Ni 0.6124502551230154 0.2961865864489097 4.88674542415783 -0.032475346919886 -0.23178674976213628 -1.2873654939232344
Ni 2.231524439380164 6.892894827413507 4.354180103684591 -0.28668777267539014 0.0059585315762800605 0.39137229476967433
Ni 6.28866115233585 5.756076710831921 9.209862047697532 -0.20247051729652224 0.7509845235189324 0.42085590605108814
Ni 8.849131056364385 2.606606219509291 10.337480216941097 0.2965754641027473 -0.3729421130889448 -0.4890310203654287
Ni 2.6961472746578523 5.525012712814324 7.045204763167888 -0.16399910069420143 0.16424155572231067 0.48718882495036747
Ni 0.8467101968417651 -0.013200795378725247 8.848261504730594 0.12219270618137668 0.9936586096175339 0.037349901403367934
Ni 1.7679122871532686 1.3205348005080166 11.301182895326319 -1.016460438003398 -0.3159109312065656 -1.4612965090191672
Ni 4.4975213655197805 7.0771578265025274 1.174524789103573 -1.3748297954844901 0.6029995388648003 1.6874204040685712
Ni 5.67898253613771 8.372288971950091 7.815127632331763 -0.10217332563665629 -1.0577628962966104 -1.0438802247772474
Ni 5.65855945430954 2.9227588041003365 5.059043210660851 -0.37283438386648693 0.9391260257872923 0.049061790523657445
Ni 1.12580076080268 7.529506781127352 6.5572834072562625 -0.17029238990208093 -0.07975510584245618 0.2676775501214745
Ni 5.483347076414099 4.849694329830951 7.013607715214202 -0.2971845584416559 0.08046704430781626 -0.07784811862773044
Ni 1.010573787759662 7.791537743611111 11.207151129541264 0.14584402705172947 -1.3609337542286883 0.6043992474258042
Ni 4.977768814447553 0.2821207920627497 10.051827497352201 -1.447955568935887 0.18574163457761558 0.4550202106376228
Ni 8.456749296086562 7.301884568634075 4.563312279499997 0.07325535705072546 0.9354915143584985 0.8880631456732061
Ni 7.590184185185722 6.574884771269653 7.178989151758829 -0.35733680245152005 -0.3205895676291575 -2.1245007423983218
Ni 2.686850811641106 5.307178646984125 2.4439654640303257 -0.7563928390186974 0.9407705033692507 -0.4864851140151234
Ni 2.6183702060104035 5.370678679382546 11.446121218486814 -1.5559961519865977 -0.611572882356108 -1.6597121395200254
Ni 1.4754879911240646 3.615741377340798 3.830130926070865 -0.9713841144900497 -0.03431702811431509 -0.9453272695019977
Ni 1.6514834207525515 1.3929761910674996 2.2698821374709053 0.7067823750804215 -0.552382745149197 1.1803353544149093
Ni 1.2883750479368639 3.6785220947751416 8.115173024879104 -0.6631551253087741 0.8809877268836633 0.2563086461629005
Ni 3.945041946844852 3.018773693925594 6.981877730570954 -0.3249612143342919 -0.15738288092926442 -0.40260852980512596
Ni 4.185575407680681 7.225036235763031 5.727711117064957 0.9232885445344035 0.07759203675286637 0.4855196647780607
Ni 8.30035747554236 7.530344464376657 13.393756625727978 0.47706639180438487 -0.0023319905672863064 0.20359948869464292
P 0.5255369759065138 5.934512348186645 7.944554246975777 0.08243316689525158 -0.46182592070554657 0.1281844049884373
P 8.881673229549351 2.0280129360625425 7.871938946089536 -1.1292740169627196 -1.3376727268182187 1.1727773395619931
P 2.0057505931869852 3.355531465399006 10.402486258137724 -0.09027091777211549 0.8669379336588167 -0.30087254881620445
P 4.379235027566256 6.376098894108439 3.5795398030917474 -0.6004721444572562 0.24662278633370427 0.14279778402623794
P 7.23183785953728 4.0962346680917365 10.46966481263092 -1.5803702099555879 -0.20494828941305346 -0.17446786143600923
P 6.607763838804884 7.860145822779751 10.393624115675237 -0.5906754700818085 0.8391605064352321 -0.7007811631916641
P 2.6765982970898268 8.888165274731465 5.711906219411219 -0.3549456765115242 -0.6446095010961028 -1.3380977301707793
P 7.197055794185694 4.3087057400758395 1.5328228569126525 1.0479114574238275 -0.6253259702761425 -0.4057694440316109
Ni 2.812184615192046 1.827324061084971 -0.05337408085980792 1.509553287143026 -0.5714004239022805 1.2787944644247717
Ni 1.5513256409443175 1.4362534571973662 6.757593503721105 0.3061759633069888 0.5602989146724803 0.6876011741662803
Ni 7.19438795514171 0.4655151500432521 8.95583278129518 1.1928581694722684 1.4707018614934673 0.9405984965677607
Ni 2.7409906442538117 1.970422212672808 8.841731217487098 0.9517092617689416 -1.1973200618983637 1.1078001633596597
Ni 6.32207742978096 2.573362941865667 2.6643189532853375 1.4288630710808101 -0.709588734180965 -1.0268327823766574
Ni 4.4620655114676655 7.015387792118976 10.480792341967614 -0.5775175925436118 -0.003959498868380278 -1.16863606370011
Ni 7.483415991910144 6.214371395476269 11.432901302077399 -0.8365238401433335 0.3902703199547472 -0.48447708244615917
Ni 7.891212945025725 4.29845322552456 8.131857489944613 0.4379465429847877 -0.9386393159588609 0.10776213257834345
Ni 2.978601318969782 8.601541024678431 12.365366589990971 1.467222644695615 0.12367906091891602 0.2827596412655775
Ni 0.12096146119967523 5.045876104717152 10.141674488991812 1.3399013590384214 0.349918655610578 0.04316933629862243
Ni 8.779776346473536 2.795075845350258 5.756043931922165 0.5087374976554206 0.14446514442633185 -0.13564497503154058
Ni 4.013149237114451 2.5624457438665695 10.967208599606304 -0.8219171459737522 -1.2496466392162218 0.6735434105216336
Ni 1.3515655017431494 3.4512003556212894 12.722502827554276 -1.5722236695890535 1.321685350251027 -1.2016266596935177
Ni 3.198265540594659 8.823199296646761 7.783078053318399 0.7647597229261539 -0.3403641791529235 0.765681720519791
Ni 6.009148104649198 8.090417663811591 3.4193820500267553 -0.6556881275077676 0.5274656701925432 0.6040071541937082
Ni 3.570196903286181 8.78753402178232 3.3190476283159507 -0.49277351812699655 -0.910425058308174 0.24935149811877705
Ni 3.874193975509591 4.743909503848037 9.399590019462998 -2.2032510611253477 1.532141456856187 -0.9473736105080651
Ni 5.102246724243769 4.431617546405962 11.420867800096074 2.408749052394284 1.2031495240959473 0.09280551126851114
Ni 8.169287362784221 9.308299845268879 2.7938384415069906 -0.39772034847488924 -1.2783221527740434 -1.7449184982850399
Ni 4.613403916757908 0.6211375767334733 1.2979319211811111 0.4804221956504951 -0.2618437170485168 0.5189856577459901
Ni 6.286275576125872 5.842986347947337 0.34858276316768083 -0.30660867996903324 0.35507114634579495 -0.7639829926611295
Ni 8.39220215962651 0.027158237257638152 10.988050523059126 -0.7401354966195705 0.7747320036475174 0.6900604343400504
Ni 0.47726092603894504 5.0737837042728104 5.568953751866738 -0.23036647237584196 1.6413007268923732 0.7924651592612223
Ni 7.497073870974903 6.353217394048611 2.5459533996332375 0.1620319496655016 0.11342267329823047 -0.7785701464466849
P 8.752979587748479 2.140326228238412 3.2666214042632364 0.41958938063383866 0.6024416094788012 1.6935645692930963
P 2.2253328675374737 3.3654744013581506 1.4682156257847159 -0.2161341308265439 0.2870119887840282 -0.19723575126014417
P 4.94333274869894 1.350518397681518 8.085641958765281 -0.563015799383011 -0.1585265076154044 0.012249763901630517
P 8.700542437392514 1.7678485503842998 12.379972325862825 0.09580110356172533 0.5823314689924873 -1.014723143597317
P 6.549426484692942 8.062537380014064 1.3058662383924653 0.29500040630614355 -0.504969545972556 -0.25278906304541626
P 2.0045942260928356 3.5785008937575546 5.977329799054663 0.671548748689108 -1.297012015874063 -0.07087502974400697
P 7.360385817294793 4.522287652890544 6.0094995674037985 -0.46402241413623313 -0.4414895231410396 -0.25171022815894073
P 2.663331943891591 8.62929383493802 10.109890783357576 0.6583607892439243 1.3426120731013653 -0.030381183395018642
