# total energy = -340869.0595958879 ev
CRYSTAL
PRIMVEC
9.27362175302687 0.00000000000000 0.00000000000000

0.00000000000000 9.27362175302687 0.00000000000000

0.00000000000000 0.00000000000000 13.57288282760526

PRIMCOORD
 96 1
Ni 5.780331775580656 1.539838490501966 0.19415161343792414 -1.3461879633780816 1.3659566613645766 0.47455005314043436
Ni 8.289541926850308 4.853841340866635 0.8603212902204812 -0.21508717761926827 0.39657517912685253 -0.5441798976234306
Ni 8.247161476360418 3.7555756141560614 10.365433764871469 2.0884235370597906 -1.858452243239838 0.670719310809277
Ni 3.750966624245016 0.21376532301913198 3.1504560427706707 -1.5578761426181298 0.6523210108077476 0.49813118289448405
Ni 8.804265017439132 6.194881206171273 10.666249646031424 0.43099890802236096 0.35222133560182567 0.05959688572702639
Ni 5.362156358963442 2.6729544870026962 6.607035260315162 -0.9074333226697017 -1.2243660102725622 2.2293765545678057
Ni 6.817558525239925 6.78536051121347 -0.05785163332408934 -0.7469152385455653 0.2939387978108486 0.15821566124320494
Ni 1.7624517758432874 5.382836535023062 12.027229652395878 -1.2606273065974418 -0.10607317491169474 -0.8215497353320045
Ni 3.4235892362375457 3.4544889432468056 3.216854245716529 -0.4726551501105667 0.5794055535949441 0.07286789180431967
Ni 2.2140678717748434 9.019802529536735 5.770226310176097 -0.15730600494474198 0.06275651440193063 -1.4766241405151732
Ni 0.8242979073040737 0.026363051346315693 10.096365199730572 1.008478705349502 0.24999838767415652 0.9825784405439725
Ni 5.855114259771133 8.55128062151698 4.142919021201339 -0.11931641307484614 0.4231873823977422 -1.149895292757497
Ni 7.654354492308818 7.194113928334462 4.461352001222487 1.2689101154315243 0.9456769395319327 -0.2122345386618216
Ni 7.984745807320493 5.000837516077854 5.399509579210321 -0.20579315391185204 1.6274190838142748 0.43790591955483943
Ni 2.831023366346284 3.566412281750634 7.459397928520233 -0.503245621302914 -0.3026388966880078 -0.9020905703005495
Ni 0.31117822588148736 -0.18031351535892728 7.71500304989281 -0.2866561481065063 0.8044876376433951 -1.4339967927629496
Ni 1.0056037001690006 3.2140053891759397 13.345238478577615 -0.2364761848180056 0.20175060841136222 0.5875682919113946
Ni 0.563633098013054 3.750150545548493 4.2846468520092085 0.4541750890285081 -0.6807926358848793 -0.16204866183604993
Ni 2.7498235360422383 8.904234657763208 8.062428152970094 1.4023323717801333 -1.8852845329413337 0.6922538424469433
Ni 0.7331113139513271 6.272204662666833 4.7758900601920455 0.42738625097043814 0.25362364313156965 -0.5179829275130886
Ni 8.265569615139944 1.7891783531544179 8.778044779864707 2.264850064884067 -0.8909031862251624 -0.6678813271398498
Ni 7.126091914254954 1.42753493351453 5.287438790123825 2.227147665237287 -0.8145311379223263 0.15254097945593084
Ni 4.434775656580488 5.978935654725406 11.20692589389399 0.04884633207874168 -0.8343988233805307 0.5050615914657303
Ni 1.8185850070939025 7.082598629178895 9.79238701362159 -0.15367894971511598 -0.7313801190244437 -1.8861533086995326
P 5.4065120908437825 1.1947484853313246 2.2723451643281423 0.24235372664470517 -0.05227052726894224 0.932169134853485
P 1.8279513648608152 0.27063117037230766 1.6851681959203977 0.04886381558023843 0.0800834357161524 -0.38423516950426084
P 1.6421172625923404 3.143182741387909 1.9927974068341647 4.246542224622874 1.0571946824979666 0.41012643544872596
P 6.735783730399693 0.9110192518798217 7.387828754197315 -0.36159763461040306 1.344843533535045 1.1685481319719941
P 9.3173003089056 8.888710615286167 5.219343514434061 -0.6909623773290294 -0.028538473759325046 -0.17794296446880323
P 9.059104137671563 7.424173931781556 8.87093771958291 0.9041027156345719 0.02957822787774906 1.3216699236320593
P 4.125658029407722 6.900390512937016 13.263611134320051 -0.7370982524551434 -0.7703199906227507 0.8291985101265138
P 4.545076111312822 3.9012085669992236 10.126497050875376 2.1828976942799763 -0.6559174699097542 0.520195104673059
Ni 8.01641522491852 8.376547044245529 10.546577269359247 -0.9324784385637875 0.9660945839563361 0.12022478382172842
Ni 4.757367855867437 5.156523074682732 2.0141072617971236 0.9729416887851566 -1.186009521981551 -0.8199777628591943
Ni 2.337573963596369 7.532703124797573 11.890672792965068 -0.1995029500277661 1.4625054417256038 2.412331884649536
Ni 8.899746224932331 6.909506482922041 6.877949276144788 -0.3711364273387738 -0.3665436657617687 -1.5102955646256893
Ni 5.835454182082168 7.027207287652391 9.101771143067392 -0.4107242169337249 0.6220727534461674 -0.3788885604803668
Ni 4.726078656753018 6.683434136742049 6.445192017000155 0.5267416475423251 2.6696188355653057 0.5389050223777364
Ni 6.247759396257346 2.6303607432171225 9.200650205497023 0.21577186239111876 2.431167015078168 -0.6766390187278218
Ni 6.909079896330677 8.752685134370253 1.7511592868801495 -1.9071674490573542 0.060729970890205084 -1.2688620358024083
Ni 4.948793951931405 4.5931041973275155 7.874171780752393 0.817398175057476 1.5913459922408013 1.856186587134113
Ni 1.4832786726599867 8.004702640899103 3.1989515193115547 -0.17201425768919407 0.6789314143064242 0.565247002706375
Ni 2.448356646649376 4.960358158005999 0.7403085716373675 0.5166397832216327 -0.9172549367458138 0.637208066425709
Ni 3.9430696946822366 8.118833101332164 10.361253216276099 0.3583102221083829 1.295476810176459 -1.8135975488189926
Ni 8.381313685722949 5.163107345984225 8.581984655111505 -0.18760542725923174 0.28809210922208445 -1.586782541239835
Ni 2.6543608757921424 4.641364123880994 9.620648816111242 0.28790416158099447 1.9067385890500514 0.16493061136953532
Ni 4.196081911469042 4.729815926238231 5.614653889754146 1.6598463511050445 -2.624377704339319 -0.056989015790534114
Ni 7.643726922010916 3.4168009452619224 6.902122825442818 -0.029256325761956064 -1.092882365707563 1.509561514673142
Ni 3.27076922669205 2.363540103940285 0.8409755883021086 0.7365799180578282 -0.11456372888120915 -0.3019308148773897
Ni 6.39731509101675 4.2062643479324775 12.571000507770146 0.19709408347595733 0.1918390057246051 -0.23400304068716474
Ni 2.1369113404672078 6.749675615483689 6.66125812552619 1.0217764508996725 -0.1302741976379305 0.9396690427749559
Ni 2.200491289823596 0.728242662636843 12.799254937101184 -1.591923462010826 0.8737055913999534 -2.0071766771631565
Ni 2.7675732476916153 5.94627395962138 3.0413166454565723 -0.3091764406962095 -0.028051249710261367 1.2150717294548299
Ni 4.270855122037968 1.716111488950949 9.14440383606348 -2.533479951616482 -0.13487672940694834 -1.210864890462334
Ni 1.3671080154856172 3.0242949130989802 11.061600825286336 -0.9629220997656255 -1.0269184001119283 -1.1053727848650898
Ni 5.25074306964494 2.065912493869701 11.431774122029198 -0.4369039606528862 -0.039627127473318854 0.20790222983505488
P 7.34668355009807 1.498858356866336 10.779882112987176 -1.2546165816269876 -1.8653574550001035 -2.513926969185219
P 8.866778500317109 4.901934342232188 12.285155033880613 -0.343286495006041 -2.9174832076155948 1.018654103220607
P 2.730293289054993 1.3429409577226727 10.565375827606086 -0.3049017245802555 -0.9067026151512642 1.3750537385698383
P 6.400941077043347 7.112431869709743 11.354937530665087 -0.14398331969390685 -0.1738502824566683 -0.5286440067713605
P 0.6502459412166506 6.291855466734246 1.9475319326796334 0.9742624644791092 -0.3848064686266986 -0.5032713323345268
P 2.312553732650696 4.706223833011474 5.164943523051401 -2.832314901177367 -0.20084120922321538 -0.5561067309680036
P 0.8566192604971629 3.7828957032464814 8.998264543483613 -1.1985979001695228 -0.788949689908796 -1.352529589325393
P 0.36770094923726127 8.676966014403083 12.380966382301043 1.2041203726496488 0.23523999841805937 -4.608941786309282
Ni 2.4061338477258585 7.322275378174789 0.9195491289827981 -1.092086609279145 0.133266447497035 0.16989181202955256
Ni 3.2647506463051923 3.8017211549958203 12.038590766158494 2.746333097698909 -1.0635810456402846 1.0521442645582524
Ni 4.851689860666712 8.669472928189554 12.468525134902881 1.6228893142647212 0.29275866145981844 -2.4750863421689373
Ni 9.056609533474237 2.9014565220291555 2.032457904123031 -3.674043682560408 -0.19802250882749767 1.2474761139274644
Ni 8.424380384207643 5.445544763953618 3.227767443558215 -0.30169427338655136 -0.3782763808176646 -2.080828755431668
Ni 4.637942157528527 7.446337887289398 2.0935358303848517 0.2578921885999365 0.6473297282407432 -0.22058085374398786
Ni 4.791188753665387 0.10523705736527032 5.976194372194813 -0.48536411303680277 0.08663126413699919 0.8965686120410559
Ni 1.7962263055334808 1.6060057802711944 8.589883925948987 -1.341917875247818 2.128826109246553 0.0830952259592827
Ni 7.099216958999 8.408976898810769 6.357307760281862 -0.23353844234592036 -0.540431743434908 0.35429133075697694
Ni 6.010938922699283 0.2897515232869811 9.605800820645298 0.20553758625762023 -1.3753015929145862 -0.3627376617521172
Ni 7.058422297794398 0.058536026594582555 12.618450847162187 1.4846958617797141 -0.39031557137038586 -0.4810624003376554
Ni 0.6688256419948776 4.729973577804606 6.733371661434175 0.47702731103633333 -1.3815542586925176 0.43797533934019406
Ni 8.518665294520712 0.17702694388111162 3.1149631110070035 0.8917269676780384 0.49433237797368407 1.3797202908075723
Ni 9.320175131586534 6.8044548979877995 13.145092396168868 0.22224744281313338 -0.4074440035205564 1.552727765647971
Ni 7.000452889476607 3.4986128345883603 3.0705387543271843 -0.5182472369180687 -0.4191898312025749 -0.5474775945380959
Ni 6.574469083513116 5.055347863556974 10.157185319313264 -2.524446894879936 0.9850875801190712 0.22064641687460065
Ni 3.744586372617654 9.174430895284754 0.5918972417774064 0.5349678921068592 1.1319495069123537 3.2873718785901964
Ni 0.2659127517269561 2.0088704477070487 6.196550458050524 0.4858261402748859 -0.7536021636474377 -0.021484138015704937
Ni 8.162586047811663 2.393002399609078 12.235546722753563 1.5351175087653757 1.4804147179058569 4.880861142426245
Ni 5.463340843710752 5.914159408188888 4.123455544289265 0.9578631971854793 0.4853545999551061 -0.2958714960571872
Ni 2.9420749844242806 2.1863490169577133 5.242512730518075 -1.1483410608964997 1.6505651829134347 -1.8017277939646001
Ni 5.215762969153065 2.106781344046714 4.448104632836314 -1.8334984015079778 -1.0016853365767524 -3.765656716182715
Ni 1.401819180952502 1.2939669623097372 3.692272018721905 -0.3486685852535608 0.3305752180869597 -0.6346138233359716
Ni 9.058807381781918 9.184390764830956 0.5961046838752759 -0.2013759986807629 1.0123129914939275 2.8932572451886944
P 3.359554879425139 1.4343695925979107 6.986003659737373 0.379054910854902 -1.0137044725248157 2.824774369825948
P 3.694620099698719 6.700414137802659 8.503560419737793 -1.0114007640923033 0.14928262041963322 0.09899364235709403
P 6.697938080848436 6.606166321975796 2.2011283876241774 0.3373775857207738 -0.6603891325278627 0.8005047417362472
P 3.7120174137291424 7.642354426021309 4.40163173315579 0.39795226198003725 -0.39321191908157443 0.48167458000035757
P 4.752304458500373 3.909387901207557 0.30867620278692004 -0.3926928133533108 -0.7531578770211674 -0.5734519071146705
P 6.720231867057998 6.077402968358156 7.3102595467306415 0.5798968914090658 -0.2964780192929346 -0.7362310193588417
P 7.764024340775657 1.6893385435320614 1.0096256698358421 -0.14175700146654943 -0.993914948602714 -0.5725522781185365
P 6.369002724420331 3.750883161651054 5.044565423779163 -0.5221231749337072 0.7522335654346851 0.014783328956761637
