# total energy = -381162.42273772985 ev
CRYSTAL
PRIMVEC
9.37148551039356 0.00000000000000 0.00000000000000
0.00000000000000 9.37148551039356 0.00000000000000
0.00000000000000 0.00000000000000 13.71611632874222
PRIMCOORD
 96 1
Ni 0.28449112148855843 6.1179774863295275 13.430464190479162 -1.2107221942368827 0.19162637549316677 2.2788132119323787
Ni 7.836707921087841 2.7083686716226145 6.881677642906851 -0.7001759255074974 -0.6684978776779261 -6.632321812705177
Ni 5.009705614930845 6.740581494855173 1.2937110772374145 -0.10574587347926305 0.12207649231848655 1.061760704602094
Ni 7.42399707258009 1.0758746461371795 12.212637779667114 -0.6080021342857141 1.2135534930380907 -0.05957323157794255
Ni 3.2814350079665124 4.65674735776453 11.301778123940574 -1.045019223477697 -0.07160239482833475 0.08299623848757319
Ni 1.7632824766712965 0.824934379771185 9.826363314971813 -1.9226439474263983 0.4360179585035071 0.47418958447722204
Ni 2.3173996693997023 5.545482810599154 3.879192397071903 0.9210671114030524 -0.5011558286534208 0.4022735150632104
Ni 0.45606990032070704 5.7775395337479285 5.980775190489639 3.2469965600969437 0.9376602398750431 -0.011341393154748209
Ni 8.83123807336623 9.063547826622631 9.21685970598133 0.020373935670661685 0.00520211302622975 0.16141771312027037
Ni 4.515697129991643 6.43104132986026 3.941106990110713 0.28902953343468935 0.6173349816508659 -0.6746656970515348
Ni 8.0796168244081 2.4255653546667713 2.6196544415921017 0.23712924502097224 0.7384197994800444 0.6608056512399909
Ni 7.088216748275891 5.796516791819824 10.10204336582373 0.30326161787367123 0.46952843155612684 -1.6459875908450812
Ni 6.606578624153923 4.6611238414779 2.6811576264188837 0.3310958664771201 0.49171139541106934 0.7730163065079912
Ni 7.089060181967974 7.249256354551173 2.499871862939392 -0.326702879615747 -1.6215212302726008 0.2830941417868608
Ni 2.218408668405416 5.535483435605221 1.4170801233785753 -0.523302282843473 -0.32571454756054874 -0.5856767313156365
Ni 3.794092748986244 5.738910270650471 13.363872289043472 -1.0862136954381356 -0.9714450496349722 -0.02088018588311888
Ni 2.7643164398642015 8.716287432620616 11.675926246897685 -0.278951580373397 -0.36325856725259376 -0.8496089554620658
Ni 1.8362957199493883 3.3142820645304596 10.330635450795132 -1.7558343738665954 -1.623726979674668 -0.18234417886029242
Ni 6.999262608217406 7.710005437565854 8.367503235081571 -0.2758477446370927 -0.07369964367699565 -0.11724667503001097
Ni 7.9001153917616405 3.3132418296435557 8.71094100016135 -2.6036800667806514 1.842090771162679 6.667171830504828
Ni 1.2115175267952594 8.245182858164236 0.10950580768893618 0.3198809715979071 0.1106646509371191 0.36535915853536427
Ni 9.259008899020419 6.446860397329572 11.211210214084568 -0.4251231659678743 0.02879841228893105 -1.4000196644865566
Ni 3.283759136362478 0.7244167637942265 2.461768340176667 -0.32767167128691954 -0.3245619220133442 -2.794140446990175
Ni 4.342052875762435 8.742574449357242 7.172911548189348 2.2654373048461047 0.9818793575944187 -1.2590823307078252
P 0.49557633445793253 2.2772053682291546 5.647514858627676 0.41780683481211917 -0.11250787479344494 0.28253004175327473
Ni 2.6548574896026036 3.4249218219609756 13.557544344865493 0.30987860896955666 0.09452712194530817 0.2591743977464698
P 6.853948354556761 0.8579810489755921 10.064556486804772 -0.3564546569568829 1.4380992449670975 -0.9454234287602298
Ni 5.323153689365749 3.2331812292938267 13.090153690099921 -0.772270172370586 0.12910537414080991 0.1967500698729773
P 9.219414372919797 4.635436599811202 9.605080988665138 -0.15197559387076406 0.27444469364197893 1.66959803117517
P 3.868277427947786 5.030425969299715 5.683574460409918 -0.2529366443668741 -0.19619136915602986 -0.3473496093318211
P 8.870926314321526 2.5726133331389236 13.268421835258847 0.36126030587564234 0.8149152607346223 -0.06317303311405895
Ni 9.172988033913294 5.986251886596905 2.0931072219608358 0.0240351865723328 0.02303091367753453 0.38965711185078056
Ni 9.075140354146054 1.7987254347097694 10.716278637826806 -1.0726801797280752 1.2324518726044902 -1.6457639048700494
Ni 5.713522916518735 1.7926433406412956 3.3440993198427305 -0.06357026855247762 0.35561236356124565 0.5907166077323891
Ni 4.8311881882584835 8.689128867735505 9.8701037862433 0.25905612700105063 0.6585315104938336 -1.1033297862931322
Ni 8.71420696284681 0.3852448988993005 0.19766712007686074 -0.2752389074085002 0.24640809921973691 0.48076492370189466
Ni 3.5621391121776127 8.857009658402138 0.09081344277525608 0.5250678593843281 0.11753720968723629 1.613305527231028
Ni 2.4869485844795682 3.0887853812090063 4.98140560311578 1.534128919599861 2.2294590869792827 1.6724203311153134
Ni 3.459746261958587 1.6256903270359553 7.0421418399744224 -1.089393378717698 0.02761544772442341 0.2341547357736806
Ni 5.300559037903359 8.673956432763456 3.2128357343436615 -1.8195632794841246 -0.258763021240664 0.7192612242737226
Ni 3.9889165603722345 1.5818130320766401 10.667338866417893 -1.344807280980471 -0.12838289415248857 -0.2592250484787471
Ni 7.871972820902429 1.2042077681305292 4.87797251800985 0.7919517099599135 0.8960680182555536 -1.3720424625473402
Ni 7.4745656081632745 8.157540726071216 4.6396547054201696 0.3005167081386825 1.8403061684584308 -0.6415935970879143
Ni 4.92450944054487 7.4886134648792115 12.421739986311541 0.590082573692816 -1.3086832815644043 -0.15092966910475297
Ni 2.064332075832562 4.4096212859838495 6.912346766248127 1.0388331492716432 -0.029478726185407294 -0.5492696534415121
Ni 1.5458827567938518 1.6947113175048485 11.97983414912657 1.0487776620788647 -0.10041957617034318 2.5946266983291317
Ni 1.041059577625036 0.12474665450489827 5.194718418180802 -0.0696630117137768 -0.018518884739793913 -0.43075876698709686
Ni 0.7449984201781753 7.148859630736747 4.103491404550597 -0.7884082155830293 0.79663137482377 0.5246881074474061
Ni 1.343861644568743 1.9412001282737317 3.5277026516783603 -1.9332430630984836 -1.6599821053519603 -1.974847111792515
Ni 4.576724243356671 3.8766930218976934 3.7289046960736005 -0.7294191386433309 0.1383826856776778 0.05908549330824663
Ni 1.5785236406775116 7.598831505463685 9.636531693894414 0.6025850770352008 1.5595995530671398 0.2901415355519455
Ni 3.8964668562343348 6.634440050449106 7.368105533251309 -0.3588241856303239 -2.700410367024866 0.23139568497130472
Ni 1.1547544393179903 1.3173403406954276 1.035304548399381 1.9435596145331429 0.8957571718833541 0.2275184614040856
Ni 8.116249961100959 5.254085841469518 7.059094857185316 -1.8366053225680756 -0.6790293733368693 0.3424755690689715
Ni 9.226021270174456 6.554791795459951 8.49801147885195 -0.8891450658834752 0.7560729937854335 0.6742152397776776
Ni 5.68164112295795 3.1021959769131455 10.537049915407453 -0.6098435583698271 -0.11581097102474894 -1.1130554982213283
P 7.32779877425515 3.581763002746772 4.782974706973309 1.0278149437842685 -1.4646494846518001 -1.3045772298158305
Ni 0.3319783126499942 8.947556950990114 2.676562787094118 -0.2900510327206682 0.3592633300502716 -0.6166685517114605
P 3.755491600345189 1.606506896283773 0.0011405097814072345 0.34938129504986926 -0.3609461170693332 0.06760098697842551
Ni 6.453832782517469 1.8209639697243907 0.9687154584093309 -0.322072065711955 -0.05715382350317254 -0.41364113347020376
P 1.7014494155560547 7.1941801344580725 7.371973145303789 -0.21639689756962732 -0.42946318810412487 -0.3600369749915025
P 5.404798070759504 0.4242180955134194 5.159070224610589 -0.007134039941619971 -0.2597636945910365 0.24920545945921596
P 3.1047169065039304 0.1411608113014042 8.58137833927465 1.4139041357781328 -0.2357724738827617 0.2924213327250577
Ni 7.28941316977985 4.0553510208520684 0.6284921128449399 1.1613148474483483 -0.26045197890731275 -1.3077008630464768
Ni 6.355619614816994 7.026777289550288 6.150018595143261 -0.7741316510593571 1.253467298513893 1.853817315570988
Ni 5.331878542336087 0.1679529511047332 11.966762801196358 -0.4534091573967611 2.0978679703021417 1.2621044053636006
Ni 9.180691394967663 0.8721769751619165 7.25793809868836 0.8380886135272921 -0.02625456282115478 -0.1513623857667974
Ni 6.439663096490453 8.871647918702532 0.6178395453139162 -1.7921049261628557 -1.3181056033195688 -2.2616901790988466
Ni 3.774703145553774 6.6707358136651305 10.087984263325234 0.2134897512251614 -0.6787213551781472 -0.10602458106194644
Ni 0.5810733335274176 4.09341799482147 4.219323902078711 -2.411690394410795 0.13653072007060357 -0.47074250646888605
Ni 0.5930707092230425 2.881291321470817 8.211454881966334 2.51146899456303 -0.11527463890530469 -0.35076274877842817
Ni 0.5830244768017725 3.617346533067259 1.5106797087833495 -1.1754831685289302 0.5169886819206193 -0.8526225454774091
Ni 3.4068442264939702 3.2756059440056635 8.744861091811337 1.2673890508013075 0.30369870541108984 -0.3668815087171617
Ni 3.0285829585651274 8.044408153506318 5.16193696201513 -0.06706414063834902 -0.356007027896503 -0.172229973244426
Ni 5.374940518059721 5.225380981482252 11.58142231314529 1.1141201920404167 -0.1202587223834574 0.3607365721616884
Ni 6.0418060524488535 4.514750609959416 7.390339382523196 -1.4593771805092672 -0.26628992574532845 0.7230978244109935
Ni 7.243961465261978 0.1583040696672896 2.529978697152612 2.4403265700902486 1.2998386866895808 1.2144904030300632
Ni 2.7360988971212503 3.4344619941669947 2.3099718300180805 0.8186916970579191 -0.7423052505773796 0.1349708317826514
Ni 0.24382168600480347 9.0108519638383 11.569461486242988 0.21826428979566925 -0.600467773581882 0.1872732407307936
Ni 5.838772819793244 2.161289464480378 8.234017670378133 -0.5825929501839903 -0.8438710245370241 0.5844192047594515
Ni 7.231263102453376 8.314991053412406 10.85397387380229 -0.030093219840954623 -1.7880060735031336 0.5647667206358468
Ni 6.9001966353393795 0.44620360042041507 6.783181456345254 -1.2587786834244772 -1.3492108093648054 0.72879358924419
Ni 6.057437690208815 5.145610897182018 5.10911645847408 -1.847012633944329 -1.324844207594983 0.19762244517560157
Ni 0.9246872825339872 4.299450102826714 12.232635592506428 -0.9565200528940236 -1.181127254188585 -0.3054815083431255
Ni 3.410367905029789 1.1870298352684137 4.536304089386355 1.2558818214926564 -1.5786509132716362 1.5948182670601179
Ni 4.961976639444345 2.7536142034601996 5.808514167515448 1.3787036766175997 0.3505570605255253 -0.09181332255857091
Ni 1.7743876869504058 5.24899712486061 9.025369331976163 1.375888832876624 0.5425127943336528 0.13358963516440867
Ni 8.055288448134204 5.970845164488166 4.692036623441334 0.7606966086003738 -0.5843448998780904 -1.8671351157258167
P 4.8947362312142975 4.8996094036574505 9.14704495069333 -0.33542843241420295 0.24171840705355144 1.3254782416345559
Ni 8.942224575759047 8.06883024463489 6.5693747639960876 -0.20360977310728806 -0.8422720554810202 0.149106242742769
P 4.687289028903447 4.4003903727982605 1.586598112556398 -0.09678249363838816 0.7420265429946963 -1.2128680369352918
Ni 2.430869615441434 7.5065692310351375 2.454567290743361 0.8436979892942695 1.4866203324959366 0.19171430722128271
P 6.94085013929784 6.519480038218024 12.28324817407131 0.9183183450133218 0.002998163396375482 -0.5126635721827042
P 8.323528476673392 7.838085529451579 0.8798119243723723 1.6144342415188326 -1.6074943198658895 0.5933075083880169
P 1.9633636914046118 6.587760681334977 12.166921799259054 0.8540052847575484 0.27055538588990174 -0.39734522452365767
Ni 7.547072791226116 3.8662625585722514 11.457716830675839 1.8317168841275229 -0.07069479541240084 1.279186557656868
