# total energy = -381167.30588736845 ev
CRYSTAL
PRIMVEC
9.29052572651420 0.00000000000000 0.00000000000000

0.00000000000000 9.29052572651420 0.00000000000000

0.00000000000000 0.00000000000000 13.59762350148158

PRIMCOORD
 96 1
Ni 3.3349177745939205 4.410797799803135 3.177016930750416 2.3679268761715995 2.59608657070411 0.1181103085818869
Ni 4.996844153903142 8.311908075315204 2.152639863191626 -0.25189071960086296 -1.0502784149941073 1.5962254318202895
Ni 3.147685812416092 4.1204502941225165 7.691713465363421 0.0028274421464660983 -0.2514405194373218 -2.127578609992697
Ni 0.3483928514502133 5.029593256601343 8.096949468572124 -0.761904769975862 -1.3545286220332928 -1.1912990525152645
Ni 1.6199610752275835 7.1202866823289135 1.1746039372664894 -1.0975959691331485 -0.35970633112496114 0.2641808498221257
Ni 0.6873298059568155 1.655803922946636 3.4855469240595873 0.7539060680411016 -1.4947524746847676 -0.46152407319441163
Ni 8.560634026360946 2.4819360392954133 12.399550736428314 0.0670469142471684 0.6887944231434331 -0.13478288414156142
Ni 3.7598385434187787 0.8985201755213453 12.570499194407807 0.20134488833251132 -0.024561234279131892 -0.7350609103101405
Ni 0.4973023246295146 0.6816904569248132 6.531645484432139 1.361074650681927 -1.3933900749851809 -1.2987943045854664
Ni 0.5592933566163931 7.313613229292565 5.752855099322858 0.03679865688558824 0.11625320076849012 0.0021905798934155818
Ni 6.240241645992148 0.8747169199119663 11.986033158710342 -0.016657920271655184 0.6860299730244185 -0.85519596263154
Ni 7.634721665195522 4.808915402306203 13.16345119617748 0.07895420720771563 -0.8259969724700807 1.610092162500053
Ni 6.6474082204180664 9.047067365104892 9.507321860846572 -1.602960436551278 -0.8518244750561458 1.7776455562044158
Ni 0.7469415343405709 0.45944529096295295 11.41925721278526 -0.6099075788385432 -0.37973522475137833 -1.3330786796896332
Ni 6.849393537229865 4.254828456229405 6.246517396026939 0.5737028467832119 0.964620570513971 0.26847613476336984
Ni 2.3959429344515693 2.6726798201455595 1.892027613708415 -0.12501783433499758 -0.8681913464499434 -0.9589726281995743
Ni 2.68953283356245 1.8522427959823138 7.333334227958513 0.26112226550145995 -0.8397181787109151 -0.2534722051553699
Ni 7.324668954742454 4.168974709269383 11.02087390125037 -0.884296222431606 -0.8934879162332032 -0.10439244477516214
Ni 4.875036072917011 5.451132274112117 12.353834847166741 0.7784549610250593 -2.052122388635911 1.7419257342053034
Ni 2.0490161279391645 8.428559914599917 12.850066903248504 -0.2987238779043178 0.5141442704932887 -0.8157881502578789
Ni 4.409989524076967 3.7213014432791653 9.553458610917287 -0.08755223328937178 0.45204878671412474 0.7910536236256764
Ni 3.963393959054973 7.5051838669200555 0.20438970483400984 -0.6027084899869427 -0.5895896932167974 0.7885252007768678
Ni 3.228903587107631 3.6165786388496266 11.815097707466673 -0.11968022417216806 0.0012410714959527013 -0.4223808273360468
Ni 8.102165169637306 -0.05003319650238078 4.654452981982869 -0.20099161875815064 -0.220251238318711 0.3128117234559516
P 2.081532967497662 3.1770810353769736 9.31487512665612 1.2012867598555956 0.11942594206951691 0.2810346881546708
Ni 8.01623709847258 8.234155666668041 11.381944603918162 0.24437847038421784 0.11870140519866654 0.011470976754077019
P 2.1973486594794425 0.6556556170691624 4.7837120644906905 -2.2040815274464425 0.2733766573887808 3.9411224227556194
Ni 1.955646345778336 0.14775373179613643 1.614813194999194 0.3832350103745206 0.8197548482151107 -1.7317217970891077
P 3.3144321656720677 6.618654043722766 2.4468652342527353 -0.5237388561602594 -0.23817851222109304 0.22381041642487906
P 6.776946018693532 7.720677607937013 3.619836826173388 0.3999883185734595 0.14725247736348188 -0.1886284692071074
P 8.877013584739538 8.960052302446353 9.432848078679466 0.6699556931703753 -0.45724267221023834 0.6954697782810797
Ni 4.424464162943292 3.1342424218900504 0.3541511192097438 -0.12926761075028706 -0.06809232479254726 -0.3032546758951358
Ni 1.5995590810360234 1.9920280439815008 12.799551528468099 0.7005083691462516 0.7226946754353037 0.42118963524142305
Ni 4.095691043430118 5.998687980700452 10.378264040212077 0.2468693551268716 1.3419394725143727 -1.524490882289465
Ni 1.197260742018292 6.0789674123075885 3.638941862992844 1.4722118703800904 0.09283045096917561 0.30162665337340955
Ni 0.41835887060195304 3.598118364505988 10.56608780886987 0.329196078351246 0.4666505957876995 -0.1383747152578778
Ni 3.0664866187757296 9.056599444358326 8.621532492538659 -1.886022696658939 -1.9743981971805542 -0.8129807627160709
Ni 9.250102511308151 6.66504163798436 9.648411498638334 -0.49281157045378354 1.3067675525989302 2.468548026829787
Ni 1.109632504670935 1.2513594725180435 9.013687435719255 -1.7434663392195457 -0.8608415909530918 -0.458653693625152
Ni 2.5772568318297515 6.052888906981673 12.155418950285908 -0.1542286515709989 -0.18537885192155815 0.7422921379512571
Ni 8.480744796828512 9.17495144982567 2.1918821142233793 0.19422730345112357 -1.0645637212685277 -0.31180256546514684
Ni 1.8734530659000423 7.564829041195928 10.336260644975528 1.3491745568102311 1.5611239601314664 2.384041779455591
Ni 5.4588155387735116 5.935605311956967 4.21129305332337 -0.5703483284886823 -0.40632943030013896 0.8735603240713407
Ni 4.345903478569962 8.715748641580566 10.523377404636063 0.7732271369672167 -0.28004044256220156 0.08978703615716149
Ni 8.134319678697867 1.7917150217755677 10.15530350377993 -0.612858433936751 -0.5671462766116168 -0.5686660556902529
Ni 3.5457476717656307 0.36903732835962394 3.42098520364247 1.102067888861573 0.764330091587903 -3.141777248545112
Ni 1.2819253017030312 3.36622684582596 6.066810759575505 -0.01590381571445003 -0.10059363985436225 0.3968729128729294
Ni 1.1903114288783616 8.534416163151208 3.5085400458376803 -0.5849470522384635 -1.2474126076793808 1.0189513227460516
Ni 2.376581479125881 5.322430623139584 5.572469325450931 0.6704616862725162 1.0316476872667975 -0.1556630700246803
Ni 6.347435730228133 9.36847309782667 0.7162883742150545 -0.8966177201114366 -1.1498063325881165 -1.9020290993895241
Ni 9.111404254802776 2.5776749054812176 7.491977384796511 -1.602510236387737 0.5213112205553732 1.4015831523189346
Ni 5.322133326320764 5.9127413284845485 1.8763767943026308 -0.03138134252475886 -0.5504495326822262 -1.1830339842929947
Ni 6.373672174489045 0.8361909684030585 2.7432116323056177 -0.14514931497755001 0.7388453170532372 2.131989851686515
Ni 6.257624219367562 6.133372730151748 8.043075568791604 -0.9710943511637727 -1.00930634345712 -1.0528469470522321
Ni 7.373128336210203 6.531295231617466 5.579172439662775 1.0425329667207335 0.8022011556020636 0.14414452786211948
Ni 3.304407688562462 2.6419560520255736 4.976797986841609 0.42116598109233916 -0.5604079294465187 -0.5106313722440239
P 8.527327492127457 7.665714858557564 0.3321093472518765 0.5758322344213889 -0.7358625802758295 0.9490641108366107
Ni 4.730707757905223 2.6804652805884226 2.6800778656713975 0.3562515398071413 -1.4278189460870119 -0.6316897077106413
P 7.736713055102146 5.383608734137501 9.393346621983802 -0.9448233332823857 -1.361114502780927 -1.1355068852463088
Ni 6.317269393643436 6.8198217942828085 10.355514330204393 0.2098475264868838 -0.3942755844593984 0.6477627020131038
P 4.493920132240243 4.37596761937319 5.6622538937872955 0.12632858272662115 0.783174992208548 0.20857791574584078
P 3.986304395155332 0.9612906826050691 1.0429813450490442 0.4308042755130516 0.3295804582738582 1.6617525669888218
P 9.34162347887694 5.170140327698758 5.91574123919696 -0.5825253301708484 0.28449924966450363 -0.9061526561850652
Ni 8.067427894463242 7.436684821758684 7.622609606986261 1.2218676693307406 0.45264451131659467 0.35516730560402704
Ni 7.651546807035648 0.4769365634877482 7.787848107939281 0.6233140820524361 1.9623417802366525 -2.5272915634175828
Ni 7.102578940557915 3.5214157852502868 8.376734575711584 -0.28821449373256164 -0.17996076622978038 1.4660021420249527
Ni 1.4481049328981301 3.7444348519936392 3.8130593192504514 -2.6513655457820726 0.03056990236705703 0.12356798926234848
Ni 9.345804215391603 4.152558350555136 1.774231181671243 0.6570394993293395 0.7607799123427994 -0.7049553491740117
Ni 8.311759426905793 0.3647683318518727 13.262129584659371 1.0513279393045443 -0.18951524268743491 -0.4399203788817069
Ni 2.724743925541508 4.977287597540104 0.8774762060116447 0.11808665443280308 -0.23839242800411206 -0.44450722692144096
Ni 8.548528471519596 2.5399832431701252 5.041087494858993 -1.0883363982080934 0.27712532579793564 1.36949089977008
Ni 7.960289553380787 2.6651544944191645 2.772337430024443 -1.1716442543988144 -0.45981094715804677 0.1227830314672079
Ni 7.037275836198864 2.288414391294412 0.5758500022670213 -0.7936717779748137 1.242618528724847 0.053912690858055536
Ni 6.6105712864610835 6.831648633356513 13.249034588842886 0.6617140219868732 1.0746218768354783 1.0383523529804828
Ni 1.4724925625670031 7.293434207715119 8.176971552620468 0.011710603568708863 0.9557083556260056 -3.1199784075024652
Ni 5.266603854880438 1.6844651943860547 9.410289753498898 0.9186564450790308 0.07361042639729903 1.0535218616320696
Ni 8.751656522978736 6.420635781337105 2.38483239490071 -1.8320984358366577 1.6862865475744444 -1.6736868565325627
Ni 2.990508700515903 1.1738579080617615 10.191295928960951 -0.04957601115591462 3.0629215145884734 2.687981654343209
Ni 5.620758690300417 7.922876606837338 6.240983029934082 -0.11206564504970377 -0.18298335510618807 -0.2342372681851579
Ni 3.7671316060054703 6.3336114281529765 7.21944074572092 0.9496341244074676 0.00847564157117895 0.4208649049121526
Ni 3.8137143013044152 7.538239556962665 4.433858742418021 -0.8210470846639731 -0.09572242780498998 -0.3597636667254578
Ni 4.903483662267902 0.33821322256328595 7.634807138030932 1.4770987661587465 1.054060507744359 -1.8270649871778082
Ni 2.814713375337077 8.264145483266564 6.431023517997207 -0.6668194615342387 1.4588853284745134 -0.9818251073177154
Ni 0.2435269729266175 1.6958739598082933 1.095209892747903 -0.20571756347891024 1.3228246060617928 -0.03742909138073554
Ni 0.3588372603164027 6.646339809975431 12.351006811177712 -0.9194953960405583 0.667368134948857 -0.09243167286886016
Ni 2.2998231567166503 5.472955718718664 9.235845270740588 -0.6800608999251772 -0.4151485712536657 1.377368502745944
Ni 6.12672071383064 3.2294981807452716 4.395526962893906 -0.7323671655280612 -1.2810014993784196 0.024642481139028526
Ni 7.584896576466315 5.021436175134955 3.908922678479137 1.4683652429404903 -1.3533744538241919 -1.2122054636506285
P 5.728194328201693 3.1213193007969444 12.20812317289488 -0.09161637605641641 -0.19070900588521997 -0.17045411229092577
Ni 5.036904900239212 2.736821608806093 7.046886884919797 0.7596095461837821 -0.35289136508565677 -0.1124371694565096
P 5.063838133919236 7.620321350533901 12.09070765240682 0.5172833303429027 0.1990380945762056 -0.6042961461890367
Ni 5.159419061170042 0.8657924410319969 4.851999285668653 -0.007433573459909779 -0.1416371880592335 0.9097408877569558
P 4.871756517384397 7.706147225917158 8.582085849943965 0.1429312242803087 -0.6377212586167018 0.24891235369882936
P 6.8281182336330195 1.3346769059925025 5.940258007171508 0.8407589612706036 0.9050740784089059 0.5158321997186729
P 6.83746450237469 4.389215908861881 1.840370433333227 1.1776063855195202 -0.7201024892280954 -0.2713172037565908
Ni 0.722752721919284 4.45717610353914 12.914192898015537 0.883478354516001 -0.912476284410248 0.12999574716556322
