# total energy = -381161.3371187538 ev
CRYSTAL
PRIMVEC
9.32894640223949 0.00000000000000 0.00000000000000

0.00000000000000 9.32894640223949 0.00000000000000

0.00000000000000 0.00000000000000 13.65385604403302

PRIMCOORD
 96 1
Ni 9.158777186259938 4.09061243471603 7.19462627318376 0.5928524231284693 -2.0043083544764255 0.9593186986850835
Ni 5.373025394196319 0.5246431590200076 8.376900455150674 0.4544522539492948 -0.7134081079270552 0.3740140059968849
Ni 2.0892268974769768 2.3942554611663764 3.76188274955037 0.002456174849976415 -0.4553379989883577 -0.43060964300374227
Ni 4.090211290016558 0.8036075790848601 10.42220667250869 2.399462227775719 -0.023206777133766485 -1.0584923182634671
Ni 4.5713330478277765 4.133096457074092 7.160847090804245 -2.530626284217771 0.08382079127139758 -0.6097995925057691
Ni 0.3484268228043974 4.476709543484822 12.08188782579078 -1.0629876350306597 1.0490784811487353 0.1534280100465745
Ni 2.4422622198520556 6.486817645700772 11.628661483801933 -0.13490501154172252 1.4171624948144301 0.3200074698734424
Ni 7.524980127934956 8.485852288421988 5.692893513082242 -0.9670356077133667 -0.5766927826494713 -0.6385584098060164
Ni 5.719567769807846 4.645330251460657 1.6902791649053241 0.2620303791380262 0.7835534585938893 0.7848204982317709
Ni 0.43078649407930014 0.40203934544153874 4.385618911181173 0.040334695063304726 -0.07160625148307667 0.5180400060032692
Ni 2.697483538181401 4.204640147777643 11.796781227350753 0.6739149349284393 -0.5670974256515523 -0.10768422815255649
Ni 1.3565221104711622 5.199889476114795 9.787138639565121 -0.07005176251176322 -0.6368144305317162 0.7024220412291967
Ni 7.470405790913731 6.399927838005782 11.652446565796689 -0.2937606203617715 0.20156857430754316 1.2338919474851267
Ni 6.865526228842074 8.552582242731871 9.973226866966348 -1.3474861133642149 -0.8563604152532865 1.3905832016640052
Ni 2.445200837999352 7.152139452141748 9.258297454620404 -1.6920568743993183 -0.4735882034477973 0.7408155534057307
Ni 3.269357287538341 4.601950650238658 2.44465509462914 0.2556581570630952 -0.7865655059473357 -0.21136422024172632
Ni 4.5856063359717885 0.5087736881299554 12.948019870103616 1.4027668882143904 0.5763379704132139 -1.081725320649479
Ni 8.651413101946035 8.395660033666227 1.3374481464585815 2.736453376691352 -2.527129583918422 -4.078227527272453
Ni 9.101749336309382 2.382090514931218 8.797029560749111 -0.011041345415826145 0.03303764718125923 0.31559262863519844
Ni 9.174589750576345 3.026627428571632 4.092524868748398 -0.4225410070629949 0.11842218339535086 0.7624241328144417
Ni 8.330665263405223 3.3117573493779076 1.8160585518721732 1.1977298957422728 -0.08888715005071143 -2.158631879754076
Ni 4.409363878705981 6.798451103511714 6.7587956177322575 -0.7399660609212417 -2.0420598621935864 0.784240714468901
Ni 1.8421777362810667 6.404116534983993 7.054497100711603 1.063884178703 -1.0396497316356674 -0.38325866452360446
Ni 7.546697915385454 4.709345482339229 3.2436233886198713 1.5336715203474682 1.8830623284790344 0.3357341365800799
P 3.444694836993712 5.277655574133417 8.629851107902077 -0.3183167124345808 1.7914706350129663 -0.8705493051591587
Ni 2.059271650267549 3.714506627648048 8.154984408718676 -0.2293614281500953 -1.0045454317333666 -0.9795023727218097
P 6.600882674548381 6.447617412510484 6.076225522108625 -0.32047643909006096 -0.6616790549838798 -0.534255439420867
Ni 7.080362537775713 1.4723782970466477 11.601845427089538 -0.8747553728207065 -0.5690036415353297 0.5139619792791535
P 1.1245391978717094 8.88105444897415 11.44930502419464 1.3539555231386422 0.20552730184497506 0.4759662167616706
P 5.1278700091397775 0.45182979869789447 5.920025373502029 -0.551542765746405 -0.5024894598631797 0.15513445121471992
P 6.442187965647859 8.620599591658666 12.438444825469364 -0.21490591484639762 0.892955954989133 -0.6675884784897793
Ni 2.6086346517215464 1.3151389038000245 11.923912378665358 -1.8724475290776654 0.9661755737059168 0.6480825472463677
Ni 1.033805864218986 2.508861568910948 13.386295642432597 0.7668191765583439 0.575412373275151 0.7673750490618139
Ni 3.588677797264752 1.1864181000019292 1.2170814142506579 -1.1554023386186552 -0.9937750805907402 -0.24290548538311715
Ni 6.265833561024058 7.24115625963859 0.4304096046407262 1.6622698729448724 -1.3997831229957183 -0.6313588067337836
Ni 5.658761696525053 2.7365438371741986 0.5271899614143314 0.568892312768446 -1.013397482807358 -1.5903031527985836
Ni 0.3559095707915298 1.410387447558436 2.2919775562207017 -1.8032306037623718 1.2335240226227464 -1.5244086069883036
Ni 9.092998784492988 7.381762141276863 3.907570108346842 -0.9557978300160184 0.7436571366195838 -0.6813492797192976
Ni 0.04865325467808439 7.312261489856671 10.239682102670216 0.9269572516352422 1.3894670857816909 0.47229185323387696
Ni 8.05013451322313 0.1062762914152983 7.838952352633288 -0.06469692595775309 -0.5951548460094008 0.6703146191716908
Ni 0.39808293923116245 7.888128028315336 5.926770201821063 0.46139654647761186 0.6461781311348033 2.041453338957839
Ni 5.717170230557512 9.10368042823475 1.6776356437147488 -1.223711664518015 0.007742877170212471 -2.224273171902969
Ni 7.507199155907187 4.339723293088298 5.633813294901829 -2.8036051919475007 -1.1083411234647944 0.6270002726547718
Ni 5.265929088383727 0.4457118755836177 3.695074432089892 -0.8663067278327209 0.40308212700743484 0.7686495448988633
Ni 4.115287498206823 7.801900575821801 0.18352276711390472 -1.4297015078217055 -0.1499724473978062 0.4927231245050353
Ni 5.090274354747378 7.084336668984438 11.612441244523506 -0.24135948105223598 -0.1973907887807697 -0.03810040641614728
Ni 4.532552617229959 2.417493866896269 2.7017431351530057 0.47972594091441895 1.7872820508529157 0.8282001507689867
Ni 1.5739891823176186 7.08041851145471 1.887795351768261 -0.20854423429442795 1.3462722955617716 -1.447481714623262
Ni 1.2361133980039913 4.5365827221176795 1.2515835899838712 -1.3392999780089967 -0.1816875191129 -0.14487549249087306
Ni 3.3731791331296592 3.4701908477764483 0.2834441801738426 0.05463285685353172 -1.0030919871162918 0.160959028316297
Ni 8.706836373098701 0.35913645338565664 10.03636237819003 1.8361250404975475 0.4267995252290327 0.7871074944937347
Ni 4.506711435426746 3.801993487918996 9.834149066764668 -1.2870870434508672 0.9350204882593509 -0.9460757176322481
Ni 1.8304419215848784 9.177453737151646 0.18913692711721636 -0.7830657203241933 -0.44216238083834825 -0.24946976886419617
Ni 3.901113544474639 3.085362475731569 4.936756278259348 0.977272969170659 0.6559827759300508 0.8068206566519459
Ni 8.08739432554155 5.490047699084224 0.2869444009004005 -0.3032688169625229 -0.6523482645012572 0.5224489337042422
Ni 3.485751530537372 8.143750491344154 2.7073824833118656 0.8970164982117518 1.0572964981831534 0.28498210283819303
P 8.974511835004684 6.037022490234387 2.3199811878224645 -0.5819604588063139 -0.21950767528446713 -2.5819781563271853
Ni 5.6093089511319745 5.1911482532449 4.260111929452105 -2.2727783185922084 2.0973092695851947 1.3736648286421116
P 4.555240615116389 6.384637694693341 2.244857980347111 0.01044793480620136 -0.5221332022360362 -0.49777894176138787
Ni 6.3034292154164575 7.641787867053376 7.914539208749659 0.7103731777554734 -0.7875332691772438 -0.5281200159470903
P 1.5720954061782497 2.7866869246082295 6.143743772397705 -0.6334851090481671 0.04998044568318489 -0.8194681702126274
P 6.223200275522008 3.2507833550581258 4.002818652105253 -0.6289489117407104 -2.7921241878910945 0.2959275461061032
P 6.33736792278111 6.20582977714021 9.694251252165696 -0.42637683586931735 1.3028471344986015 0.5262585372583195
Ni 8.606914027144112 1.7006389599928575 6.3460531719720095 0.9763982798751893 1.696381212806285 -0.16337483684664122
Ni 7.677135245339431 -0.26328805836733693 2.8650024975756625 -1.0479361400141758 2.2814874163304317 5.244366535582323
Ni 2.6291023603411308 0.8546117282807819 5.9400415611110455 2.6517751225156654 -0.362169447953473 -4.581895837935083
Ni 4.849149074578558 7.825819994646146 4.846313074842754 1.3320684932575642 -0.3954912020340544 -0.4021732420399203
Ni 0.6039690568933203 6.78434573640469 13.358291077936185 0.7000633111890331 -0.007379580293522775 -0.4622750924278232
Ni 4.923323528194927 3.013856100814015 11.822641999941613 0.2392738021678008 -1.6048846501571845 0.9465210326997828
Ni 1.9705347111656875 0.42396983287222173 9.585375916255678 -0.5625254900101537 0.252174569389869 0.42079188558237207
Ni 7.049744935364831 1.3408588092987455 4.850123016593091 -0.3363380887126659 0.8765970540151354 -0.9273380320134288
Ni 8.542021875294601 1.2910329060456924 0.2195157084977149 -1.1142194366224423 -0.10920015057645065 -0.23890921973953044
Ni 0.00421854960700818 5.421591889671959 5.477039416085524 1.736962476662757 2.2083027646166418 -1.3499530868474687
Ni 3.507571936399362 1.857813050613985 7.711315572418417 0.5033494938706299 0.34293682497610617 1.1402215171131589
Ni 2.541979328983657 7.835568743737971 4.944811823561541 -1.1126014414030452 1.0056466352173454 0.580075068858143
Ni 8.367300036308189 5.428756520583464 9.786702044868951 0.2716614744698869 -1.2823574991856819 -1.090651162384199
Ni 2.95003677781193 5.789236342265027 0.28410560248064687 0.27311851863138764 0.13440056110147822 -0.5057784150270966
Ni 3.235493211745683 5.823063102271687 4.3401374983128695 3.025526875990099 -0.04774718547729196 1.857702509558007
Ni 1.3129092855866789 5.651792973490035 3.566209962515706 -1.1171651495143278 -2.53308888682565 0.7012354771202632
Ni 1.1616404180996431 0.8305701002572949 7.363155557483901 -2.12460178675256 -0.4391922424664307 2.5272640526137575
Ni 6.424360348887593 4.793763119211889 8.018295751715481 2.384657815773035 0.473461705172262 0.7300788837145168
Ni 8.669343337117795 8.613612210730649 12.494780467589669 -1.0094832353546164 0.020712807067319164 0.18175025403003536
Ni 7.208327696907361 3.6993564185330956 10.415776229686685 0.21925904960877077 -0.5772386278506123 0.6590961247480519
Ni 8.935675430727871 6.270768573722217 7.722457133222595 -1.1107024246081194 1.273712421916174 -0.029193076624188432
Ni 5.8792326891443025 2.203805018382051 6.903648968711687 1.4612635988987026 1.2148737545114108 -0.5944737607819761
Ni 5.2491276557383895 4.990687850866767 13.0190747240106 -0.23652760688123137 0.6907374058024168 -0.034556397818630805
Ni 6.852204493240996 1.676822159580005 2.2408166807235905 0.13739101118836983 1.2265036254408554 0.6382856157606039
Ni 4.425586916668358 7.872110227175943 9.462545409277274 2.30096635099065 0.3064965798712012 0.728489684850526
P 1.9346742408221682 0.26491409374217445 2.608814700388984 1.5235282612658794 -0.8080938669374148 0.23295300215609555
Ni 6.506483064921412 7.15542324130952 2.8737269283418585 -0.07326409880147382 -1.1540797631524897 0.4956806644714624
P 1.731527101852221 2.978611340939453 10.231858848135857 -0.027768428362519915 -0.550275211887891 0.133500417884712
Ni 9.288748068888946 2.3302775460738023 11.225735888442955 0.06722457747561325 -0.31780866244991074 0.510693592940527
P 6.064850737641962 2.6233557292975282 9.13836171974075 -0.4828652578743491 -2.328120799918255 -1.9118975075431714
P 7.164761516755374 3.995074693616139 12.514742547308986 -0.17724979505652055 -0.3602226086397474 1.1699568393940627
P 0.6606452055608496 8.140811873196856 8.197952603400052 0.23141959623070466 0.4777040253883837 -0.025693033890729945
Ni 3.1775417960916923 8.580569082229935 7.662489732230094 -0.16132103964140604 1.3940277085691797 -1.2169607189474265
