# total energy = -340866.6118312271 ev
CRYSTAL
PRIMVEC
9.29528818692508 0.00000000000000 0.00000000000000

0.00000000000000 9.29528818692508 0.00000000000000

0.00000000000000 0.00000000000000 13.60459384369246

PRIMCOORD
 96 1
Ni 7.114576394128739 3.652230270565709 4.561552061886381 -1.2884075620345037 0.20701005703808864 0.9831494825560938
Ni 5.794701243869375 6.07949028322066 4.139156505802526 -0.8163033993314005 0.4060563791444104 -0.4237643379471347
Ni 4.867710039241605 8.223987629348224 11.736696553815662 0.17743131493970732 -0.16009719453663396 1.4760752099902383
Ni 3.3771362167893106 6.98707292612229 8.993208048588006 -1.3086819960128235 -1.9026155680206134 0.3943234069781983
Ni 7.899888816270959 2.983908345494945 7.0736408744995485 -0.07244571666523651 0.6455996329235139 -2.6879639137313966
Ni 6.88405324718991 2.0710459789053615 2.533841646019065 0.3759258783076171 -1.3614392331101972 0.8301269354780542
Ni 6.450028356060281 3.633834895251517 8.857121311473358 0.4798699226914509 -0.659937903923057 0.2296095396051594
Ni 3.4136109276194704 2.8715933783795466 8.874970123842388 -1.049383928204296 0.7856532785457114 0.1858920441125508
Ni 4.516952339655446 7.767551798409342 2.759365786973069 0.5486417900495261 0.4359374829745589 0.6206187946084603
Ni 2.579600490686423 0.8226534538310372 12.927139463770601 -0.6942125088352109 -0.9968524339644833 1.1145778484031257
Ni 8.054831974993675 5.190693417736909 7.893521543865592 -0.34986594799577164 0.6682767628060555 0.20582323581883907
Ni 3.48560293459694 -0.017569953723539377 5.273058966326625 0.35409284159292564 0.16780613314511747 0.21908987102075814
Ni 6.587719459915316 5.9198994804064355 13.540380299655258 1.3611574402037203 -2.0943784690916445 -2.212298001818964
Ni 2.9158947218598072 3.3229168008177705 6.446060197534951 -1.5445238896809401 -2.527666944479131 0.9206379942854337
Ni 6.7694702297578555 7.872291105655581 7.697588023313407 0.7915148795328111 -2.799807415467965 -0.6189720030336565
Ni 7.946616229966987 7.849471173166274 3.335329728657372 -0.6835989949854226 1.0819965720329947 2.0917286901736234
Ni 5.3660397340213475 2.2248086360288344 6.7296213293172595 -0.7597635552631431 1.6496550123943394 -2.2936410209738303
Ni 4.970971395666745 5.777969725139944 7.555215812329403 0.5931370442484236 1.7265860185244393 -0.2127778127598013
Ni 8.437732781116708 7.003637129664428 9.58575571391963 0.020867587477628576 -0.6694908377188148 -1.9528225278923081
Ni 1.7099240329951377 3.063717689834332 1.8210975387216617 0.870901546292255 0.4264485696475172 1.0288454419313118
Ni 6.408552780187657 1.8485167798039261 0.17144880194929993 0.5385872340270015 -0.2446759470199786 -0.1516045836845905
Ni 8.81539104470452 5.914787071905777 11.784517093402012 0.6287208548903043 -1.420271215646741 0.5139509235355599
Ni 0.46180385986457595 1.2455035495070423 4.089799455079522 1.4280927685736888 -1.2130457001637367 -0.3652210902956033
Ni 4.965877577742452 4.02018425329045 3.0385451199059026 -1.9329988082981613 -1.8144856078509009 1.6299865874311348
P 3.5217709009170606 4.561662675815759 11.486821546408608 -0.9201248020944411 -0.04144129786392218 -0.24868532528968784
P 5.137199034243644 7.687128965049875 9.648622536487832 1.6859317353381866 -0.8394135029863027 -0.2893738041479855
P 3.341934960440224 1.004095620105899 7.790466542838116 -0.08519890256584682 1.3532227587376757 -0.7577161858158111
P 2.9131804977103664 5.03574096372601 7.932484603342346 -0.34660938873168695 -1.584225579145936 0.4246500829861977
P 6.564202380812283 0.05049479399660509 12.430340702954602 0.5479265091500564 1.1188931879490278 -0.25268981846339056
P 3.0634202406124755 7.743746565372634 13.126337489532663 -1.8731131876861224 3.0235738660287863 0.09648193167883384
P 3.7830800423180437 2.1959839473732976 0.9502424384887698 0.06376592950305146 -0.8436802486824566 -0.42691985285698086
P 6.273436471159317 4.46132933516827 6.582487142197096 0.566956529198314 -0.6821823171435542 -0.2603280517349387
Ni 7.512424023650065 6.653214060452857 5.69397192394529 -0.7203603708751724 -0.5984674553224015 0.591128241348511
Ni 5.833016421759773 8.574708147781653 5.17918771002397 0.6643838555095525 -0.5672277805818295 -0.18115015855219124
Ni 3.6627711273652506 -0.0015207091467416367 10.143231327407912 -0.6172434503783241 0.8356954307047672 -1.0993880280365647
Ni 0.032917404042519305 6.3783802747455836 2.362777669000542 0.49057136826935516 0.1314587048643349 -0.6537407739734096
Ni 2.6365155402310383 6.602006317852615 6.422647225659566 0.2504982101287105 -0.19093243474993568 -1.0234355837696503
Ni 6.793368415676393 8.92573541072512 9.68815818571666 -0.8470882459227411 0.7161833566793472 0.9815883087165611
Ni 1.7158265409913538 4.741889018396282 10.206016351440102 0.3474766218279886 -0.35838169877626663 -1.3348848796604367
Ni 8.112230379523806 9.115033954572267 1.2644910346784919 0.2952570024016399 0.844252576246159 -1.0329610067615822
Ni 1.0039561907831538 4.699223645636233 6.56305998989459 -0.7126923128069532 0.32396953984498394 -0.5026203290140893
Ni 5.262387975492522 1.4255904627648204 4.309976016741835 -0.29723315229140423 0.5660836396750573 -0.5466748961311424
Ni 5.514206627658645 3.972025365214237 13.286641240950523 -0.3542324524945835 -0.7784351635307174 -0.49376930638136257
Ni 1.3522227531362643 1.163342497257352 6.499444896627656 0.9596295450572827 1.8385045964733175 -0.10427443114005913
Ni 3.209988344682293 4.124096279888401 -0.022206443469228423 -0.5421975770860792 0.39642759780539466 1.4400113743881457
Ni 1.834490189935753 6.167284280109259 12.043861210881106 0.530048600428371 0.9137890896844004 0.26285596036311504
Ni 2.0894878306604676 4.696620964944987 4.28819529747139 0.66098768534381 -0.4518837218911702 -0.9632180337394894
Ni 2.6678034802550745 8.371466671659979 1.6308917747478509 -0.6794091252737913 -2.0463842006005533 -2.063266063957556
Ni 9.069180297965442 3.324320389333406 3.3040390000468807 0.12206595079552528 1.3163102019820427 -1.6926374294931363
Ni 4.603537949080252 1.4267058973467825 12.146317595349597 1.2736031500318197 0.5206427337334387 -0.4627219501572547
Ni 5.234929694199889 1.39050074987393 8.753467693886895 0.8274797276631942 -0.6679882850313593 2.435193619739058
Ni 9.040848259583607 0.022212950170956532 7.625959462103893 1.2940094816023133 -1.2273088949509703 0.8287189993869342
Ni 4.5967802745711985 8.565496517192281 7.385376024764584 0.2329157211602569 -0.10089703002739397 0.09673004313389792
Ni 0.7511355065509018 3.192866423849175 8.308475292230124 0.2310349591977763 0.396752071024349 -0.5695271181389676
Ni 4.619070375634074 4.766679551980389 9.58017854100982 -1.0034665968468912 1.4768974487812179 1.863830476832616
Ni 6.197233698634942 6.233885019940578 11.220661194104908 0.3461255071167329 -0.35019093543535823 -0.9886074203468717
P 1.8697658085903037 5.308706396508497 1.9434839505833594 0.7041554789805357 -1.0000056348814843 1.2723731342794602
P 5.142962112917115 2.9113679165146777 10.669130846938485 -0.15627884923180826 -0.37077261624145175 -1.1416811323778209
P 8.417366804707719 7.118387462283777 0.13078005709096246 -0.04720571115152515 0.270077932032851 0.8441795569163785
P 6.352111790340376 -0.10518455155020591 2.545637366723314 -1.2461581664469892 1.254007744398395 1.2493795015977645
P 8.45477104435618 2.341659703777545 1.006042982980241 1.1175901528668883 0.22759250917513063 -0.12710402744006497
P 3.651923526055669 6.995131940976967 4.507814141842721 0.1695423991099338 -0.350338516756816 1.1016346579788963
P 8.190087713344761 1.8948723819726336 8.74277439436115 0.08382516214677176 -0.13458902296320047 0.8794334950226662
P 1.9496959916760699 1.96959720367591 11.254672653566567 -0.6442251211734905 0.09081007810503715 -0.26179949407414266
Ni 8.76009337530375 1.4569806509588699 12.541367343127835 -0.19385115105862744 -1.1226354286002795 0.24252804743904038
Ni 0.1329923356785206 6.940103834933504 7.065750104360986 0.5521467178789911 0.6073092219837476 1.2204448208412852
Ni 0.5698773869820637 8.63280369892551 13.026167745957196 0.9404108060369869 -0.9160020381753192 0.6669726992826512
Ni 7.098439773843022 1.9557100431304821 10.686218375205325 -1.3787998358758318 -0.3550161247381434 1.0128878901607912
Ni 1.5658284755820029 1.2194116755773126 9.240579834887372 0.7079134033610711 0.23066163501875758 -0.3163431336479777
Ni 6.999407773541154 0.7149387248374139 7.263656085065608 -1.3918466417574609 0.7677648283010649 -0.27472957187224945
Ni 3.005817339742317 0.7870980470021776 2.948686639511856 0.6358088720853372 2.012069229368767 1.040990561934278
Ni 0.37627977235027 6.335417452763677 4.7489692394052865 0.5396295592485868 -0.4944030833106196 -0.38122132237860157
Ni 8.85802853160002 0.4207261223261857 10.02223177254312 0.7623590839044613 -0.7034365985366401 1.4080607896234782
Ni 1.1210954124655381 0.7566987365284377 1.4337879774134232 -1.695119315374726 0.9020628023864077 -0.21665272233417526
Ni 2.2223639752367004 8.537025049487701 7.840708504996143 -1.9599473118625474 0.4594527924876797 -0.8847078560477281
Ni 6.329803098701135 7.440961848099027 1.3090303375362375 0.396270246291924 0.36371185273992845 1.7805956399716754
Ni 4.140716255159636 6.125845885389368 12.722974965532352 2.967058190330245 -1.2158109216136996 0.47894149733991065
Ni 7.58834793752895 1.2094750125096672 5.018816103002371 -0.6343037482947205 0.8561405859329965 -0.5613268417163623
Ni 8.105537772032035 3.7491336498736647 12.812398426439435 -0.6813109702821943 0.3893868889085294 0.46523674615930843
Ni 1.3638883398059511 8.372805193158332 5.422559733818185 -1.0771559561112418 0.3233326775919335 -0.728355473265507
Ni -0.05983841767817412 2.8714818349213505 10.49395742301425 0.7356787463997976 1.1786098870833703 1.224007341381563
Ni 4.972300621876917 9.138811301744425 0.5948185042347358 -1.1872757902884843 0.9217767358755674 -0.5068351384263852
Ni 4.330609697450497 4.60978438273924 5.53545100880093 1.468922400995541 1.3539077006198423 -1.5776150158079538
Ni 1.1905776916335928 3.1466037745622977 13.1979521078099 -0.8519370893746102 -0.8335297905120161 -1.4718537157097231
Ni 1.461284369387607 8.675264575345533 10.79717715977482 0.29948980953606485 -1.2205507502915303 0.44430308133043483
Ni 0.544069019341916 5.481979863528124 0.29047682619047355 0.03470140803692733 -1.0328658759446145 -0.9363595187857487
Ni 6.852161113433977 4.299396119731925 1.955143030551318 2.074492014580363 1.1098850709131465 -1.1906917579485685
Ni 8.138080575960778 7.945426433079561 11.511826801149743 -1.3822929366307548 3.17033012048214 2.3199899432810045
P 9.278696093610654 2.9923856483178572 5.371120538542185 0.6929410983219549 -0.13644587366628114 0.6980971886015978
P 1.1894436664752648 7.138985820897343 9.14608300569 -0.263439600780727 -0.057247154547927205 0.5156283112379829
P 3.3040752516707945 2.4263769602775653 4.4451917853537335 0.37743922962834997 0.5370985652966169 -0.056687682500031394
P 8.340243798653223 8.659862282826275 5.631199913316555 0.18903701749943574 -0.8464966350853292 0.5933468462663846
P 4.943113416982242 5.475928630920978 1.5421078296677608 0.2965636370282054 0.9462461817718415 -1.1333330175234417
P 1.110796233158755 8.577050560403773 3.173910542657548 -0.5376392682914354 -0.3496540890952817 -0.10930119493068917
P 7.860532566104064 5.547204900708356 3.7578061537484198 0.4924169061185262 -0.4395609386597591 -0.5616590282448004
P 7.978935946979338 4.8603202851361065 10.235361576233888 -0.9700576823691422 -1.172750600089116 -1.6187434104171479
