# total energy = -340874.8151358264 ev
CRYSTAL
PRIMVEC
9.21405761779107 0.00000000000000 0.00000000000000

0.00000000000000 9.21405761779107 0.00000000000000

0.00000000000000 0.00000000000000 13.48570469485188

PRIMCOORD
 96 1
Ni 1.1874616428919813 7.36754184080033 12.321361843064887 -2.4096484242801015 0.3744222971788971 0.603566981332496
Ni 3.6302280330531596 0.5144263511126678 4.846087400743535 0.40877609206841864 1.315420857398554 -0.41413349972559
Ni 6.161403303629845 5.068993876513412 5.198064392079898 -0.4331172399169444 1.0537635453292302 -1.3477591645199434
Ni 7.3719093039912575 5.431843455540268 0.5537888041752054 1.4262225481341697 0.3996224505936085 -0.8868169319709307
Ni 5.892251473945906 2.1954979467187012 7.140841937613355 -0.0006651443878246611 0.10800972981277529 0.3830249512462436
Ni 5.9282231538981875 8.645844875252132 9.010405504731638 0.4899306493615627 -1.3840939943952357 -0.40178783367604354
Ni 7.187554444235814 3.028338163810615 9.867733000676314 -0.3570583519791528 0.14400645962235845 -0.4539184929330118
Ni 8.644260057385383 4.367472404985001 8.465907234597388 1.0192832521641735 0.7885162019158033 0.1840292798721992
Ni 3.779293053101318 3.270299310210952 2.6757797654545326 0.3239230028777647 0.840359926059972 -0.42734511331985753
Ni 1.7070239095798032 1.673300459624539 11.000788399046206 -0.6003214778120048 -0.09017424429325115 -1.355924216829239
Ni 3.660155291374115 2.522412702022736 7.145265606554207 -1.3296205459377035 -0.047981155864968976 0.3580700810731188
Ni 4.11250100958553 8.660937501215718 10.728430998805045 1.1634010405534156 1.4045355500790393 -1.4614659447174958
Ni 3.4153285731333174 3.7577598010397195 10.853807598773972 -1.0474301469120346 0.21784777108354095 -1.0848656660506735
Ni 8.460596251932301 0.6566886326083753 9.416621966151785 0.1986737692582514 1.1973917956765636 -0.3778822307030395
Ni 0.2952441973296542 9.11081385205336 2.8540201767426767 -0.6182369246398449 0.5274970376511109 -0.09531490795392616
Ni 1.5754563844674494 8.728817461822393 9.426183393479267 -0.5009820220797179 -0.8884966336661989 0.32651853151908283
Ni 6.832490743682235 4.102568255746247 12.16326888961067 -1.5077347458770485 -1.1870343637016396 -0.19385963569905967
Ni 8.345107256921569 7.601247191801782 1.4320736735961788 -0.9425203961808218 0.3663446623770852 -1.2076193869418426
Ni 1.2176745369912465 3.4224786816484225 6.648870244298768 -0.14201848265805217 0.08471296406836379 -0.9181211414008511
Ni 7.88931548125571 1.7133171107599794 3.0616460597787256 0.6899115674670118 0.311264947794122 0.9492353463071524
Ni 4.755034085864323 5.552501536732668 11.709529084519957 -0.13040969477453027 0.5938178723655322 1.4466245088292893
Ni 6.324261767553149 0.8732088452186906 10.649606580860429 0.6475649841800009 0.7119086405633933 1.1863869599256278
Ni 1.7468102092811228 4.106779079961973 1.4758081968783268 0.3874598470891456 0.9886709265949555 0.12398142265068325
Ni 2.4837044470331016 8.10329353543907 3.3522085945613114 0.42092866827055253 -0.5218202989813078 1.197034412337145
P 2.8504515723252797 2.549566529076879 5.107211943651238 0.1463551623601931 0.2566601159650483 -0.23259073372067038
P 0.2948618139490139 9.22511423366403 11.394489406347711 0.4510715104025199 0.8895998940327067 -0.74768862637648
P 1.2361395079503583 1.5499334455668807 7.831957974159667 -0.36664856677074914 -0.5106956498230559 0.9891039003673159
P 3.0299137676200005 7.213998788872865 11.527526573609755 0.5040706883073706 -2.206213486187781 0.7522302230005755
P 7.115371518839765 4.192644880544789 6.868376732901024 0.250013300072492 -0.15197405120886728 1.5485024147127138
P 5.091466962426223 2.4006581480039224 9.487287336299849 -0.34466434919017414 -0.09197221673393838 0.0285155909411896
P 6.543602403122838 5.600985906586384 10.49661176534617 0.6137670617939494 -0.1853369429400292 -0.49368574552862077
P 0.31183595042649676 5.751700242902847 0.43120314218208416 0.45924581868319614 0.05074329199113841 0.34601263568795243
Ni 2.443521942865094 8.397784022876282 6.2470774518194725 0.27986149378217606 1.327909476783868 0.9189770616432431
Ni 5.4701739341779465 1.6567335844825815 2.561704206843565 -0.1416724121725431 -0.38925704819888446 1.8632298671341396
Ni 8.074591746747636 6.218567315521228 4.227391090867548 -0.5001304727127 0.5568726625997505 -1.4145461402375057
Ni 2.7464432927911213 5.793329354077132 13.378156174249057 -0.06332164287678127 0.09642922406402747 -0.9562714272183271
Ni 4.956702159408275 2.777043177299709 4.9121816770329065 0.7900928023743037 -0.20490303799741483 -1.2530718628476871
Ni 2.6894174917602114 6.355184144069506 5.409223866115357 -0.631049760133797 0.5926675608111729 0.10295057012231301
Ni 8.115050672636588 2.2225319910271017 7.486372774417284 2.0343246983328576 -0.3050490487913972 0.6754395991030819
Ni 5.421219647398624 4.413524263694403 8.321353417035047 0.1867631338635945 -0.05030131935771337 0.46883037704783775
Ni 8.261443616048947 7.736896544326754 10.327419558390286 1.7511027727188808 -1.285291127892709 -1.116761743428322
Ni 7.109225742577426 6.233687583656907 8.400137293127257 -0.5683066154683051 0.2692451517189105 0.8052103747420325
Ni 4.213100087894703 6.035502423796859 3.4596362107835574 1.1148259598581898 -0.12001395336250296 -0.0016048825932746553
Ni 3.998504691867899 4.560479264606016 5.8811826268335405 -0.7938412136731424 0.386270968987367 1.6483614903938966
Ni 6.2059993412756045 0.8615475342177666 4.8463168307719195 1.0100298518867055 -1.4253211193658226 -0.076025720707011
Ni 1.8222456969269554 3.45254415082985 8.999967820548763 -0.4509524683261524 -0.22489285085578042 0.16170799066717959
Ni 0.5387984542483696 6.436995759411798 2.7109102019694054 2.3825405123197156 -0.46372827993458193 -0.22362298300442132
Ni 8.672261577717089 5.411369820075625 11.842323000667571 0.36667479202299436 0.7684520841760765 -0.12417039873303776
Ni 0.18495469488989355 8.77665684766057 7.287499324472084 -0.029124942390414355 -0.4869903357863161 0.08048375647836462
Ni 7.861995801169001 8.6104628949712 12.678207542312823 -0.5926374789041858 -0.6364778731279038 -0.06000491979872247
Ni 4.842042429560377 2.2878043733995304 0.5012714414129052 0.21332597195378744 0.8995616332311088 -1.0828915730434383
Ni 8.931195017783436 3.2874466709668937 0.41853381330544814 0.10642824425826831 1.053616735338721 0.2801070341340789
Ni 4.406798001818079 7.274341650555113 1.1752778948384714 -0.031427622381662 1.6044210802572045 -0.7438160307949512
Ni 4.932598185341889 8.621141987457033 3.145540973491205 0.7242507070685139 -0.28100717735084507 0.4257497438082797
Ni 4.441442857509826 1.8277833454032157 11.662302433496542 -0.6824101168836441 0.35960348699850975 -0.5786164820347454
Ni 5.256472301715531 0.0466424797864869 12.980907754862095 0.403630286201421 -0.5221226607130749 0.48561865224977013
P 0.7601440687006443 5.066939141721056 5.057449584041021 -1.7448794175169884 0.5506099695194905 -0.14134279674726624
P 0.9704705919503235 8.810712003680969 4.838805531208113 0.3740721129283299 -0.05456626528165442 0.46132378425814746
P 3.3066119102857328 4.825475554418419 8.09968899619795 -0.37596264508282345 -1.0656502694644874 -1.3674985519303997
P 6.271069014386008 7.258475043772882 0.10438144885743403 0.6080450717085076 0.16927500438116008 -0.08758437207888786
P 5.64124212321331 4.307912738178764 3.0286468347323368 0.4692278695965725 -0.19868688188437394 0.9829612778046878
P 7.056392337647512 2.0601987283735927 13.147820404025921 -0.419370065534181 0.051822383987930105 -0.7454201420572775
P 4.734265600564004 7.280984985915152 5.115208824038171 -0.3771831477534859 0.8053206750676518 0.23029808103175178
P 0.6928160301301226 2.100970932212949 1.9207550270257856 -0.6469463767593955 -0.12277660370930467 0.2930008593776115
Ni 3.676003470041616 6.162730127890381 9.671111466351078 0.7950455183938888 0.840429860065959 0.5511383312191346
Ni 9.035581073669553 4.148951820520782 3.055604402364609 -0.34789674008454274 -0.3408580880702065 0.20698177490331449
Ni 7.532998668900515 2.9042340251637704 5.227436964147491 -0.04125592132599347 0.8153194381515764 -1.3037133391536386
Ni 4.878465598323535 0.0045480587152782305 6.999323230546988 -0.5509534689018382 0.5056442034420775 -1.998118680725946
Ni 2.587970720173475 1.3296990464328038 2.6102116118406924 -0.6762692940932289 -0.3810308036343502 1.0353729586371847
Ni 2.7935086978106534 0.26630745017541735 12.671086918781285 -0.2542687329147363 -0.9813905908834583 0.17555081008754284
Ni 0.1849150744432248 0.7212045408711522 0.016000210614020762 1.3373847632641547 1.1238908982739353 1.331620864197184
Ni 2.215814943208143 6.697182311279762 7.788048383787587 -1.3366954505066142 -0.7444770614177179 0.48378545569577325
Ni 6.361025856438806 6.377666444039682 2.3853379348234256 0.22419068258243324 0.9411795658822114 1.2194557174551384
Ni 3.149567516559634 1.2523562489124527 9.171924244714097 1.286468693140578 0.11493268218485367 -0.3343681094704887
Ni 8.732521512883054 2.629544547003571 11.74018241056126 -0.11695434060057278 -1.1888603611667847 -1.1879023681288896
Ni 0.9193869365139904 2.3188096764321706 4.291501580606273 -0.083027863056457 0.21869777778866206 -0.677765161912465
Ni 8.717364388517915 0.9863371987325542 5.543029485761627 -0.6878094335223445 -0.9241979437225503 -0.35602065474325784
Ni 5.087541773988807 4.883155553522231 0.9067950057192187 -1.3184413893924327 -0.5532106403671311 -0.6519217184867998
Ni 8.377513096673663 5.966037645323435 6.378656955206401 1.0854271949810985 -0.18384570310648338 1.465993400274204
Ni 6.9621233167479755 3.402613173969857 1.5864717900470993 -1.0264095787963097 -0.6525943190737923 0.47515194839049135
Ni 1.8766731337809839 8.212922389965772 1.130390692979984 -0.011783622898489384 -0.12163323413348084 -0.681935748350387
Ni 1.0763677532442715 5.97771185600467 10.078878653625727 0.7078900063223035 0.3354762549330029 -0.3032428488205939
Ni 6.703927001270815 7.690734116928975 5.87970008500354 0.5475092191069797 -0.00816608075056013 -0.04428956594599469
Ni 1.9152616060248762 2.459526760507797 13.088941656058946 -0.1902338660210143 0.34731001434313735 1.1725299994378773
Ni 6.343251939782056 7.6653586029462435 11.362758035594723 -3.208404044535726 -1.4193386765301426 -0.1255762779416289
Ni 7.078054586512218 0.641754488431465 1.1847923304733914 0.4032410211828023 -1.27239704553886 -0.16987972784469452
Ni 2.490946696121855 4.592968030874394 4.019251984836279 -1.131815809547967 -1.611636109948405 -1.2688892894959178
Ni 4.673333039210408 6.727505774067405 7.27687275211323 0.2281661222904135 -0.5997285814230122 -0.27381554469841224
P 2.7217035487665626 6.2840147649835885 1.9795397916076405 -1.853189966399634 -0.9383145856295905 0.8676622134193509
P 7.242497868302273 8.289841340847342 3.557259148563891 -0.09043443993317328 0.026737158884528146 -0.42376073840270895
P 3.5664759701459268 8.3019025419379 8.313019302148563 -0.13558763943104393 0.6176198598811363 2.4241620445152448
P 7.058566855185611 0.1774369454859318 7.2377636856282255 1.013523981082893 0.885037728583321 0.3687897814834681
P 0.9463481897692084 4.039940307837523 10.974032619270224 0.49019547298717514 -1.1677161229890018 -0.4260348791488663
P 3.5297303093749997 3.777136963677949 12.998519504109224 1.5044380774036477 0.7881505910462685 0.5150654967559775
P 3.8346418956918296 0.4630109896112008 1.2178302545607123 0.6106051191262001 -1.765830822957675 -0.7643393475592836
P 0.07918376618184372 6.756023281611542 8.30008645123129 -0.8081558305236016 0.28043536400777513 0.4652550009917536
