# total energy = -340892.8659455475 ev
CRYSTAL
PRIMVEC
9.08432450377354 0.00000000000000 0.00000000000000
0.00000000000000 9.08432450377354 0.00000000000000
0.00000000000000 0.00000000000000 13.29582716886769
PRIMCOORD
 96 1
Ni 6.330802000759114 1.7353966359383939 11.39829971292017 0.018474661765419797 0.9718332862123263 1.3478977469803366
Ni 4.554425977991717 0.2636679700772327 6.2008016865765025 0.9915901571242793 0.8109904717589195 -0.713527664224055
Ni 2.799180093500592 1.5682995751242328 4.822795085884071 0.1495495009277747 0.1332160538750738 0.7443505631421826
Ni 3.1797587749047707 4.1011181963984455 4.964448771253614 1.1991486304666703 0.7535096039336313 -0.8427934752021292
Ni 5.164601871259389 4.787983955241477 2.489430980078469 -0.5801097787508203 -0.9216949747950385 0.7044444709758642
Ni 7.316605618698133 5.869645362987554 2.3862421405771066 -0.12459231676180478 1.473622891795004 0.26523140257382705
Ni 4.796087172499617 4.881779603436878 10.992018752829383 1.2171648645384328 -0.7690496085507594 1.1018012654637477
Ni 5.6381495273494515 7.801990149325589 12.445133638239952 -0.3896805088895482 -0.04738337437997001 1.004134312337877
Ni 1.8868232373688194 6.6070108805054755 0.29147781199690165 -0.016218261631075294 -0.21854556848151396 0.731998726445049
Ni 2.7036402550433487 1.419471090438009 0.5827748459406229 0.38036617346715784 -0.3763768498021066 -0.8142298046318236
Ni 0.7631186684205016 8.983751726317683 4.755412110534008 -0.7146262966048724 0.04861441857359369 0.4763318276312054
Ni 8.6836056520924 2.258635545842387 1.5566752737749991 0.21358771025560636 0.2785754279809009 -0.33343402769199354
Ni 6.887153272665262 0.7159664832429489 4.877440930160547 -0.42100554425507486 0.35906149845211066 -1.0458718012859796
Ni 0.8588847065523273 7.464625598523399 2.74830061007078 0.2388760525087499 -0.5368450545249143 -0.8046658150924724
Ni 7.564071696421226 3.9105926632650654 3.8095331893750353 1.480847177457585 -0.12301520208267203 0.2941210890249838
Ni 7.87210296412192 3.854515129481994 12.578158123975516 -1.0604918651919997 -0.550279068542633 -0.17168669914644624
Ni 7.859503006344969 0.009512195954034361 6.827021404955835 0.25373342923655656 -0.26964855780491626 1.2480458703880053
Ni 6.86520554520375 0.43177702461623324 0.6080092819267909 0.4583482465695913 1.2414247655270618 -1.4415532649539688
Ni 1.8284655381913613 6.657819506205899 9.10377200184582 -0.26721500866275916 0.23559763886779422 -0.2008653775929315
Ni 0.06602032670799801 4.8946157536451205 1.3644309864877622 1.0088959953925785 -0.7980742779178835 -0.47858385689017574
Ni 6.420700473838212 2.198769848834378 6.872280416953347 -0.6371371039784576 -1.4283755899214303 1.538017713131306
Ni 3.5178591559736763 4.1066505498852255 0.38076036788978723 -0.45192665931396364 -0.13318134398239645 0.04909161532032835
Ni 5.947379925855162 5.813967539472822 4.7567148026358215 1.1343969400115816 -1.939126004241822 0.41321098791132066
Ni 5.173695279864097 3.5470380055624053 8.955151548185619 0.9854573047536641 -1.1433844882221729 0.6262446254356698
P 0.09081508139899351 5.6122955404473585 12.470727813467622 0.9800711007410863 -0.3768347632751316 0.6858723644006316
P 3.9938595796194525 6.1304926503757144 12.740140710219796 -1.1580140652098896 0.4708229819978343 -0.43274288729666116
P 2.4320916336528464 8.431697339796179 1.6318371560063902 0.7544498563597135 -0.059956325948974154 -0.9685235051128029
P 6.257582347058879 7.863908903620976 5.815155769088701 0.38144809367742694 -0.4956948055388495 0.5488464498611645
P 4.555497928256808 0.9896281184610785 12.70643605027456 0.7279505245176043 0.09701286448163937 -0.6010221034234553
P 3.930024032900897 6.061606219357242 8.210345969082027 0.31654085148108063 1.0344604741252443 0.5979900014653508
P 4.877128429405301 1.0756566693967153 3.971157853242667 -0.46386429129181406 -0.4282753384436108 0.2211871198694191
P 0.42783624474338433 5.485096831872829 3.4991427226587137 -0.6888209055059943 -0.5502590139379749 0.31174934362970824
Ni 1.555345328700345 0.9776731477080375 2.731029492748834 -0.03571056602773205 0.7603945039789227 0.06493398166922365
Ni 1.5642479664951627 6.598280844871986 4.96588500292235 1.4446689277648153 -0.6758823430674553 -0.6934008115671929
Ni 6.104111772665356 5.8247778853665295 9.188479692031084 -0.028299875385957716 0.07753315849047293 -0.5611658906584658
Ni 8.59005528065257 2.406301237020716 10.379746197517788 -0.27289791798014934 0.6333987199819479 -0.3748149046316255
Ni 2.2097073752680108 5.2794095615154175 7.030899986349014 0.40185905323361115 0.122727238528608 0.26901658064787215
Ni 0.45759194892392063 0.056066632593934934 9.143354219600493 0.5212186608415669 0.37296499590708027 0.31270939355013244
Ni 1.1084147427519326 0.9927803789863864 11.553023015631965 1.0018084924181778 -0.21599529125583444 -0.12094623536878527
Ni 4.140398814587009 6.99092350892057 1.6777475140548086 0.5947357561941111 0.3125710682000552 -0.36905614777097734
Ni 5.727303085837555 8.043896620589061 8.202674257227208 -0.09218124742095093 -0.188105763934418 -0.6145664177667932
Ni 5.553774323432852 3.1413684204956893 4.810376814592728 -1.1533572831641685 -0.18099357836966892 -0.32305191312672105
Ni 0.5163293728563009 7.559329679146843 6.7652489082813645 0.24134122621979082 -0.33735907377801255 1.348790176887619
Ni 5.161722140462494 4.972214051648523 6.847603758477997 0.3950394592086164 -1.9285130046126655 0.4473392970535974
Ni 8.195904618773435 7.284192749665572 9.139817692158124 -0.6624902380312655 0.14688609516299864 0.3139116413883497
Ni 4.525837609481216 0.1859061542367837 10.609950242243213 -0.04259546607302342 0.8632260320248681 -1.1601377964211115
Ni 8.071494797752996 6.976561192233217 4.437588849691442 0.8214643747070498 0.624515301449389 0.6311145519334614
Ni 7.411963770669768 6.203194497591966 6.826476345499009 -1.057426338892798 0.49426295818832944 0.32854250392764706
Ni 2.6261782219041536 5.244553009251422 2.4742474404761645 -1.5344839889464348 -0.8116437890722021 0.47021260210734506
Ni 2.3803745755243795 5.228401080680824 11.5251550340369 -0.5022269502304124 -0.6993649995704279 0.08222979263519387
Ni 1.1169176702784116 3.330940099579625 3.792528242754505 -0.49231251933017794 0.18166797872887422 -0.034691894955230576
Ni 3.8949494568541714 2.5265867748178406 2.709038160530778 -0.6756411735909268 0.9943682340900487 -0.335536418746977
Ni 1.0489941776336642 3.382529977168166 8.407310471265374 -0.572549192794743 -0.4931167603990281 -0.4596857344340922
Ni 3.8184140247915797 2.817230645845799 7.150867572796324 -0.7711859381674718 0.0009050283127726349 -0.768287019353122
Ni 4.108231222310019 6.797118534721957 5.9688289239136765 -0.9157418425353971 1.570923205610075 0.6416398769448175
Ni 0.8646596114973943 7.2826120772407785 11.366867950909896 -0.10515323420058666 0.695716604184563 -0.319812580253817
P 0.05391364773947391 5.715593391840086 8.017582966878377 1.3423783598240042 -0.5171084953279352 0.7005194248898451
P 8.552518852725848 1.6878038610332406 8.061804549043066 -0.411716148533349 0.3307181714227272 0.7226908187805618
P 1.754455548278728 3.0366534145152158 10.76795752818238 0.4221106043937956 0.40244963562975855 -0.7185881094660979
P 3.98207721102774 5.994118774277955 3.9698015636275996 -0.5308512988353246 0.43566391759819806 -1.0437503840676026
P 6.942195193480363 4.069495663578282 10.405606543446877 -0.5908973562846275 -0.021760017384910908 0.7553813670350474
P 6.319346667841497 7.7808600110493185 10.387896653262185 -0.10681005307771926 0.7235094580271153 -1.2878959125054077
P 2.504302927357955 8.439637039217272 6.1700748681303885 -0.6627625178560457 -0.8948518864602653 -2.3599173756035614
P 7.025216833079179 3.86466231970323 1.6017080860979283 -0.2643052912151319 -0.5082317616635957 -0.7980591084092321
Ni 5.47829267298679 2.5925843907151376 0.49175718411017577 -0.043208674176990106 0.8209110733067412 -0.06814220419387619
Ni 1.5605143092159073 0.9576694656425389 7.074882650785126 -0.9979664929642683 2.0056880084327715 0.07949722419537922
Ni 6.751097347917317 0.8779190912171044 9.336608683747714 0.6358258413662017 -0.38568887123165185 -0.9969750755852765
Ni 2.705993095031979 1.639647858022701 9.234709818294172 0.3371215038459098 -0.13325256353996406 0.8123169038798268
Ni 6.481601783814191 1.856209064543783 2.6482231516354644 0.41630351079371525 0.5520557008270814 0.5194080899953893
Ni 4.070213325196436 6.925153001130284 10.339021171768637 -0.41227999145661903 0.7628794751843055 -0.44138667901458817
Ni 8.229743726718022 7.390888138339179 0.07039533728145131 -0.5953474216361812 -1.092764609182776 0.6760872599894098
Ni 7.6442771954931095 3.9096842308370228 8.31991654639039 0.6706601754365675 -0.14347964058461093 -0.06790334871019273
Ni 3.1531144517902807 8.402354972370402 12.472775420160433 -0.60062795330883 -0.4151421434957625 0.20061958013071257
Ni 0.22273582173448792 5.011049537947344 10.21188605346407 -0.2505241782706395 -0.5366676484067854 0.10437984636967186
Ni 8.68191596777624 2.4445462422413105 5.899917056787219 0.7266590593996904 -0.8958723573049797 -0.2827203033872099
Ni 4.001826532013387 2.738987360818488 11.299458631019421 -1.0121438129059148 -0.6555713994242451 0.38996127335476066
Ni 1.1275554140107906 3.2323660968127195 12.933023625503948 0.07957101485610812 0.1793987230787233 -0.5333689230508556
Ni 3.308801601308226 8.606207209223168 8.077626716642284 0.2753278675778807 -0.7961233248390999 2.1511592255261145
Ni 5.852775772798802 7.734084825329403 3.5761914190431496 -0.7774977393181125 1.4662679940918297 -0.8274517026387364
Ni 3.1550948344834135 8.28146986917077 3.984706214474495 0.8713607453168606 -0.025824160151955523 -0.6589984228279232
Ni 3.0179487908218174 4.400900897652513 9.260582882277255 -0.2577240384531884 -0.4035513533343695 0.7405286182929312
Ni 7.25880206330178 6.12911183308509 11.398233397352923 0.4237008316990509 -1.1170311950396246 0.26157735076100763
Ni 0.5726957881514899 0.03889907656878535 0.4720641859350677 0.4603462508362265 0.34417249715542014 0.1904981754259945
Ni 4.781815699055067 0.41709857344392043 1.6552238404339197 -1.1459915868277166 -1.1227269598728211 0.44912312842689744
Ni 5.719917530197568 5.227547154198464 0.17996137242767274 1.4379709469193493 0.08261957187444481 0.06042812337907012
Ni 8.07838979988184 8.795769803982823 11.360486213102897 -0.8009659976433818 0.15126879761172657 -0.4292762689042994
Ni 0.14719330631574706 4.828654475044946 5.9844512363787254 -0.4993077197010885 -0.4867082857695231 -1.1015793792609287
Ni 8.103271764085926 8.896751152684041 2.5733274401054897 -0.12940670743131263 -0.19655980823904212 0.43631672069084854
P 8.708033400082467 1.5263481655972242 3.760724931881161 -0.6875646645013901 0.7600384061910846 0.22083513584663905
P 1.8596974450674668 3.039860180986206 1.6979701283354656 0.4417558894285489 0.9684342878331064 0.2468251321524975
P 4.861258114887395 1.3423179243243486 8.350789622457418 -0.45347857718211576 -0.733630091400885 0.1451986801582467
P 8.17451103509303 1.5292278963941193 12.584247346540685 1.5261685271022039 0.6556652446896322 0.01225979120395953
P 6.505657074508759 7.6399348884870655 1.4368530365161765 -0.9753114745689138 -0.6313330957021708 0.08127745602425356
P 1.781454160040155 3.1960287996910144 6.254183901345571 -0.337124074949071 -0.7739282767992994 -0.16310898477976427
P 7.101334386224871 4.032549716729788 6.1424458042638985 -0.5617469599729165 1.6697576966814858 -1.583989294765414
P 2.3179107617721684 8.494015804359904 10.204281565608927 0.613222245034073 1.112479314002884 0.5698690748594185
