# total energy = -340860.4394436365 ev
CRYSTAL
PRIMVEC
9.33474677135830 0.00000000000000 0.00000000000000
0.00000000000000 9.33474677135830 0.00000000000000
0.00000000000000 0.00000000000000 13.66234547054896
PRIMCOORD
 96 1
Ni 5.416617523384583 4.6083404665366245 0.9325150691013995 -0.5759895859348597 -0.07889250073184478 0.49529705587979866
Ni 0.0071410813102126035 3.6268571826154687 10.249600538870919 0.7351069330567275 -0.288930803073296 -1.5160052134159567
Ni 7.0103668506218755 0.3748106208940111 8.348075274536868 0.30108954992301695 -1.9328226877316133 0.2945023836238025
Ni 1.0546863684109427 5.612143130082248 8.128221450701064 -1.1243143589645992 2.852171016671346 -0.19272320810177132
Ni 5.2652452691016975 6.190682733171197 2.779699971826115 0.8136052836739471 -0.12654738360564657 -0.05065536026302244
Ni 4.344083119071515 7.838433570708594 1.0728564530780391 1.045846861585315 2.7462698485611416 1.0874560524856691
Ni 4.380647322329165 8.578566975838184 8.707054164839871 -0.05614749372584524 -0.003189196361259024 0.17875954683282763
Ni 3.2281421420885263 9.426227329480637 4.9410961860989095 -0.8872198238363043 -0.5193517828361571 -1.8035756458066163
Ni 3.5718661891534262 5.959330368213931 0.5085084655654504 -3.608045264182412 -0.8285215386641472 2.1295061660327135
Ni 6.102833430935367 7.993689079664746 4.841990112684012 0.9855804605950897 -0.6326597849333944 -1.320039330007172
Ni 8.125094310519469 5.912647299413443 6.773066384996808 0.14277824364221217 -0.45972712919498887 0.021362010615543856
Ni 7.324555758777609 4.38566008136653 2.3982467451015848 -0.15194114108840284 -0.7894582541140984 -0.9579531857961243
Ni 6.631226774157046 8.687326110930064 2.1662745529560854 -3.0017824811853075 -0.8492402592687374 -0.002385212402724924
Ni 8.527067177683357 3.6344276622789753 4.307942713319071 -1.219718741308538 2.0397960058600737 -2.520282221979285
Ni 1.5843212329584495 5.4032408312047995 4.086557991006308 0.22478794984679995 -0.20229208273712904 1.0258740180078139
Ni 3.28327315675273 5.84672531743603 8.516463838781043 0.21676790775580085 1.5829400275652932 0.6585716197031497
Ni 5.287732674168759 8.26968953861776 11.005524601705549 0.5866038711155962 0.7096694668202295 -0.20231830798937414
Ni 2.5352332210744466 5.970802772044324 12.11814520924796 -0.3794971405986432 1.2377030937011007 -2.6742195675621105
Ni -0.025086198579170393 1.861236497098916 5.15541823897467 2.0060507910888288 -2.2918417629815626 1.6136832222854207
Ni 6.0112128909879985 4.84805676463631 5.061680578450628 0.2706813699448048 0.8781062915708102 0.2396332423897486
Ni 4.777262044823693 6.481889494678899 12.617736191185113 2.63471276771674 0.2859663211283333 -3.3606660592986572
Ni 0.2819373579246422 7.195857604497999 12.796562869313052 1.0678999847306125 -2.118428568062313 1.1515212583966943
Ni 0.5479122988029268 7.054510868289843 10.322093249128407 0.27157148585924196 -1.3938564730986382 -0.31895331757731515
Ni 2.9163429291163414 1.4128045950579966 10.57028363038288 1.3050991637575715 0.511257692974113 -0.41692880308254004
P 1.7912165612715893 7.56153697606175 0.9716920679913749 0.8467771424402255 -0.248803596035107 -0.2292418718530955
P 0.879301411432121 8.997277044033723 3.970414137712457 1.5563100836825905 0.3128106950146871 0.19338243895232501
P 4.66336879898591 8.948801703845573 3.091105258482887 -1.1015089310343094 -0.7994176793196555 1.3387021965239976
P 4.6013114021881405 4.198647763760257 3.5781410059596026 -0.748030325986615 -0.066732211220227 -0.5989495371651427
P 1.8820249782464236 3.3283693185953926 11.400366655780717 1.8441612805384626 -1.8923566092967672 1.1554753579484358
P 0.44200399538704693 4.365973100342689 5.8033131439180226 0.7905969957042319 0.19027937454696905 1.0432860428366741
P 1.3479467742170068 1.325926106490482 9.12732126880344 -0.15430424200394072 -0.9318122657346983 0.0023975536978990968
P 7.306922422052129 1.9557041348235584 2.9884333117862893 -0.11428502129852576 0.9379602876139653 -1.2913383625280532
Ni 7.150696099427662 6.404868498743522 12.058482175007143 0.15541907233467428 -0.36397899035838605 -0.49733825467954346
Ni 6.419253343578865 8.647588093756763 13.22575119080364 0.07864336083551617 1.2143572198863086 -0.7117510319396064
Ni 0.20963974387549628 6.431976603481898 2.3147156967404 -0.39655512452219444 0.9579709264079372 -0.03183874177715161
Ni 1.7631936513457616 4.562441516468238 -0.1249679894540395 -2.395470590117823 -1.8879265985498714 1.282073906506992
Ni 5.147002031250112 5.804513592357884 9.802623923857793 0.24476722118220423 1.000602645035535 1.823238928563499
Ni 0.5473382118740665 -0.030019612268644066 0.303093628096493 1.20659017434638 0.38246213676423807 0.5890579890830435
Ni 0.15349870960637127 1.7503210354937575 2.579354835350068 0.8950598887060134 0.06133855100848146 0.07836311059093601
Ni 8.303677351755649 1.5212556835051207 10.124289964208925 -0.20008736177632636 -0.5258178501764751 0.5098410151322446
Ni 8.670934295530412 8.980810550659585 11.975687638169326 -1.5389628506533946 0.550241273326162 -1.6227376191782052
Ni 6.814001116711245 1.5620485270680347 5.00438016862761 1.3737051949617438 -2.0311450150532955 -0.41828711688264736
Ni 3.1869292349191296 5.445816611408564 6.234388017739061 -1.446171994672903 -0.8616154930046388 0.1124525960754773
Ni 5.336021319420693 3.6282480598902684 10.44713124918353 1.1788795958049891 -1.2699359855928776 0.3391539608949062
Ni 5.28152506753962 1.6451837821644444 12.238756672365428 -0.5027234302508568 -1.2885399738473098 -1.7659920311258874
Ni 5.953673511646625 4.875164869374685 7.864442042272665 1.5871756629131955 0.7362531308460287 -0.5809656989932124
Ni 3.7181230021840292 3.5616259719020498 12.737964929683343 0.39344100437324503 -0.08516342134222107 -0.2050611608418339
Ni 2.811597735153079 7.358151512549446 2.937076335257666 -0.8867500832887374 0.19075477152149084 -0.4305790468761229
Ni 6.144326380509085 2.304160898521501 7.969314188792553 0.1769245505066179 1.294540414405119 3.495280793293471
Ni 8.97313738878116 1.8708886253012162 7.9068908699198035 -0.8170436199315347 -1.2502606186511371 -0.27716466367630327
Ni 1.0974115045636785 9.264194794339891 6.437232999411023 -0.11580274349463282 0.9770852786398849 -0.970491170362135
Ni 5.13669647077106 0.28762408568174225 6.172661070978392 0.10445595102324591 0.1789341247374789 2.2669488563946247
Ni 6.246485849605774 2.6247627777362097 0.3032877908301562 0.9760349829984996 -0.3026090718913369 0.9212069794150264
Ni 2.362204354190654 1.3719930820014612 12.828587585196642 -0.061590004897655204 0.7029329194273443 1.130870157805246
Ni 4.0308463550904765 3.841407003313412 7.545808861160341 -0.5104655360901209 -1.0939385748862192 -0.5848930590720766
Ni 3.0431461297933717 7.901685815098138 6.789038136789976 2.68344031482943 -0.040050845274298766 -0.7152485035699038
P 5.6723709165051135 4.474452193030246 12.461712432566438 -0.9962163430423812 0.740188461344693 0.23174844032503314
P 4.809504260307972 0.5280068847037146 14.070850089921226 -0.3156401940436822 0.5551705923069793 -0.7922075347244615
P 7.7527872687200965 7.575315062354394 10.418863768891258 0.049879144218630225 2.0393699740662488 -0.18599026025331195
P 0.5493218455713478 5.058387279775801 11.601927176291522 -1.2380221676034162 2.808150645226338 2.0507609895120105
P 8.134793112455823 0.34317236352838554 6.431808578039305 0.04050515920289798 -0.9741231106877675 0.08350403136192716
P 2.0599732566994735 2.4729517903532194 1.466816373579593 -0.2892017973464955 -0.33920178341370616 -0.6403355563110973
P 5.392655228321426 1.3671576831535004 10.01962224864419 -0.597042549950417 -1.338017254641831 -1.2640535586701713
P 7.455410239570497 5.981173675751051 3.741473871331084 0.5260687898450166 1.2777004600296447 0.7571816534685798
Ni 3.2184900138862256 4.336073906307904 1.9404082186994875 -0.5443477906598625 -1.3918317293591254 1.3525144198167418
Ni 7.806480732375446 0.9809512033529434 1.0541710903869899 0.30736664118098034 0.42220650654171155 -1.1240716468261738
Ni 0.6771976086569313 4.091690234802851 2.043573040027692 -0.4269494205433357 0.1296357927229832 0.4400101103820358
Ni 2.4562239240683814 0.44102851434532503 2.4168415607485696 -0.3404210005327879 -0.5511293323580702 -0.48386927365883114
Ni 8.906057898199217 7.616331939840766 5.395178410384367 -0.3787774888237993 0.5649906637211947 -0.9859789815850889
Ni 6.506561230499674 7.402164843762064 8.654999882724487 -0.3969919549492969 0.1963824021209134 -1.2273880849283376
Ni 1.5554862000600878 8.879500543522674 11.128390406177811 0.12516053056044898 1.0408288395454333 -0.4381396328322003
Ni 1.1370001657880076 3.5335470534953575 7.8164605101908045 1.8500200533120847 -1.6749919484972313 -1.0579534150408618
Ni 4.533373114899608 2.196064530453185 4.627996642895989 -0.3299818074773349 0.6204820119202799 0.33915678910838365
Ni 2.3037034959277753 2.3785121568690086 3.8657062827364372 -0.3691461363816223 0.8013210669899554 -0.03458108040897915
Ni 8.900821105238393 3.207409669421883 0.0037068279585430394 0.6190175115596114 -1.8096293081998638 0.92078634693784
Ni 8.171880061534875 9.274369668363592 3.5716374878565635 0.5732557319434644 0.336762063623962 1.4131983679603597
Ni 7.498686125785068 3.7559287267675074 11.968856470453229 1.012695828754643 -0.058717311335550484 -1.646166796735423
Ni 8.969403490056866 8.030075922732992 8.161967493896555 -1.061280936752198 -0.18431312966120517 -0.3374104958412382
Ni 8.33872932602996 5.411558090613164 0.417177302769215 0.9839110433124668 -0.11445317144527384 -0.26518512271692396
Ni 4.659196167161511 1.6757364084759816 2.2384526822460535 0.2320556871528068 0.8721302764930335 -0.250735008729865
Ni 8.098471612615251 5.827262370335646 9.24515937864344 0.933783016307824 0.10122767389393533 -0.47256490438960547
Ni 1.8502868390899232 8.47214152744899 8.53365097460897 0.3022781709144794 0.7246379152046036 2.50967385033582
Ni 3.1784066110809284 3.8412203083771974 9.78609208725598 -0.6490197143486565 -0.028938794521537255 -0.4718856189343938
Ni 6.44952592748608 6.655431772637282 0.6080616733525817 0.1141667505531066 -0.2977463444823969 1.6818459953045872
Ni 3.2138786489617224 8.257722393206398 12.582446180867128 -0.03413782222397346 1.1012811312942195 0.8060837784859214
Ni 4.074131576051857 6.662246137809119 4.710777177613592 0.5567345943599895 0.9475376468897553 0.1282895631077339
Ni 3.87425597734039 1.6612768856661522 8.119928461634407 -1.3156892805685922 -1.170541508252939 0.27562740109617045
Ni 7.806182020477504 3.484941026851858 6.558854482133414 1.356138389722574 0.8372797444727514 0.7715870302606325
P 7.4371141358214565 3.945965502340459 9.394173675881934 -2.443010544680315 -2.593081979549831 -0.5069323261258818
P 5.888012902579912 2.957546501538928 6.141893745490208 -3.2546419924573433 1.7190791686244329 -0.8828638608604537
P 5.198725863328398 7.145898039566943 6.725727083495525 -0.09579313314192534 0.3392069256200287 0.43123493529256707
P 7.866363133166315 1.562067196561656 12.263717785337333 -0.44045516833925435 0.8681193555614274 1.4353990724271148
P 2.4693485780842757 1.8150575046262079 6.110074394036453 0.017800518516530636 0.08039582475024865 0.1411659048497698
P 8.23135173346607 7.998580486993571 1.0288757934792592 0.9949562453830347 -1.2016482569600724 -0.8154850171951633
P 1.4466337175001018 6.8117701122234795 6.164355013266199 -1.4937844543445435 -0.9083391223134227 -0.09747334905782568
P 3.448432832075072 7.17796289486182 10.488855700478153 -0.29139829077718205 0.4360812076412748 -0.6978123103713273
