# total energy = -340869.32634214504 ev
CRYSTAL
PRIMVEC
9.27718845535822 0.00000000000000 0.00000000000000

0.00000000000000 9.27718845535822 0.00000000000000

0.00000000000000 0.00000000000000 13.57810305699682

PRIMCOORD
 96 1
Ni 5.234347297902162 7.258008192794185 10.60375097398529 0.9919501115668594 -0.01601385892975307 2.0237461514860633
Ni 7.770767662116008 4.858203702098699 3.4196448624383713 1.3585853086011699 1.4017415322736697 0.32540832917403956
Ni 1.8848834365217177 5.270333510952395 6.658456916931983 1.2786520253096365 -0.450587885897882 -0.6647258122300036
Ni 3.6576798851411674 4.0763408344917345 8.012112785570627 -1.036293156458609 -0.6303843586356562 -0.8933058821293841
Ni 1.0452051320163152 8.359256818761635 12.305875658290729 0.1661770821821267 0.08213080516348437 0.255501833990889
Ni 4.532509455758282 4.683087497526342 11.990007809697877 1.3242919346359385 1.3496409549236885 -0.23653249197723777
Ni 4.385985545236148 2.7402030803420705 3.4381927448181933 0.4808646825045525 0.17276064893691537 0.7665983187967894
Ni 2.8055423168753983 7.414811227848326 0.72166412105846 -0.1300137448876922 0.6655017711640797 -1.6865326021469793
Ni 8.220711290096474 8.066329601164043 0.10406964185483046 -1.1133519464158246 -0.23169984647528483 0.4003377314930783
Ni 5.605991457425822 0.45931266034948665 10.466625782834436 0.9315649256105827 -1.3332573713593425 0.8233497646552208
Ni 4.3090312690691785 5.075642439265836 1.0891094252001823 -1.4164019624993218 0.4349815468191928 0.4367592075449058
Ni 0.319948883684576 9.3718155254818 3.7631169845375307 2.5646982862008154 -0.4674065001171176 1.6445701416722645
Ni 8.642572869378036 1.2732848040554858 13.287612762634822 0.17433339274067394 -0.7754907361904128 -1.8724637270275817
Ni 1.2105802889725996 8.856254345321831 9.834673927163537 -3.1238690008061236 -1.3488148594779674 4.118094795781036
Ni 4.949945816265684 9.032854900007113 8.406176198112382 -0.3003290176079086 -0.24147363803259703 -1.084204635427907
Ni 9.115774408190399 1.7551697910284625 2.0104010097894975 -0.48379805410126353 0.2550778590795929 0.6166520966512282
Ni 6.74307786143221 4.559802943459695 8.247434230723231 0.05127036813920202 0.22232611856986872 -0.09489530391800431
Ni 1.8409745047437478 5.267207098527046 1.3556142830688844 -0.9327566319258387 -0.4010257586990384 -0.6423538722927067
Ni 8.647740263208657 5.941723621404896 1.532411514144129 -0.16763489767457582 0.8114252453034928 -0.8657189736500509
Ni 2.983822042625927 4.930584324480216 3.4082534030404905 -0.6015471226889898 -0.10575898610538559 -0.3524231671999866
Ni 2.2558874700591782 7.826412236974293 2.9679691834198856 0.5394485535860323 0.2634208317276496 0.6067926873586453
Ni 4.7485195059417284 5.953004682263129 8.665123858468652 0.3810300323034018 0.6815084310049812 -0.09811586773783101
Ni 6.68104130390014 2.801683006581793 10.225370648105411 0.7446809498984077 0.9223765742430954 -0.6503397187116606
Ni 2.462425511084521 5.423713263558601 9.565745867735485 -0.12256860146355666 1.4831426583599812 -0.31510309059328956
P 5.184287590343759 1.0629616702421834 4.921247762269917 0.48939148902864105 0.3449741671211091 0.5846994550040318
P 6.051073838786459 3.6430312049642364 2.1290191381886365 -0.9206431364917563 -0.3950008926611971 1.204456672943145
P 4.3111650223565094 7.025234263522889 2.2494982705418556 0.5394799210445999 -0.3173260663865374 0.929779808685702
P 7.064690144962083 5.958784370515332 12.486463548466856 -0.03435405199983761 1.078196224450298 -0.8183703091627584
P 2.918974497067505 4.048982406472881 13.034028244780313 -1.8702695475897404 -0.8066010844419721 0.5546489154755544
P 8.439921970210916 3.1807396394818728 7.9085793651940905 0.23210479522318733 0.11095544270466053 -0.1985081902146646
P 8.17591174825075 8.693894274532427 2.4918944994201904 -1.5787558142806164 -0.6518286445523612 -2.155637315902126
P 0.7034325907964556 4.5277131494558915 10.357213408291894 -0.3492920777701726 -2.1831990275704785 0.8740753160345462
Ni 1.6590673984047581 9.3078029268619 6.354823824144917 -0.7029894836968924 1.0180514366396016 -2.919233614647798
Ni 8.472939483035297 4.149834719457946 12.325441248216723 0.10319945290832551 0.1740127761764616 -0.5453271238539963
Ni 7.336678748779224 7.2791416275269585 4.120695999022402 0.03948108881375781 -0.3216205799968332 -0.3557763999429357
Ni 6.604903420295281 0.8584646106221129 1.5143247080181346 2.3896758378129164 6.993400598697633e-05 1.0324071911406414
Ni 5.624768486354327 3.690372696378346 6.103167105999571 -1.403911286231479 -0.008853850846204105 -0.1326583815993909
Ni 5.570079461881237 5.415122587280046 3.6452864894170625 -0.21953595741924126 -0.5040498623717642 -1.1933248246960417
Ni 8.21276073980412 8.099096629906867 6.211153576714882 0.4086537075579414 1.6950349831910356 0.557131315577776
Ni 2.943354947672302 3.246950931706545 10.453740696135425 0.1252716022170165 -0.05630047436394175 0.5309340883571179
Ni 6.161110568095249 0.3593036437723273 12.778148550563694 0.2261192670637138 -0.828916717220037 0.31478144558781274
Ni 6.784092310489976 7.316037005021357 8.845237684327465 1.5022115020659743 0.3274821809839328 -1.0638705518562452
Ni 7.650999162379351 5.499860424351667 10.407656263723199 -0.01725570175665415 0.21518847908382296 -0.2118545296145835
Ni 0.9455866850626192 2.0340420684942937 9.81370933725611 0.8103227562679335 1.7215795664487836 0.06170956119465501
Ni 3.4507522022111816 7.489195722882294 7.104335281040675 0.4706293779297894 -0.6081114061700689 -0.5020659991725159
Ni 7.403066307579805 8.003114840729838 11.346324021821944 0.6627681742830005 -1.1670008420895324 -0.1568223804401041
Ni 2.468066041513637 -0.01494926107479843 8.371999964481098 3.7159243819545935 0.696178117202014 -2.143025797785703
Ni 6.498967208173448 5.201366893830605 0.8205236940169229 1.3145068302247167 0.41481329940143397 -0.6763767662053706
Ni 9.343983960864453 5.266149499071586 8.45587223989312 -0.13087249334356169 0.16468044303194218 0.1488640448249759
Ni 7.6995837970130365 4.196202106110448 5.867573839232537 1.4393907100850114 -0.47558852170727767 0.1259197773239767
Ni 4.913597792875428 2.173506038791827 11.715947609754386 -1.4780685862711835 1.0891604367712855 -0.30428465982154695
Ni 7.699073551661718 3.0683093956159913 0.7561845383721779 0.4640188145918074 1.0184041919933298 0.4149079159977693
Ni 2.803928086127592 1.6694207404424117 12.986260002708738 0.10050827922940755 -0.5957104614025548 -0.2796624903974926
Ni 5.675616754910223 8.218837298078906 5.936713012054954 0.2595510643595982 0.3163768150993906 0.37020388822217537
Ni 1.1417249981092794 7.482451207056689 7.571449128952405 -1.5475341372621734 -1.3388760030977007 1.197556603389202
Ni 8.212658690733853 0.8814794591230188 10.682925281289902 -0.003087123565755973 0.25005880859844676 0.11730812439556572
P 4.0142578910186355 8.663409434088225 12.720808105701392 -0.10687613042896432 0.8622978637836439 -0.981863930975451
P 0.051131222796171986 4.009266763763924 2.208559894427377 0.9999007338725038 -0.7823512107556719 -0.2136573871512772
P 0.6775297536070893 6.724356495632941 0.056644655746868715 1.2648608850628151 0.011688492081521805 1.1808637161145532
P 3.4934922082752236 7.593063122034238 9.572331743642769 -1.1897790163263124 0.49156869918561796 -1.7436329467043972
P 8.883353012070923 0.9246703365338612 5.930168883494594 0.3118922969654757 0.297384590267604 -0.7945184422458252
P 2.52765342135938 0.7828944909354472 2.1458154874352067 0.30714809741227106 -0.6529928400637915 -1.2927187878153477
P 6.968309436692206 2.3995261750493135 12.3228343583309 1.2649740136019119 -0.17011704066648123 0.08394934642946186
P 6.733782118850017 1.0422735405432877 8.795324556342713 1.577110822478026 -0.8387491299294265 -0.5301118495661387
Ni 9.183711257421349 2.4815643503530507 4.2234557019025765 -3.0336261080584657 0.5687092502233625 2.6823537666334705
Ni 3.2053612969800205 0.6517057725174723 10.756029524351472 0.10069519842923305 -0.5893382393276236 0.04487937701119367
Ni 6.87995349622033 2.976224025485391 3.9396590929371156 -1.706252706283726 -2.3975593543260514 0.9536946676300866
Ni 9.100828857990884 0.8573049620963901 8.22306212958782 -1.7629123637592992 -0.251122988196903 -1.5379259247484482
Ni 5.181560097011259 8.875662223048328 3.1979015099437507 0.39246732760606606 -0.5412910061114097 0.42758422591385714
Ni 1.8321055128190193 2.3790792522437685 3.357321639790743 2.734956737541167 0.3185018318621934 -2.3814310813056214
Ni 1.2665031794770585 2.7673759645968077 7.0418079602525205 -0.29739873133499106 -0.16704688638158974 0.42946550209697004
Ni 3.578675350380721 2.310446613897387 6.169590845834155 -0.22957662948469496 -0.4272378983180319 -0.6194782532461138
Ni 4.474591969789579 0.470326538187392 1.0644265382598765 -2.000910127428154 -0.3257315168414132 -0.534547516739989
Ni 3.263121070749224 3.0467955961667808 1.276795292072554 -0.6065977977390198 -1.5672110468658105 1.7913839888364311
Ni 7.289225931106645 0.6131256576449039 4.129060311908736 -0.5632392282477268 -0.010719700410349281 0.8602137275611056
Ni 6.50237193624497 7.407157547578556 1.7267676793364584 -0.06893076153344257 0.37769325462068504 0.3766604424807965
Ni 5.129403744918347 6.902339351360884 13.323825339077274 0.5084775591258146 0.5414177614972612 -0.8980781067070468
Ni 0.47986348766293674 6.261972158268519 11.598103198851607 -0.5290492126295792 -0.4407693571455635 -1.4335738462929182
Ni 0.9465051266949918 3.188736575715258 0.26476260192365636 0.2004681421545128 -0.060461804830482975 -0.005092069810926714
Ni 3.009798169602119 6.869553768241647 11.538495409191814 -0.3210389964617503 0.45812070393981746 1.0154595075427093
Ni 4.196322709557124 6.890696480162626 4.763714612503979 -1.6748081146211995 0.2728390397177559 -0.3503063779672999
Ni 0.6961852513700981 6.198896555657402 3.4316347004755254 -0.721397553890435 -0.7805768924640686 0.9341206021529008
Ni 5.321914677376547 2.5081156629980015 8.126616481000502 -0.9018501721549693 -0.9335135646965212 0.9219523422214831
Ni 0.8224839638848048 0.02062226166263462 1.001822216809613 1.5447830568795975 -1.6247471934090663 0.6960978987833819
Ni 5.459894297561155 2.7276324903232347 0.3171156304065299 -1.2553357191811993 0.07267891572196516 0.27336328765234214
Ni 9.02558158445378 5.962847778949464 6.268385478475177 0.7859337859006078 0.5042676348095251 -1.9236196810761068
Ni 6.8411470179555405 1.6748015096017659 6.538331245449404 0.9983107636775645 -1.1975036386640796 -0.45723804422454806
Ni 3.1914269602949346 0.4699489566274166 4.162571371145665 -0.28957872106994 0.1980947568263298 1.4087048509653803
P 4.943934198308337 4.113709348584627 9.95892701967887 0.34299596034881574 0.2790420832046743 -1.4569541728900715
P 3.0501724926736857 1.9365017116986933 8.489056742105204 0.1109562140356089 1.6789046532880763 -0.11345275520521751
P 4.116130694706337 4.645960190326799 5.105882361941406 -0.36093197600194615 0.6344904103842298 1.2004393242536358
P 1.6122732610947896 3.5237543962024866 5.021766096479573 0.9170924430260207 1.72016520259976 2.3495542872016824
P 1.1593238241356496 1.0122061735683456 11.672457079164495 -0.766401372294635 2.115249913224015 0.21839258784341745
P 1.4307836282250606 7.368239743055297 5.072168132282771 0.4722607428856253 0.3609630863501977 1.3188175417849286
P 6.9628266184625875 6.3496044780603444 6.673528636891098 -1.1663709218150171 -0.05068287106684819 0.5424698569108594
P 9.083675336998391 7.3553815602020824 9.58859836544279 -1.8780448206597848 -1.0747082659016978 -0.3659001186404989
