# total energy = -381171.40054811124 ev
CRYSTAL
PRIMVEC
9.14935281903568 0.00000000000000 0.00000000000000
0.00000000000000 9.14935281903568 0.00000000000000
0.00000000000000 0.00000000000000 13.39100268141117
PRIMCOORD
 96 1
Ni 6.987177708770668 -0.02040946118132559 3.2906241876368076 1.6990831851184802 2.860498819810751 0.19065244161567166
Ni 2.654135739494661 0.859969623499183 11.029325156686085 1.290781718693635 0.9982513711945388 -0.7083373782723671
Ni 8.292598209909482 1.0489549941796819 4.784498482061297 1.3323590279147894 -0.9564591177491012 1.4303152301463042
Ni -0.06399240301000916 4.8207756657184255 13.389610218946356 0.9491522996750427 0.8841530119855225 -0.737673151122007
Ni 5.675553946466774 3.6035366263923225 2.1582142872755044 0.8402295711296948 1.0019689292554421 1.747217835842178
Ni 4.136157047430421 0.5865595152454722 9.237730008813596 -0.9109446782570698 -0.4417957415275488 1.860442019976357
Ni 1.4833479640846339 4.202151328822318 8.687037786222014 0.3416649002422181 -1.0341187745151093 1.2106082943668377
Ni 4.403007069761772 5.449043420413932 2.960576841049498 -1.240549047790328 1.0508260599674613 -0.12996746503078907
Ni 6.419579312166061 4.8281683427411135 0.1441809902595766 0.3674268396976704 -0.037587985556103 -1.2003681046960681
Ni 7.729217664923018 3.0779612069723794 0.9845188475612564 -0.8531753326570856 -0.5953047413237038 0.1905817362787363
Ni -0.03854530820406446 5.076198146463961 4.052787230229383 1.419345361398362 -0.11409578810585512 1.0792814870946768
Ni 1.4926894532432537 0.10183961559918361 4.813342731543633 -1.8538995908721492 0.45072981079238505 1.9077140655894436
Ni 2.8868586760653328 2.1630442305926794 1.6671529712376003 -0.4218527227467186 0.014784614508342281 0.669959292714801
Ni 1.1508696344714227 6.838793505857349 5.506875564216792 -0.27241763590962115 -1.3536919850646105 0.17781106687662926
Ni 6.617790890160519 4.028944931895937 7.29679729547115 -0.21692705904148446 0.5337170504188936 0.6368985056050902
Ni 5.24145375584985 2.6061748323746947 5.561899771660416 -0.10790585724505933 1.7819907205469891 -0.2226397931555456
Ni 0.4247614462641301 6.952675499547204 11.797647543550534 0.5945971737337179 -0.5978051391480543 0.3564086342102959
Ni 7.973834760069798 6.109141773329652 6.120772430546535 -0.18772446933559928 -0.34688243988741546 -0.21456524367752725
Ni 4.205234660699355 3.3316270119897515 7.605594355359331 -0.5346814712146921 -0.01787610894947244 1.048308178641614
Ni 0.27078241414366605 7.548764980617964 7.7437221338389435 -1.346198504901043 -0.691837323734815 0.9103507534268128
Ni 8.456582059263003 3.1105603508236648 8.708115150154152 -1.0889825164325246 -0.848395651880255 -0.6859860071603605
Ni 0.7216149410713489 6.712340301487823 1.9756279739089515 -0.08080103060846729 -1.0093860476551195 0.8450861278910479
Ni 8.634966989846365 7.6532322903271925 3.8922956888208624 0.5835851388939304 -0.7524654789398331 0.12091255391737242
Ni 2.317302317972044 7.578235045828459 3.5995017618291967 1.7615031421165985 -1.9103561311979809 -0.6745206868332384
P 4.929369333518288 0.2659405766679152 0.02344521642405829 -0.61232055915541 0.45101108947822977 -0.6798053322709454
Ni 6.627672191131439 8.680119045671818 1.090255172497028 0.2956742924447166 0.4941613996134586 -0.8651335334602261
P 6.821574423980246 2.136035341272164 3.5746749931397597 -2.2127582292848342 0.4433849403915396 -1.3345760901707662
Ni 0.5735033888700064 0.13379007034043394 11.734441984877098 -1.9290642491304455 -0.1841012707607152 0.2633269864622626
P 9.09055901007504 4.108050235779804 6.628398649739856 -1.076796515889294 2.0003989921196905 0.9715970018318041
P 2.8868403773598317 2.9767968136062084 10.04406887129311 0.6175748655758138 0.09023235122469621 -0.15113638579892033
P 3.736604812800714 8.789828934507286 5.61364210627231 -0.5863565309914804 -0.4532968001886129 -0.6718734790183784
Ni 2.199550148068579 1.5882086959621486 8.160182372352226 0.005937448530357517 0.7533936471810574 1.024492564279255
Ni 3.8628933288207246 5.178332371221722 9.480133875529944 0.2778030685912506 -0.5250352063741797 -0.4290402416340933
Ni 5.617885576078154 0.48812894848125604 5.328775178503982 1.2769229584336717 -1.5644774499847314 -0.3004542303318632
Ni 1.2645869398117622 8.844413973018868 9.563438732326452 0.26326322310386274 -0.6535330288379776 -0.1905889353675879
Ni 1.3057315791323438 2.390323302276594 3.971717560309908 2.481074955652204 0.6245952627577049 1.3784239405936518
Ni 1.5685375875478171 4.245903533676891 2.08981281117486 0.42985528133622103 1.243550296510497 1.004201932351019
Ni 5.249990101966396 1.200733606963566 7.6440124875601585 0.04263866060613302 1.1063593171480752 -2.7182497091991316
Ni 8.126674697772781 6.936041976246155 0.312296687315382 -0.8191938335053183 0.33994406089636936 0.7680085688807547
Ni 6.956243747120036 8.379068742757784 7.657885651136276 1.6871730639444558 -1.8669931908313135 -2.2592327186972896
Ni 2.9159078710492885 1.7361262818851735 5.975119309429346 1.397814943525754 -0.976607310562202 -0.11393200883448121
Ni 5.415931912808598 6.671076720581481 0.7583843599064731 -1.5014450562135948 0.9587481708935941 0.9056767449899111
Ni 5.07726862073581 1.3965572038900516 2.088179651708833 0.6073135928591218 -1.3523287861684967 0.33556135844764146
Ni 7.190732508771623 8.459088981916736 11.985951287451094 -0.27527515996307433 -0.1615976903415604 -0.5679407474884541
Ni 8.270603165896434 7.459101323659614 9.823585938832528 0.09142868552564254 0.37229496642324916 0.25221467859918495
Ni 4.550183558111977 8.393561317515134 11.295552108095102 -1.8990718165334135 -0.371718782204805 1.7387468222566893
Ni 7.293388246636182 1.6710194877101103 6.896191970339819 0.29746506579655224 0.18770107229683158 0.16790769171998826
Ni 7.959790503597239 4.882176972029393 2.1486669376799905 -0.5900776885968095 2.1910365213370264 -0.09027400309590905
Ni 5.548185806822164 2.9043613878777133 9.619788680983675 0.2246005164263422 0.366580175426659 -1.352656858931877
Ni 3.310135182378 7.603386616540551 8.990812766385252 0.6616859969624153 -0.1860779348711118 1.9313461031860863
Ni 9.025406469136223 0.8180793119294071 8.126972966672458 0.012163631945727438 -0.7209967189075905 0.15951278278807368
Ni 2.068394176385115 4.894931169764081 11.366898760846246 -0.44132342987682055 0.45712800100924494 -2.0529343430142455
Ni 1.3173512571259258 0.09189884383538291 2.5209495264357833 -1.0656024469456873 1.5303506835043514 -1.6190352306259534
Ni 8.799637040656199 2.119767792081149 2.735715028362358 -0.7618852295918361 -0.3373151079139545 -1.457493076112677
Ni 4.566231522836971 3.6926879195966245 11.680811223857427 -1.8542258638633162 1.0830831202289541 -2.5215112092903795
Ni 5.039381150994533 8.328198341463047 3.090884667732958 -3.502466255298317 -1.9334466944688573 -0.038068267626631215
P 2.5318729386850256 7.166084152460828 11.196471937285574 1.230099827432546 0.21597600798212482 0.1964093987041069
Ni 6.822452761844327 0.6432196269609485 9.303921001289634 -1.6200153351510358 -0.7295703195092146 -1.8990787585119486
P 5.7848246663702 6.166810143718272 7.989647586429095 0.3203417132844096 -0.9126102388849509 -0.2612999287299048
Ni 3.6990284210529647 3.2697316406302375 3.717637289612923 -0.31604977077727503 0.3763524243220744 0.49373305382678845
P 0.805493462285335 2.92902804289401 0.6738873424465295 0.6429377698206347 -2.144237558705617 1.8242365165900776
P 1.0628803090664787 8.16306167366292 0.49051509967867823 -0.8679409210020343 1.0806729681255645 -1.1195107669283686
P 7.561198951006372 1.527429545638239 10.773758116167084 2.322560275111342 2.708947457961599 4.2396583530188465
Ni 8.874378103277909 2.718071416517615 12.38061136316492 0.9375545675351143 -0.5430321571722326 -3.211354128302985
Ni 5.933583992746303 7.605253084501725 9.803057536065442 -0.3913848931751646 -0.3790094023289473 -1.21316834178453
Ni 8.771996845995876 0.7819384536282665 0.5650631109573454 2.130504011169608 -1.094959817061882 1.327077724911192
Ni 6.550076530451464 5.042601723162833 4.0821401837246665 -0.42832547495525586 0.7729198901394431 -0.3916044653851385
Ni 6.8504589306146855 3.693941380923491 11.488288713403449 0.8426039848991425 -1.1741418240096875 0.5115122321870803
Ni 7.025394555210976 1.548024738680407 12.992178804284295 -3.4226196181833184 -1.229241850307625 -1.5721840746003697
Ni 6.582776317183008 5.3081067906398065 9.878515907942818 -1.1220795560968095 -0.3134478143780537 -0.4270057277025678
Ni 8.468174289198332 5.427240512808651 8.406684234165681 0.4197454465957287 0.5263832357616418 -1.1698406255311724
Ni 1.469175616673564 6.443642109900802 9.499563441031652 -1.5734878810134578 -1.0954290433888167 0.1831219375665814
Ni 4.39204614516625 6.07616750601558 11.720274212142403 0.26752559792464253 -0.34853231678601265 0.6024938028729753
Ni 2.5348922250928068 3.679485403577145 13.053924126258696 -0.16192087800893404 -1.521016293477303 1.0193467584122573
Ni 0.7183275786279679 2.0732982294595717 10.23624279140728 0.3749473164444317 0.2980715890322995 -0.1684154845943422
Ni 2.170967570074917 8.329168172854638 7.025776998155962 1.7437399045959066 1.5717356742090414 0.3534611215461977
Ni 4.990047840961938 2.7943495704014683 0.17406826595550975 -0.6514833453978006 -1.250702334174246 0.10883659658944482
Ni 8.894021763633988 4.6361051297952285 10.51528432627914 0.5376708928603192 0.40237430230713284 1.4718262049058974
Ni 3.519637061667009 6.59868704161674 5.411317894216343 -0.5711474273512099 1.3059052045986348 -1.037157047120801
Ni 0.6061894515724252 2.2199898021139823 6.287102173945374 -1.1974313906652474 -2.5411600938695593 0.13829938193525212
Ni 4.746812298080537 7.953029131914361 7.35634768772062 -0.13545239940476028 -0.10341928222861543 -1.2162626644391377
Ni 5.96050138853931 7.043409630777404 5.162539673438476 -0.13208631114600478 0.865030946444091 -0.31146755072323135
Ni 2.1773904157060153 3.738892150988427 6.498197870483581 0.4363552872382679 2.692439947224879 -1.5704573217172502
Ni 3.058710968784587 8.000431928516525 1.2579838519314723 2.069032277017372 2.3966234727753437 1.212378498893383
Ni 3.443944466359211 0.8256943182239411 3.864603342849859 0.2594032259278242 0.3683763480951333 -1.6381632097046561
Ni 2.1322383598805605 1.0027965095516336 -0.23325542890077147 0.07453190977030388 0.28474658978861933 2.1312699428013553
Ni 2.515513895966502 5.868623588215255 7.433452943093151 0.40122887584878003 0.6101222659525105 -0.4341811624050845
Ni 4.797783342255534 5.051119770573875 6.092638170837665 1.265410586918698 -0.9536828405555446 0.7359844505656744
P 3.9258134276883334 4.7643699060094225 0.7579708091621347 1.8063691493913536 0.9775143957575037 0.9942311942915523
Ni 2.301995450819869 6.302266311194637 13.535089502361279 -0.14996833363274817 -2.24061458937547 -1.8908846527369303
P 8.681271864118427 8.337256200686392 5.974824700270769 -0.7609516620339734 0.825839878066926 -0.24651737110409155
Ni 5.26764835277554 1.3437288411066322 11.280258964972052 0.2201856751880982 0.598130383697957 1.2742574957863668
P 6.802973789837763 7.141344302622524 2.7462935100128933 -0.03315411815446548 -3.18645839350257 -0.6551237703638653
P 2.309497920075567 5.06330670843801 4.237100941395297 0.10023162852925317 -0.09323694237897491 -0.17406085580557765
P 7.4185696909733405 6.1144941446889 11.75257325722346 -0.08813433104508692 -0.16200726707515326 -0.01662552437182298
Ni 7.487354524954245 3.298579549853674 5.161508541383455 1.6144578956679163 0.8630563392162234 0.5106583688272174
