# total energy = -340892.245235922 ev
CRYSTAL
PRIMVEC
9.10330628461748 0.00000000000000 0.00000000000000
0.00000000000000 9.10330628461748 0.00000000000000
0.00000000000000 0.00000000000000 13.32360892383717
PRIMCOORD
 96 1
Ni 6.498477200590088 1.834826023965707 11.461128296454573 0.6546686851043176 0.4977046368800267 0.31524347282589577
Ni 4.388330777981726 0.9175222516596063 6.12775415091665 -1.4103274741704679 -1.5681561843878995 -0.972702833301473
Ni 2.5758533712183636 1.557912546703741 4.568012749957939 0.9523222127625922 -0.257367426444718 -0.12564775460951264
Ni 3.109844221105266 4.2656455176819295 4.794540336648312 1.5216009623361797 -0.08616718001638708 -0.9372421785010181
Ni 5.200618807702797 4.511589546584475 2.6129329588308243 -0.4307281708594775 0.06340520372952306 0.2445993281457723
Ni 7.282317397823448 6.022401585994964 2.5831414783190554 0.018980397757244732 0.12358135899878715 0.001324632348694493
Ni 5.1710512685283705 4.497634177879304 11.573606019292459 0.23985152904814175 0.2506717595920973 -0.6106508847624709
Ni 5.651004891648218 7.772457620800494 12.381549951201325 -0.05460226072591242 0.5236349835925433 1.417871605066313
Ni 1.748035100785603 6.505850878770902 0.3953638794263124 0.7272568408846896 0.6805334686862214 0.2133192870855681
Ni 2.751346911921746 1.6386679777432525 0.4062377789164146 0.910600921764406 -0.26303670891535347 -0.18740513832296757
Ni 0.5538606367575977 0.05309048290186352 4.575820655853845 -0.04920011587373462 0.38176768180037474 0.41239929064330266
Ni 8.430198817835533 2.2528225437539215 1.5322020784493287 0.05117189488812478 0.743067582664701 -0.6014761602417382
Ni 6.65494483092569 0.6810984605860676 4.979538639559828 0.2672738869251526 0.45852719534961683 -1.557750672783859
Ni 0.672980131942055 7.512266917388104 2.5328448001501447 -0.7759417076849023 -0.43333141281027954 0.1491576648059947
Ni 7.355043712621629 3.715132166686166 4.002159417354162 1.5061072375759543 -0.48040471214899844 -0.7276515052199468
Ni 7.809681040654013 3.6976083018737365 12.84709030930428 0.09896047512631342 0.03044983184942498 -0.946233583366351
Ni 8.131546644899759 8.950370848613204 6.967261977092599 -0.20265178006939294 -0.02541098387393688 -0.1069666332602416
Ni 6.856564860985784 0.3265583586929182 0.27254480052249347 0.6822702488716701 1.3468600497444416 0.09138703365442971
Ni 2.08010551150134 6.48587822453793 9.402111504550362 0.27676948512041366 0.7126660875547082 -1.1666629991341393
Ni 9.157744168315615 5.072225774292666 1.453365624398108 -0.10586671532784347 -1.2742847494798766 -0.3287718463296338
Ni 6.26809072231842 1.840406350786496 6.95388466834358 1.8753289643905187 1.5290095960954249 1.936821010257729
Ni 3.4500802976582747 4.503387467521619 0.6067262679914783 -0.1249738684709396 -0.5525976893734805 0.2583290190270389
Ni 6.315491638722742 5.681209662270368 4.719541836573674 -1.8947829593500722 0.43348516477932436 0.8573937416138072
Ni 5.3301770643316235 2.9020430460022415 9.577902723372894 -0.1731853951791598 -0.35464845698607955 -0.9017843519140405
P 0.31757703660255837 5.400582035998807 12.472056844052304 -1.338525304626501 2.1522910251377128 -0.07800392747930437
P 4.153866018444621 6.169119575180379 12.698984976224105 -0.5224041965092358 -0.4693618240712755 0.0034203385354586256
P 2.2761725246598337 8.535241870339751 1.53446698108067 0.9600946576191594 0.43018875341623974 -1.458032750666231
P 6.386542945144046 7.869972238915166 5.828159785768881 -0.6532540641449781 -0.8725820193184715 0.08757897276224916
P 4.747692901272872 1.1163566699625047 12.682010951117999 0.03328755840853622 -1.24085706594905 0.39913702631675774
P 4.049651366822444 6.30945614658215 8.094665509366733 0.3187787396726639 -0.13996545678376537 1.658936951916898
P 4.79949981797289 1.130794513906667 3.7091594873597056 -2.0866433052309157 -1.1293596346979906 1.335245605433965
P 9.154284911885108 5.781191276418373 3.856771421233214 0.5986415190064207 -0.4212006909850165 0.22267913103391326
Ni 1.3885910477368923 1.361162785565542 2.3965573794333443 -0.0829486730790894 -0.8933945851884484 0.830344450805499
Ni 2.0694910562435256 6.4098200995987895 4.976661084408033 -0.34457693168269043 1.3499510299649398 -0.051208661663331156
Ni 6.254554105707468 5.627227055341691 9.104035570909456 -1.0802757326871457 0.9252870630216711 0.7764183902110048
Ni 8.800566838559524 2.398120417141549 10.31805615321153 -0.19068046664012966 0.13221538052470133 -0.2749918243947006
Ni 2.471829889030505 4.985179958533471 7.055010568105571 0.7868807231949093 1.1911915804031228 0.7792275775250258
Ni 0.5766088891107298 9.013875514032168 9.301824019307448 0.9960512782194266 1.0791483039509222 -0.008295150129256683
Ni 1.5706480723518388 1.1427835684302876 11.428499315339147 -0.5498322108132014 0.3011386579933975 0.7709805070248851
Ni 4.169833217863323 6.686196481783388 1.5338270186410266 0.012359550006617424 0.6259463774689606 0.3459604422937783
Ni 5.8496026239848185 8.024364315392464 7.889588043537411 -1.1164771223083674 -0.39202252675916355 0.49693407726258937
Ni 5.278160771584496 3.0120200905731287 4.9690671062124325 -0.9294270533319735 -0.25113558660239327 -0.5568567217601506
Ni 1.0068894105497974 7.534533604832884 7.124826555848928 -0.6613157581071901 -0.2301070480668682 -0.2351708357430208
Ni 5.044224003818362 4.590087357637762 7.088186657935397 -0.19672898682705475 -0.14258463957416734 0.03646364214367269
Ni 8.188742718986248 7.353769249726179 9.03745762925118 -0.5084955568479436 -1.0897836721775813 0.09414865555996689
Ni 4.819563505269822 0.3078009958638219 10.48457474413903 -0.7410765203766012 -0.04419854889408517 -0.29561001486568445
Ni 7.925147378981729 7.604874853355294 4.419521436686571 0.4826302590454075 -0.8720888817321368 0.10188896162701808
Ni 7.405694509409346 6.180726290835364 6.844950862685682 0.41981718037392857 -0.17600152447171624 0.5979061835022929
Ni 2.0953626530211484 5.450540981500423 2.7335918231268566 0.5367249840072821 -0.49888245923821184 -0.2440087457496249
Ni 2.4172464638796862 5.336640411872831 11.563027066929589 0.50530533204542 -0.03715321201152956 -0.36470147034670736
Ni 0.8919155610981091 3.3633622009293394 3.869362204309614 -0.7708501520946078 0.7678579022355033 -0.1987395894991803
Ni 3.6209584620188506 2.712985578768719 2.569205226557316 -0.1628847845841001 0.025213780261466253 -0.012837003863668215
Ni 1.1084641033171143 3.230408411014779 8.256787203304931 0.004387844655050508 0.8586666947889599 0.48797481118677255
Ni 3.3720740651503753 2.829790103136656 7.471293845630045 0.7972718366212462 -0.5320738583885158 -0.6849907331266267
Ni 4.282978213060042 6.863182964735724 6.07322079395101 0.4882203515386752 0.5843551842907355 -1.451194644698475
Ni 0.8703325319636736 7.358129733489895 11.26938808482613 -0.8818274491761394 -0.7661861709600353 1.1100665907963334
P 0.37614862028549395 5.727527285213558 8.1641346611364 -0.284792098314574 -0.5439405279191148 -0.5360253868370962
P 8.509779922349951 1.8208160354221596 8.128547105442253 -0.2251011102118446 -1.6682232623148303 0.6627519763330844
P 1.8442661526984285 3.370899738625283 10.650519826763576 -0.1311252327843161 -0.8073896417815386 -1.6597761599887415
P 4.055450172996739 6.082710990868909 3.760855343721692 -0.22675664353739655 -0.018330937098703915 0.46865914157729616
P 7.065249056809227 4.01660636460472 10.471024472568484 -0.1653890390631926 -0.22344634821724096 -0.08349786071434007
P 6.479287430707178 7.7051386700015785 10.442458297097625 -0.24921342987901593 0.38146994805429785 -2.145229490305241
P 2.3945155078087064 8.615669582349005 5.759955993588268 0.14841024511700893 0.019059330624296208 0.6985766993411776
P 7.029127137029633 4.005063372094507 1.6100781336757641 -0.1916991377126311 -0.4744891179955118 -0.33371350660562527
Ni 5.279071102224102 2.965602331259582 0.30462303160095483 0.46961636328424283 0.1769435766700114 0.3628225081564397
Ni 1.3494377269274076 1.064595269794467 7.13324711426529 0.6382141390927202 -0.1006409481525299 -0.528506966972864
Ni 7.028626455177849 0.5128966683059352 9.208293008071696 -0.009499969070635252 0.847147895516083 0.49122005759694765
Ni 2.760122499287555 1.5737067833009173 9.403070082713867 0.24507601067187468 -0.7405049641438473 -0.2419084115771705
Ni 6.1628200871543 1.912950599456755 2.460231366351276 1.472615276466096 1.157997353039341 -0.712677657518934
Ni 4.30420712357567 6.909109145503883 10.606072933284779 -0.44444063534956363 -0.2409049100133206 -1.3336772325055806
Ni 8.35641651949541 7.240824527270173 0.24827902699313695 -0.18131213805135227 -0.25214834413762377 0.18273755764396918
Ni 7.821915884450327 4.031435650723914 8.233497304221233 0.058557131608602375 -0.6494737711669396 -0.4715040672252589
Ni 3.1650375677846205 8.293603705362546 12.605573218302142 0.26114154877516965 0.538230364908215 0.5820555896232814
Ni 0.1757111097262482 4.842385494404763 10.178184760766598 -0.09300348621193015 0.5387137323025368 0.6195918960058426
Ni 8.590999622015662 2.227096599878636 6.004031113687701 0.03598181741124771 1.3455693559574762 -0.9819436351734508
Ni 3.6580180223572403 2.720850835494921 11.537139994531092 0.2030742123187922 -0.2318176030000717 0.34580797587631407
Ni 1.384066704458047 3.6393198310197183 12.900318252132724 -0.5710168153106165 -1.5507012221362455 -0.2724616017736791
Ni 3.159366207899871 8.360767899952728 7.833349637283788 0.6292600152232259 0.7041169124331164 1.006127431508506
Ni 5.261538134105277 7.934414544892924 3.715288743556178 0.6785935713510313 -0.10929553850373434 0.348449013043587
Ni 2.764009611118675 8.417445085574643 3.6633798698245235 1.1636301258450863 -0.43057210489758746 -0.9624855264488392
Ni 3.5364069522121797 4.5609658804767435 9.316293724823996 0.2679811974048223 -0.6541218114619122 0.7001977798843683
Ni 7.3317574548604885 6.034654636404071 11.515888325749474 1.3723587082361786 -0.7263315008569426 -0.9075675342547208
Ni 0.6509883643504359 0.20912661651429182 0.2097228830832342 -0.39399276311165693 -0.5806689936883999 0.39582081745933123
Ni 4.803705545527873 -0.010295839533951927 1.573251617981114 -1.1782008245704096 0.6926387365901877 -0.31154339826648925
Ni 6.254581415626657 5.545706946564909 0.13333612878319528 -0.6618721448312923 0.39905809344970633 2.197343951612293
Ni 8.099666865900732 8.714158254248055 11.5012456574114 -0.20532007093017543 0.9318467185170598 0.03686010625114297
Ni 0.44793183254104174 5.029786159874201 6.059857140161583 -1.7339483724267817 -0.9590291924691225 -1.1022288399194693
Ni 7.938419999707194 0.010083732494923564 2.539440145634095 -0.27127632321632633 -0.057112685852591966 -0.47067848600017004
P 8.39784566690391 1.7327688559593983 3.7891547923151454 0.07661707443410676 -0.46971123699089434 -0.6445411097520125
P 1.6142711166017927 3.4203853121943038 1.7046359978729924 1.01055024316655 -0.30167139056841596 0.30843622009607524
P 4.720237329182333 1.1167116989119512 8.261224154842374 -0.35113967250187267 -0.29080308039534436 1.3194605746855663
P 8.579356493135093 1.6641936488778246 12.39876430359629 -0.2715820273822033 -0.7459060805547606 0.7473569540686741
P 6.402965309882551 7.528598249062648 1.3348387544600346 -0.06759893009589649 0.86569711927318 0.06440844818305681
P 1.812850642325601 3.0330032118160632 5.838751482760705 -1.2179138268893153 0.01749841389507954 2.6984964378316043
P 6.846205298307059 3.9107895310568366 6.178090883633702 0.9660444474446911 0.7830582641250255 -0.2941632551168289
P 2.4916477870547427 8.471318452826567 10.487839189812659 0.7453406949695938 0.7237184887141278 -1.190620538391001
