# total energy = -340875.68748149974 ev
CRYSTAL
PRIMVEC
9.21571689730526 0.00000000000000 0.00000000000000
0.00000000000000 9.21571689730526 0.00000000000000
0.00000000000000 0.00000000000000 13.48813321814439
PRIMCOORD
 96 1
Ni 3.1401172858430013 4.904798045368536 6.405163751073551 0.8738020077685016 -0.5994442174133741 -0.3047430875152042
Ni 8.764063796736824 2.4752862555173816 13.283585896579167 0.4975660544196334 0.3729670527896093 1.502925240303547
Ni 8.876928681176988 2.4435288952021366 7.288960214100917 1.0288963497739056 -1.019054166872503 0.7918069568519331
Ni 8.29262458481382 7.623167264622196 2.935719136789051 0.7905021219975805 -1.1150041373072668 0.1463299655492125
Ni 4.235165626556484 9.03658176013848 3.0974153401794147 -0.025782508280742692 0.4552850342632353 -0.4115724238666331
Ni 1.1059966123485707 0.4465595411037734 6.084564628074469 -0.19950552113092737 0.9966994533263867 -0.22020033047611753
Ni 3.876305611850844 0.14245747286392563 11.423140015255644 0.8416205379399505 2.141643829836512 -0.5905872812433764
Ni 2.7685119347136857 6.491136252131266 8.32082928627778 -0.706799344361286 -0.5331249253608495 0.47832006170582786
Ni 6.131658784395701 3.264197697707324 4.536207155225615 -1.8752901407327833 0.5700850475249666 -0.8963279567851595
Ni 6.653323653230511 8.895479919225329 2.2436160355461636 -1.5301102853587714 1.3521367247623486 -1.5691527439732136
Ni 6.265738249058062 1.6617227707147635 6.1968526086389115 1.3010021108700627 -0.6228294291065338 0.6509678392139627
Ni 4.334280661434738 7.342364371759308 1.4960361619220488 0.23535955471505918 -0.8521705455416548 -0.23693435540134675
Ni 7.532973043668829 7.278757493960171 9.036590975855344 2.3571814647296367 -0.2314360512909369 -1.6519615490403292
Ni 2.7442008736249983 2.4081589738759877 10.281653677261685 -0.6437864909741751 0.15663571835059475 1.0260082295928332
Ni 4.125987028862141 2.7107201742560822 6.260705546078331 -0.31225096585647516 -0.3419801174897917 -0.7816418433934732
Ni 0.614700295297518 0.7182831097117054 11.07526789976761 -0.6090025505257706 -1.427472875601503 -0.2832139551941768
Ni 5.125201129901153 2.009468630881755 2.004822066438648 2.134713421265266 -1.8182353047013204 2.8206485205830325
Ni 8.610824856713059 7.807417091895176 6.45338406799563 0.18557656975466102 -0.33368522447085114 0.3563494988375863
Ni 8.622519601414174 9.14283897558676 0.4082765316767394 0.07189730036093424 -0.2370711380895272 -0.8416925288284666
Ni 5.899570170878832 5.245134469176427 -0.06347877933471811 -0.40451988789522586 -0.7065748870553057 0.13021557648585316
Ni 6.802581403568789 5.718518197357851 5.036590169105115 1.1877013078616772 -0.1645904544212972 0.3984492562211138
Ni 2.273093427509119 2.2662645813124858 1.7352079754210117 -0.02171399463832389 0.00027870758268339096 1.0701772108005632
Ni 6.683468263094459 8.543614633619883 5.129550948261221 0.5367710067538691 0.8804141137683805 0.007275964836122952
Ni 9.12338459728569 4.902604704754772 9.863939329943959 -0.9244532542664661 0.6372772291007477 0.011447065494677059
P 4.385326517147489 7.739211571380629 12.8064698030676 -0.4141959775324093 -1.0113503704703422 1.158584593001379
P 2.2880228888296923 -0.4302836635492887 10.021885658142136 0.2794647725643896 0.0320364596102545 0.09276385939729831
P 3.735627693913463 1.99826231917446 12.551557545163984 0.3859079292209935 1.5883293169016646 -0.5513072526968311
P 3.7492116605718127 5.220528505148074 9.965451372778682 0.16599479096799155 -0.5193978055827442 -1.9409448026181153
P 7.15176491556665 1.487656310577112 0.8146850375450342 -0.869765890025915 -1.6351287937537067 0.49117326351941204
P 1.8953688403817408 8.964090931281916 1.2103858019884064 0.6849804487139816 -0.8283328196921089 -0.9321645068677945
P 8.589315373551194 0.4882053656146822 4.177058688582114 -0.11178153815038168 -1.7498647865467218 2.1944776858080917
P 6.722579765467616 3.7604916980140235 11.328736976410237 -0.5591910263202821 1.233530964601282 -1.8137417877063409
Ni 0.8887231852631555 2.481571374419006 4.047384336581008 -1.3941848029723345 1.0133440038616033 0.04780452107778863
Ni 4.742960841510144 7.123785999165872 6.394386891772144 -0.6926428503552459 -0.6665726356307552 -0.8282474590671542
Ni 7.103723383551743 3.555128663404355 1.3681819140016918 1.0122515421283726 1.2290665010720252 0.2090419998664529
Ni 3.31537257345618 3.4441622166382886 3.847341535317245 1.2670167550635534 -0.18791344541795377 0.04053884065431083
Ni 3.4734036862495112 5.701109708200713 13.266185701567208 -0.9240763305430215 1.2383862358110544 0.4037364727619821
Ni 3.101282254975781 6.571764558979228 3.934219019771059 1.041046354872878 0.6771223861221436 -0.11191317863223951
Ni 6.95477896758686 6.333012982169289 11.03820228653838 -0.4575766585108894 -0.9189320673379205 -0.47411682225775764
Ni 2.5310689896985124 0.9653832044292419 4.1780438487149345 1.1621890225231857 0.263559671298359 0.4228857919969233
Ni 4.19136332429927 0.27870078784608404 6.335066243886712 0.3859693785865482 0.5457192170860924 -0.6699662346933365
Ni 2.1597308943582694 8.141505259668902 12.20939087998679 -1.9883695717589822 -1.4119878925920264 1.5978259435381903
Ni 3.931175990062384 8.494577804183605 8.469171915931408 0.03508810195238473 0.4017641795269597 1.3831195462971082
Ni 1.601673159625345 6.574593784056646 6.077132152423209 -1.2581726744093622 0.5550489791274505 0.5080522986629379
Ni 7.250465243185998 6.995844201935301 13.139546085129599 1.8095490897812319 1.7344463951091225 0.3723181063517007
Ni 5.922434364419785 -0.09342248657101929 12.763928210877456 1.9128853253777383 1.0960445654856286 0.2213033337323092
Ni 1.0566925271232195 8.091565289979897 4.227841896364225 -0.8157336428708595 -0.2849792746247157 -1.0496459236164308
Ni 1.635485624801385 1.4396977200139853 13.09717959155988 1.2114171634213782 -0.9639351144111722 0.12967127394660893
Ni 5.99849167570293 8.602143651426651 10.03964895239856 -0.17191064223179425 1.0303166271601998 1.4067819229110545
Ni 5.943999141882836 2.818074060011244 13.012002406867577 -0.7157475546935093 -1.701525990232018 -0.045683360969727776
Ni 0.4130078807150002 2.5281107445849917 9.587567353749547 -1.3621416584938606 -0.6847480209882014 -0.665878437777208
Ni 6.793467059589747 2.3022243085179666 8.966884215063562 -0.5091519594850198 -0.4897691840830339 -0.2354677981581493
Ni 8.305047371147236 4.648048173522127 12.40569670806198 1.037345508982523 0.8444919459504747 0.20837788391989273
Ni 0.5800270821663289 0.6831150125848898 2.4584417682323543 -0.5088673383650656 0.34499036507102515 -0.044666232559123074
Ni 5.085389233046289 2.1966951347019856 10.707298148941359 0.6405183617458645 -0.6778867750919938 -0.7972890630124269
Ni 5.408630502070437 6.349389311037598 8.754567000507903 -1.4346467676421228 0.13803764363343324 -0.15987479411318273
P 0.8661345416564531 2.9497205754213645 11.582988467414667 0.02925221199689801 0.6705187647626969 -0.1893838593158932
P 7.9774562837630185 8.374008580444675 11.52977783981043 -0.65668880085814 0.8431506014312317 -0.0520938924817619
P 4.663512146420844 5.349714424155359 4.815142022280058 0.0017136402569970484 -1.1147161737532028 0.23193381686296186
P 4.8670043905070095 1.3592629432201786 4.421477931263752 0.2113341383347393 1.1987863620312451 -0.052236074486581
P 8.108844759100931 0.7444990594762955 8.64279141380113 1.1816319617391455 -1.0120224568367022 -0.3751504335941732
P -0.1751695814463381 6.086437261741345 4.37011505489086 0.8998722224929923 0.4627294063564224 0.3946838756414106
P 4.850084334343692 1.400365040436079 8.30009853119097 0.29581081802258086 0.24145821141362933 0.3263557806889734
P 6.713843265880021 6.5844361696679865 1.5969952617448986 0.1571908195231164 0.7145000554396533 1.3013461244730429
Ni 1.992447201832928 5.192568020181025 11.241603295027588 -0.716486746852379 -0.5804733327378262 -0.34790239651149757
Ni 5.940976386751263 5.051816376508728 2.8139481835709845 -1.6674686435369928 -0.9726501256866668 -0.5090414020490847
Ni 1.6085941629906233 4.107942655241349 8.418416355299891 1.0159189636776311 0.5307317425383247 -1.1840277156648316
Ni 5.5496125386643484 7.231563807896803 3.615169980348595 -0.13282704596677125 -0.6491109885108821 0.036591168860472464
Ni 4.212771434575624 3.5001476965904397 0.8728454266772195 -1.4233205439960264 1.2827490781971456 -2.0834551373109216
Ni 4.169236388107482 3.6734216050777397 8.45511702614128 -0.6987404786125515 -0.2814915731864313 1.6266266698199663
Ni 8.09511334097275 4.172692281931689 3.532474588207914 1.8199211770441757 0.4270008426065614 0.1477096195055585
Ni 3.885115837173355 0.5903680380600423 0.6873726737763127 -0.49602236408159733 -1.4616364088570892 -0.3102408774049818
Ni 3.923536160781671 7.141922529955309 10.83540859379055 0.21521881810112614 -1.009012980586417 -1.421290658050191
Ni 2.658126078110086 1.4460012703493386 8.053859184428584 -0.006631903494220837 -0.3784476162882063 0.9965428731438645
Ni 1.7740254964261897 6.7660410862008415 1.8277770866103735 0.9259948877219729 1.6801691218227968 -0.8572451318510849
Ni 8.180579899174601 4.962562158675545 7.414885612481523 0.33647152896673665 0.6104336265453423 0.2888744959140638
Ni 5.920609652480604 4.050666974928161 7.123891979909813 1.3282987418024865 0.982312074256463 -1.494747332478445
Ni 4.285584813522447 4.18696742735488 11.716507616491663 0.2091499861992269 -0.6743180839041291 0.38124857607211116
Ni 1.569768347840267 4.9730865073348625 3.3876394603929345 -1.8300472097345837 -0.9674706383682564 0.0738629087277373
Ni 6.264825893088472 8.930905134852667 7.623776423506943 0.7138966175276996 -0.27605857509631815 -0.009662462790428521
Ni 0.744322117712496 4.250740188057577 5.864222367273158 -0.2427861861964335 0.11396826138905533 -0.8319549898257286
Ni 9.09224469000037 5.597967405052652 1.266001731694289 -1.576167741838466 -0.24330734880722613 -0.07262466544526203
Ni 7.535617954408955 1.7486269807474852 11.530883725834178 -0.11954344148398768 -1.5186776180417976 -1.5357836815944645
Ni 1.5039865608610976 3.98737343150242 -0.0420946299222125 0.37774853333865266 0.7871918266774249 0.10482670409910334
Ni 7.519647117082687 1.879112315832672 3.011805938366162 -0.11779611977557779 -0.1227560348840144 -0.06674583806698181
Ni 0.44129091577230917 7.442456272625203 10.343172273619313 0.33234516550318893 -0.6521268925190704 0.29090952406622156
Ni 0.932473879505928 8.947023423648767 8.327721720920778 -0.8916675751950126 -0.43756190595185934 0.3774142899276855
Ni 6.73728804958344 4.53092562789054 9.289182716252467 0.24685855649359423 0.48489668648208106 1.1512865166780688
P 0.9460301990136835 6.180105807952649 12.908831534997233 0.32953546396853567 0.5803193236584651 0.24910364377402905
P 2.83377764154844 8.236371849072597 5.38059168351004 -0.13039992458251734 -0.2805333230382201 -0.03533261386302302
P 7.8603429538482965 3.360363703188921 5.770587919214254 -1.0034509131176075 0.8805940909896706 -0.8217230276850751
P 0.41874005660475133 3.5501982548818196 1.891238356083049 -0.3852127029261817 -0.7680203959552967 0.60896938329499
P 6.779966034383179 6.668796841846093 6.936043415201225 -0.31989434133434586 0.7649759527020181 1.5139174776489928
P 2.0097635338214204 2.6477768280711946 6.539316941470829 -1.3325492895487245 0.8877970364960129 -1.3476090120953244
P 0.4593841326924834 6.586472843095053 8.205937865699102 0.47412325001566086 -0.5765716836905747 -0.09598210922427985
P 3.36993883301119 4.98350948310867 1.9289518342078535 -0.9874283124371059 2.0380214304581545 1.421586592024055
