# total energy = -340859.2897647091 ev
CRYSTAL
PRIMVEC
9.33922026166628 0.00000000000000 0.00000000000000

0.00000000000000 9.33922026166628 0.00000000000000

0.00000000000000 0.00000000000000 13.66889287580034

PRIMCOORD
 96 1
Ni 4.1556822739166375 3.691877906694396 8.557069165384183 1.3595618135818262 -1.8626166590301727 0.18091207439945617
Ni 5.37347926695581 3.4042299160688665 10.379105317848037 -1.455611542819248 -0.8182168143040296 2.8624574861990184
Ni 1.6832730807264136 0.9469129031660081 3.4575736755771427 1.2994021133727944 0.3781905059720777 0.9097367739918977
Ni 0.22415996983746608 5.0732233286892265 1.0960266329557304 -0.21257958070606617 0.22126965228089637 2.3765295302389458
Ni 0.8420474660641004 7.658982640782765 11.894397575581428 -1.480849234340114 -1.5910552004732599 -1.2199822793825699
Ni 2.120964987500961 6.245454265031584 12.965341864107838 -0.6509536981465758 -3.0344581170414577 1.211208904065314
Ni 8.051640826427562 0.07172427932483776 8.586347621572854 -2.335438416625591 -1.7751824393759041 0.6783122926651866
Ni 0.5486960134945772 5.201301398281386 10.675583541432541 1.098108904213825 0.33360526316253514 -0.5223383762683069
Ni 6.511603370123996 0.9124156905759893 0.6953012286647536 1.463753455200092 -0.6266480315216756 -0.04532417785809613
Ni 5.398050756025153 5.475314127013627 11.389605237539143 -2.538060886118945 1.820479877761123 0.6530252359636238
Ni 7.932631139916485 2.0487447955689086 10.900203934839418 -0.17648669163825087 1.153347770082472 0.043054922207945205
Ni 6.995776577201897 2.11940533768166 7.59636410142091 0.22784062063019472 1.622095357608516 2.092135438693739
Ni 3.763481710075108 5.9760177543320205 4.9873277162158445 -1.7448614197948595 -0.29354644746843633 1.333660263224716
Ni 0.4424726537356256 1.402713558441299 9.292250733320662 0.24533337809831945 1.8935740266436354 0.9587697681601487
Ni 6.905242173918653 7.180674464163073 7.622006799078719 0.356377009641412 0.3579746931458351 0.6444812030483547
Ni 4.614667603373854 2.824413752107978 4.274564013107208 -0.721729483308557 -0.10084895039827793 -0.0580573091540484
Ni 0.1508302785130008 3.8687627424881463 12.592795689755643 1.0720865120081342 -2.6522816298384386 0.5768061682988841
Ni 2.550821288297105 4.907321416173905 7.960230404263777 -2.6540263804436877 2.078907370039239 -1.0488506814086451
Ni 6.104973710648817 7.383681099624993 1.1799974320892455 -0.6364549903097684 1.0365206990883826 -1.1522632787690412
Ni 1.1878367737558386 2.000442347272959 11.528330952394684 0.10601198265645614 -0.6631582106325676 -0.15955289199738973
Ni 6.724621649934961 3.6906077727098157 3.309156651634844 2.555131725558303 1.683424395535301 -0.013724291564627978
Ni 8.53940963338828 6.399224530150068 6.048635797056302 1.7468735651288816 -0.7516537816718151 0.8466696703280838
Ni 8.930797685048498 2.3047701856665794 3.7618977782825724 -0.09052262877160538 2.463622564503712 -1.4170727633141016
Ni 8.054629376979515 7.991916511490865 12.579987882796427 -1.254173323441982 -1.5836547942441308 1.5198636679300985
P 6.062554971252026 7.417218240350197 12.509374970708096 -1.648635827101206 -0.32019336063200343 -0.5712803533846483
P 6.292225081169656 1.527214706591589 3.3583509954861417 1.4715307851526656 0.11166455295654318 0.6855926283766839
P 0.27099335875272074 8.287185306023876 7.459279287602801 -1.6029486094767362 -1.2059060037951619 -0.8093609065752965
P 2.9899234173633555 5.209463876976409 10.122635380855765 -0.3060458654870278 0.3286875141459436 0.5805543224874066
P 3.527731767628347 1.5743684307691312 8.139730221790487 1.109100370228322 -0.10684399163944824 -1.357599804759449
P 3.0962224248081536 2.3388209835178997 2.7113886380771897 0.8740380350387076 0.5926032832321407 -0.91138099446354
P 8.747758302961817 3.1773802507346423 1.4272103337468434 -0.7260664201210141 -1.3121136474021917 -0.07168569857076042
P 8.108498000678477 4.714578584013851 4.749407338930727 -0.2373884122196299 -0.045634252899347215 -0.527181306182905
Ni 8.674137227958536 5.77116195321608 8.445065762073344 0.23724443044259788 -0.836626684269785 0.3847607029904277
Ni 4.031825531979113 5.686389848965821 0.955380774370559 0.5890060527991856 0.4708432937128084 -1.983104723815617
Ni 4.43121729558628 0.212777327922713 11.908025366098334 0.3715118084003215 -0.08095015459182188 0.19074860087390372
Ni 7.173660709586456 3.718700147898179 9.341540337220804 2.48633646116146 1.1147290292690093 -0.4486652149538724
Ni 5.165466809319368 8.72081465189186 8.13058525710151 -0.8809440181299215 0.9202441012811248 -1.310910628233026
Ni 1.3540562197673052 7.264465950263471 9.081312297909449 0.1470043659084178 -1.1661246101321656 0.7919090296474361
Ni 2.698278240374588 8.901537907300776 1.508854733060072 -0.08748178506275256 -0.3965319845937429 1.540534823126205
Ni 8.272933655579248 7.021861019988166 10.50902788348398 -1.068561015353379 -0.6837278072538031 -1.0513680485138603
Ni 4.280846506720642 4.822297152970826 3.074858957971923 0.6338473774835922 -1.2679693487848096 0.13226448859508189
Ni 1.1713997457200942 3.689141515095263 2.698211931909217 1.231499793103866 -1.3753080206724895 0.6958708703742403
Ni 4.9302398632191995 2.4259652497687707 6.521046255946122 -1.2403137918510703 -0.05854556164437659 1.7783214992255179
Ni 7.939990445650671 7.749759863798353 4.387277197174136 -1.376728812279416 0.43697826553424746 -1.4885275768209785
Ni 3.4050704459116035 1.5625356384274902 10.172841162284488 -0.4428606924569534 -0.2154849272783192 1.1825272198599053
Ni 4.41036281626593 0.5190103672932036 3.1188588273951066 -0.7258741016045498 -0.6575439497695837 -1.3202532457901908
Ni 3.891195550068748 7.264876875964364 12.681329632013172 2.611739703860334 1.5083998902648732 0.2116629824290677
Ni 8.856364097863905 0.042488783550352134 10.799081657303834 0.14892832240400802 -1.8334338668186296 -0.27037155201386986
Ni 5.930059450375261 5.2349225919908635 4.951542625122343 0.9182509821104959 0.2394902890539811 0.8561665540749255
Ni 4.502214049636127 6.249376737631023 8.887172318366355 -0.9385806948067835 -0.01293059201873902 -1.9649565921516803
Ni 3.935734292513331 7.119941513415092 2.8468064010405376 0.0036429960692259842 1.3686205813499848 -0.2208161096832455
Ni 8.97499087633551 0.6351613184169258 12.943786009329829 0.23565857401271675 1.7588801026714547 1.0794516941239538
Ni 7.469601927993658 2.833033852606269 13.093897167866265 -0.28286119984044833 -1.1218121613680359 2.823413227812363
Ni 1.861605495693767 0.042194598105394214 8.219693561418243 2.2406169033683154 0.7152567311000197 0.43237162000017154
Ni 0.25871882128261897 6.250217267473759 3.2171111624787696 0.7125930682249276 0.4272525536060513 0.45400771021270847
Ni 4.271068342883469 1.1202768528407387 0.5957049797547591 -1.84458782655292 0.23232385321252894 -0.42852267856772647
P 1.5905159429701552 8.031430753319976 3.3451061130087028 0.9994001400870014 0.3899124223946962 -0.8475261047911082
P 2.3145483495037524 5.473931922383349 2.3121210861023376 -0.5617377040015358 0.6848320960615755 0.07040554630675616
P 3.1801166423337746 3.837719173629729 5.95773716417454 0.1568768878271234 -0.017408939505066792 -0.24687321178161356
P 5.14217479345508 6.790201656109391 6.535658400301081 -0.7935241966533559 -0.5898002665657068 -0.031309608746558984
P 0.05868019008760799 3.564201423582655 9.24268655633856 -0.002276968959634788 0.2918407776312393 0.029685699989890808
P 0.6545243242274424 2.585796668975436 5.564004968175134 2.185178777004669 -1.153150309359685 -1.575409523516203
P 6.122494088259645 4.908339391205664 0.9876804683828444 -0.5014754167763685 -0.2882047235405488 0.2742919701141986
P 6.805994277932371 0.3415175482465396 6.6918932857028794 0.09280319727566598 -1.84586695037566 0.3957789084778022
Ni 2.3011559073428103 4.039801226264638 0.5020120521069202 0.9011906841940995 -1.3894681142229555 -0.5959768276900639
Ni 5.2812077686642445 0.3066271544745294 5.2438518206868725 0.4186964365059241 0.08462888899498974 0.17662887364307
Ni 0.9398711309279676 1.6638008060363412 0.9510464421481788 0.7752359398671294 0.23629697892766405 0.42659486541739433
Ni 1.1721655617990323 4.907284059292007 4.91037253950304 0.03038221183628316 -1.0871590900705406 0.9121698089134226
Ni 3.346728335605185 8.342408116691692 4.905984039801907 -0.7819850856655048 0.5212446289834958 -0.6972348406013024
Ni 0.7204293352743981 8.606287791208716 5.237045396804799 0.470478454174222 -0.12860478035530754 0.7923993390202932
Ni 2.8234798300604926 1.2167603395664641 6.098116854976178 -0.4219221425320734 -0.30082909717277867 -0.8334403161220033
Ni 8.115091490333725 0.7389844985138397 4.98633028746913 -1.8242378021416583 -1.675812387515998 0.5685632115638014
Ni 5.430625957041447 2.8704654482694876 1.8088043448950801 -2.295788406334137 -0.3741276487566137 -2.0283787651620675
Ni 9.01398212181803 0.20914250331389952 2.920796375252575 -0.7862196925721427 -2.1684660922356787 -1.4414697041012272
Ni 5.935242717738805 1.216825714109788 9.686051105629534 -0.31971642099558484 0.8586530679422051 0.062477806819247236
Ni 2.121665429036575 9.024217907458471 13.019811933605384 1.0837914591498885 1.9788585469447535 -0.2262884456517264
Ni 6.871350142815405 2.716592451725779 5.401577245676458 1.0049452382749466 1.1446371296823512 -0.4475699250071647
Ni 7.4304332373221165 6.041485689860753 2.4524998429819282 -0.12672427550314305 -0.7735585521647065 0.5688365198298462
Ni 7.364731821281512 4.645776546775595 11.975016528486517 0.9870891839301323 1.835400760737013 -1.0228164621284126
Ni 8.976634579139086 3.629660019890913 6.95681054761466 -3.0250481365814674 2.741255168955369 0.7184325577248402
Ni 6.189194800891058 4.651454792824307 7.531860907367229 -0.11181316271926549 0.9364867883922323 -1.0956707270859776
Ni 6.136773756365698 8.399424057690682 10.176108021606593 0.6208615067468856 -1.911804176498417 1.5893209913909725
Ni 3.085164787765925 7.56623484224698 7.115492308780871 1.335423782883042 0.3895527250624323 0.6249153651012851
Ni 9.201999308417808 1.140328159200252 7.00101587988829 0.4904297004851683 -0.24812585324179207 -1.1592463949550937
Ni 4.590516379225879 3.7280487075935085 13.038648207381119 0.4621933313472943 -0.5011949094214724 0.15699027347653607
Ni 3.6703323250589057 7.790693667139642 10.344208386621697 -1.0967989271531497 0.6158514551268038 0.32012779750139064
Ni 1.5557740428036952 2.6550376495760104 7.631411394096897 2.122214003246674 0.36567489000357023 0.890850478610356
Ni 0.8584639478148002 7.405161306717159 1.018725905085357 -0.5851702239928631 0.8934910015569967 0.07878991371570947
P 8.378083938905638 8.836817109410033 1.0113385816897467 -0.6854244782299356 -0.1301548984512468 -0.1942440156216719
P 1.6304411105001597 6.304431442330292 6.5016496289418955 -1.4814884105860098 -0.6175015891357172 -0.58640769594439
P 1.763870553424411 9.035079420870726 10.692150384632887 1.1916505223174123 1.4454137763506398 -1.748787751432459
P 6.353406314500431 6.004231539386557 9.618868489221619 3.8164141492412402 -0.37169847048983085 -0.42681700873052947
P 2.8451188039007316 2.131630377283245 12.877819359427738 0.40205548551513337 0.19336238434766698 0.26510824673240146
P 9.273472362711871 5.819996737079095 12.991476738684673 -1.3434227419281186 3.5274445225102085 -3.4799202516770005
P 6.089526639983407 1.5819425385742385 12.142282901113214 -0.6617045089051765 0.0477520705732984 -0.7184888648840724
P 5.978754145931153 7.954718396339517 3.342290338035534 -0.33223512228788593 -0.42763770485961194 0.14687786763288255
