# total energy = -340855.07516108424 ev
CRYSTAL
PRIMVEC
9.37324387342044 0.00000000000000 0.00000000000000
0.00000000000000 9.37324387342044 0.00000000000000
0.00000000000000 0.00000000000000 13.71868987076130
PRIMCOORD
 96 1
Ni 1.1460665345221805 2.1260204402326974 6.730883344518844 -0.7243658924901395 -0.42329254051703874 -0.0916189471595777
Ni 3.0130386324420497 7.777271053861318 7.847913444014912 2.5511935668461616 1.480382836226657 -2.6372995546073095
Ni 4.215391496724644 4.0766487401695 8.205656420895483 0.7574271938204826 5.377506484803822 2.2156350366119972
Ni 8.21446727018354 6.4630016571325415 12.891850962705544 0.20257927496024467 -0.35803897072486723 -0.3350293972035714
Ni 7.972581337494578 1.624439411400188 12.891123598977082 -0.7774979964284287 -0.08283220210588314 -0.25641123317903586
Ni 0.35307135210911506 5.539006017645115 4.715909599696232 -0.14103760680202163 0.5934265504643844 -1.9100517125836847
Ni 3.2114889527896713 2.446304185097529 7.6452339160090235 -1.1272775553579812 -4.416354075344111 -1.5922808453502448
Ni 6.351778744736694 4.871424838928024 0.35115452372676625 -0.7009182029901607 0.8762250153876975 -0.6562015768090763
Ni 9.121975373609589 0.2932531840383401 0.734176202144532 1.8263684753314158 -0.06674558095666569 -1.637338656920832
Ni 8.95754992870415 2.449969123471604 10.940298460917887 1.108858172310529 1.1348818500678004 -0.5801264909213686
Ni 3.454640273408301 5.406946384007404 1.7514374933192283 -0.6841268424644348 -0.7145069974181888 0.011488460255573764
Ni 6.2800828019661035 3.4694593720513005 10.380109349805121 1.0577027324826365 2.278317760353199 -0.4856739309677378
Ni 2.3257267752660633 4.267769183768971 13.47778931220046 1.0093256267308295 0.34423420363129104 -0.8061755668687793
Ni 0.18804133297061196 3.4346377708756246 -0.014060803209591258 -0.7434949000101067 -0.6870039069019136 0.47556872421293583
Ni 4.653065748486962 3.31906567329929 12.594840982502678 -1.8786593143153325 1.7206141172117209 -0.5838913572804395
Ni 8.306146968998961 6.753384753881517 6.241125725571394 0.8357203704054318 1.438949765892851 0.6599286479516764
Ni 7.6350883167862635 4.056646237636825 12.16659808877615 -0.06511293044924915 -0.9024597807145104 2.0291781211349114
Ni 5.001909767586595 1.3627853072766365 5.1007187557302025 0.5819923404855137 -0.32898241967854314 0.6359495114282596
Ni 8.422075249844386 3.4175503472031465 8.628576249397874 0.030934741905643496 -0.4693114304493143 0.8046863839177625
Ni 7.201557038838117 8.58190780522733 13.499685210005676 -1.7678005450895362 -0.06003088794065145 -0.5646283952857695
Ni 2.75412151554415 6.5733997240631235 12.6049790831303 -1.3459917882068755 0.3661412881170275 -1.0184957232658718
Ni 6.992693044491525 9.152569641775782 3.79293001985011 0.7038798567216458 2.4887746382893075 1.5124156962924855
Ni 4.966422666092352 0.5489224719167589 7.774148826310412 -1.4492069248444848 0.4107854091889635 -0.4939598251256138
Ni 1.4181718056203967 6.468963040267866 10.657089645067932 0.040490761025194784 0.49481548825768973 -0.49036002358949743
P 5.50250660580714 2.6360186421084792 7.588438619103566 1.4860287216585246 -0.9747753995597858 0.060158157547135105
P 8.06599508643584 5.802947193285993 1.393846362990218 -0.26625341608043823 0.9681568658020034 0.2299198717567266
P 1.9006314168490357 1.0643318475095576 0.808649437089646 -0.02611469480918083 -0.39802271020665647 0.23221432421785815
P 8.980083207096161 8.747804849428753 12.49163500563457 1.7785104753078727 -0.277455969664477 -2.1880656116341606
P 5.752931563710379 1.7321379840808118 11.830407948973196 2.7458903537345356 -0.057841336488500386 0.12942727625660289
P 4.333128813647299 5.828695494343754 13.49899908855048 2.034478707412219 -2.7770235848042306 0.30191461692747357
P 4.381157315511139 4.462160889497731 3.842550098532154 -0.2920174124184197 -0.9896325191772763 -0.5817295737424304
P 3.2324850191782346 6.016985218278338 9.026267054555863 -0.19033233927209156 -0.4616976226577984 0.466947558202828
Ni 4.966872581800678 8.46416111506075 5.700691663351726 -2.785171410722345 0.011410555829786801 0.04186373011332145
Ni 1.3334658002840352 2.732469322080944 2.356637859076869 -0.3374197518126189 -0.1261897431559117 -0.6023966151734786
Ni 2.355102521722205 8.28959382023012 1.5882680630995332 -0.46784795852991035 0.32561041788251666 0.1404519095018807
Ni 7.027036610227104 8.928708457151645 6.4900237820395015 -0.46903580819042445 -1.4351144513071608 -0.001412306966494342
Ni 5.639177875455196 6.044533182169404 9.558675745328259 0.8203395170739871 -0.9365837189814127 -0.15403273351010893
Ni 5.407902454887598 3.72388670510986 5.693489262720935 -0.6912747663631256 -0.85236080717559 -0.7903139172461743
Ni 5.769315994088597 5.619344091313142 2.585958958286425 -0.13108872311942585 1.2606239641633321 0.8103083580902303
Ni 2.1699059682823654 6.963617241840933 4.393849625107904 2.0697064202662614 0.6965925790316133 -1.1114583289375373
Ni 8.269675676892755 5.331013734983407 10.525253094635598 0.27160131065591286 1.2722402082460218 -1.726385472477859
Ni 6.035787945588811 2.521983756535593 0.45257958424941414 0.2685121302076279 -0.3257852528974841 0.37001465502950465
Ni 7.279823625599057 1.3409175292031905 9.969810594245676 -0.5871582009571694 -1.472685210472083 -0.6922469004684078
Ni 1.731453737274399 9.118235449284127 4.165433043936963 -3.22607215123945 1.171397428495331 0.86098248740633
Ni 7.472143844420732 1.5869745554380947 7.123895963634633 -1.2756448630521966 2.2023678871894456 1.0360555865265062
Ni 1.191076851842664 9.05371941135891 10.54761484266381 -0.8689125408866841 -0.6375543940215342 0.17296273764539247
Ni 6.821453251253726 7.817641615439686 2.0311613370784376 0.6426688324299641 -2.4765145899750314 -0.0627166623029307
Ni 1.8370152103404722 1.8231709290655131 9.599886149562169 -2.516501414780614 0.6654961147371248 -1.4906191692426844
Ni 4.3925551801220735 7.946195655850022 9.647284769434354 0.6474107179903237 1.1832268170300912 1.608268736138069
Ni 4.513760597296411 0.7283141753947965 13.283903761643568 1.7531393435329354 0.26293669300237943 4.603038533450969
Ni 6.437375208245785 4.72166852076281 7.558929772583711 1.3629235309652075 0.9179190526923741 0.30546042529720296
Ni 8.260958560043932 8.172147073869091 8.878873731183754 0.6796659784796036 -0.5295310373620041 0.3388526276044035
Ni 4.662888908118755 2.0545963215358873 10.018141851888245 -2.020788611519636 -1.1360244483126758 -1.640808103526671
Ni 9.051432339841584 4.697401192244956 6.63560713200999 0.5622151578585867 -3.8774559949449094 -0.9901835065847397
Ni 5.035962762760546 7.704984596723549 0.5233897554692376 -0.7990399842652627 0.39135301149596474 -1.9958231998235496
Ni 3.4197436862812376 2.5605359087928083 1.0120525795264264 0.2646205084627056 0.07158413999588961 -0.08941859707414922
P 7.688722018516335 3.1354813178142855 5.504788990702504 0.8999632395449016 -0.7580907955464106 0.0692842882181194
P 5.230823130685479 8.628605306454036 11.829036643387195 0.604376621717985 -2.069086784404391 0.8552471275844497
P 8.568232242342992 5.623430825663773 8.324994687880267 -0.1908488738971939 1.7317158835518367 2.784118801088115
P 2.0812069610346073 6.1216468599277585 6.251524402380088 0.004462663757043927 0.09015778923301891 2.4664651761588297
P 3.645638864836766 -0.23613732219070038 3.960132756930073 4.123645807506253 -0.026801693573876424 -0.8205215511778061
P 1.634431289422603 5.576967655535153 2.9521931568372635 -0.6298058604243669 -0.9789971509506172 -1.9472167516697558
P 2.7178939277799548 0.4839696408247093 5.906719314087077 0.12801651195200534 1.195756831176302 2.4733575324032886
P 6.275311820809059 6.852722392982408 6.756071125589982 -2.197119237195997 -0.9804500813470597 1.1788271453004988
Ni 1.0652410521701337 7.303369214334803 8.233614932870397 -3.2704961858807806 -2.1823783314413965 0.3213058769698918
Ni 1.792445435484392 4.320100004593682 7.929896521991506 0.0683635761760629 0.9830630934898749 -0.7620608359377521
Ni 2.1779107185930053 4.127461095478609 5.552749067885702 1.8444204477371204 0.05679978259786347 0.07611725197955278
Ni 2.994685820839904 2.194688825216009 4.259968770175863 -0.7131193730420428 -0.01902693472446401 -0.3722000927165977
Ni 6.063785825188203 6.275836722468774 12.038643935976916 -2.327283391618624 -1.7327450961472999 0.9366063446892321
Ni 7.049344930764954 0.7094495846744289 1.667465412982074 -1.5548445548806575 -0.793816016862162 0.6887607416920203
Ni 6.555103151924518 7.238225169066715 4.712575536832655 0.04008504094634387 -1.6300547216649088 -2.3381717563963536
Ni 4.342680149205311 7.368728844213131 2.7145720501334782 -0.5885198571913864 0.7120145700136382 2.240486291327722
Ni 5.038830975401127 2.373249121958035 2.7738503193542616 0.049267221666244185 -0.4389906679785859 0.3798128720668491
Ni 9.270916219553463 7.749882435116951 2.2460926322166888 -0.19712905047895082 -3.8443407004481793 -0.26709082438006904
Ni 3.451275278839777 0.35116952091704384 11.575679734784694 -2.6012601444852494 -0.13164022474752166 -4.610945704113187
Ni 7.052063171502758 7.83341678496288 10.987120626288775 1.347054425143435 2.174862225570009 -1.5572994441790535
Ni 0.5041474230187544 2.986727936748881 4.5874202346689685 -0.9756444324283005 0.22783599264450438 -0.9487321814184886
Ni 0.13264921068049765 0.3292576885971575 2.8586181881005177 -1.1216676653703714 4.210541638158547 1.868347647976679
Ni 6.926939738368412 3.845045256064581 2.387889191642097 1.488193076299695 -0.9519897691238379 0.644643953878464
Ni 1.319462173862377 1.5387773351836331 12.317298292604459 0.24920545945921596 0.5604038156814607 0.5198292366932079
Ni 1.2430233696665123 4.211614079423486 10.052616643038753 -0.3364036518432787 -0.6681767468930815 1.835022037241356
Ni 1.9217962016282217 8.643836827829668 12.946451045884125 -1.708910198511231 0.16182728985386322 0.8311926577384073
Ni 3.7891244828171833 4.724039951475446 10.62810195091022 -0.005353808112745618 -0.1527906335728917 0.7695131784507392
Ni 0.7801519635891324 6.293205343458956 0.4610604953513661 0.8081116075492275 -0.5304031555543124 1.162371827957953
Ni 7.174037194678821 4.990980565171833 4.71622454069206 0.30193415731149936 0.08238174483202586 -0.5519999078884815
Ni 9.263530103341772 8.971759766492124 6.874311785711328 2.10256280467465 0.31401114308069145 0.2272757492656602
Ni 8.715167214087243 1.1272075677481672 5.253407961919071 -0.26406515017986776 -0.544180926064695 -1.8641364381088088
Ni 4.429579493619764 5.994170742568622 5.512375694334157 -0.3887034896882596 0.00961515449226086 0.03796285239701849
P 8.89778612544813 7.997411060647839 4.530487151077836 -0.15781894002541855 1.0803621217533652 -0.32326840001290136
P 0.5766635246326487 5.049160290204786 12.26223142187849 -0.21889909516619074 0.601475646021106 -0.5637966434130934
P 3.077976466343822 0.267915431064427 9.203471042902164 0.7127051683227597 -1.3809953008652538 -0.4678335603522072
P 4.980810595514873 9.30695634243919 2.060396484875728 0.5393976457434388 1.4518165945531898 -0.5977467751062931
P 6.337971956437429 8.9352416081663 8.910714640791767 0.7218199861398343 -0.8105821805769072 0.9887884260094261
P 8.088481498608234 2.390608369704294 1.4195281140161222 2.5615687394328983 1.3967085978354528 -0.9058472091295046
P 2.843073600377842 2.745919927111118 11.077869561982595 0.35065527666628643 1.8379212131660216 2.483081187448956
P -0.17895959693316582 1.3034995394607145 8.395084056642375 0.7640642395210261 -0.40789497501504596 1.2639124051066168
