# total energy = -340875.12440939486 ev
CRYSTAL
PRIMVEC
9.18659586399536 0.00000000000000 0.00000000000000
0.00000000000000 9.18659586399536 0.00000000000000
0.00000000000000 0.00000000000000 13.44551164229434
PRIMCOORD
 96 1
Ni 3.5753863053497716 6.080607702831 1.6014137954115302 0.5240147355294652 0.401954698271211 -0.2747851077005332
Ni 2.591612143571911 4.183153104570036 2.7663871270231266 -1.7587615748157193 1.344429328815762 -0.7043251717891805
Ni 0.6392327268584832 6.911296433637451 11.385914497731978 0.14761834534333287 1.2628299706757153 -0.9619065140169175
Ni 7.1095523557326255 0.36326096100497784 9.285160536329075 0.008764376456191358 0.7468954410512233 0.48998592807953023
Ni 4.595566945940624 6.160365726816464 7.7297568868895326 -0.32503603343628534 1.0445448549444398 1.6132697888970862
Ni 1.447191982550349 7.1315634390624085 8.14640666754366 -0.4028165320508741 -1.5300269816163456 -0.32256957417366383
Ni 4.770194943860423 3.4402882287855885 3.248704531157201 -0.1308606662690198 -0.684167465894383 1.127001418878459
Ni 4.921681907177666 7.822716967575008 5.964738089754951 0.1947978312426129 -0.25971458652065593 1.2379843723869455
Ni 0.7078152571583545 4.812223619250137 9.935856297318987 -1.370846128246394 -0.5607969373548213 -1.3482098789041168
Ni 8.095981443671716 6.4285040825049835 12.956363953631252 0.787025990523522 -1.0544932244064034 -0.08668525730338619
Ni 8.551811136384773 3.5575826828568173 5.658772088896545 -1.6751793819176892 -1.5307114092778802 0.06595033874887997
Ni 7.708114186047864 5.083659962799839 1.9263253126100903 -0.7699536084222675 -0.5344469866063828 0.46798088456334885
Ni 2.2157517665457322 2.546919355425253 12.311328972920059 -0.6273741110544228 0.4771661506070427 0.7164813475357402
Ni 8.039731918117353 8.957684121607278 4.770077355435289 0.10795805063923343 0.3123039305815976 0.35631607449648955
Ni 2.171968451374721 6.615497238255286 -0.2756263498546741 0.41609396588607045 0.9229905536780104 -0.11829671356108014
Ni 4.860692098235083 1.3848976770164358 9.136278891556207 -1.4210836842457073 -0.0010544094064433454 -0.327642617821197
Ni 3.9372003775298574 5.8431250170387585 3.982614313440033 1.3731256683091901 0.19249052326567495 0.006268863727847268
Ni 0.5351357361894106 3.6689517826927744 7.652284487917611 1.1157351019360204 -0.9074014409905018 0.07235624227522378
Ni 0.7414776998316943 5.287418655727459 5.658637964599127 0.11856307984858935 2.2135547570442005 -0.5849305971782314
Ni 0.7267598548389378 5.553278735679005 1.397674394334909 0.7161563600961538 0.6331475232030902 -0.08803765756622257
Ni 3.1986715749222285 0.975460292657054 10.848765978421719 -0.2086229100511633 -0.46613946047923593 -0.7713260632897619
Ni 6.269750521978285 7.40876896472025 4.141392677775159 -0.02164046108791112 0.2905583113743899 -0.6659735685941757
Ni 2.793322225655398 4.736581190144364 6.606465896009247 0.09182694940532572 0.654523160665389 0.31891295125768304
Ni 1.5999283228846415 0.10287609209873538 8.934461326302872 0.7270665792507544 0.6591413761636906 0.7453286107847357
P 2.5068198651353946 8.430254101902433 11.757454418794051 -1.3244837389317705 -1.9179732814236063 -0.7436527657442096
P 0.3507469803239136 2.8027384862618367 11.00265064322021 0.2502634684100851 0.6757823271544814 0.24642069762522723
P 8.300116787023594 1.5077132751115372 1.7844208872817018 0.10313800354277076 -0.9961818902600197 -0.10397849716619512
P 5.121150459907035 8.482617697469946 8.208471308184732 -0.7114509842006844 -1.116424671803877 0.7206953856170878
P 3.629660712825713 1.3839422710622216 0.9393092012049004 -1.1074774899129185 0.5580746533276517 -0.31605619853517825
P 6.189239197144305 5.824402734974445 11.217173270345453 -0.4106308858889702 1.3918960069381578 2.572360173621447
P 1.6327520293693296 0.8811323278698223 4.753808813086076 1.1032994472758288 -0.3890984111338331 0.9225946037911724
P 6.0192136836770205 0.6153025636841299 4.655279818079015 -0.43879552124864435 -0.012720532890461963 0.20702548365705636
Ni 8.64283192671511 6.790878537023599 3.4855469112282043 -0.3479723305174846 -0.4455616363278842 1.279834218543196
Ni 4.084213468734578 8.711216945207138 13.22987187451437 -0.03994697270658281 0.5408649743175847 -0.4484926939317501
Ni 7.306467034853615 2.6156810243415394 10.841331266510704 0.5138105413029538 -1.0695673451307062 0.11528363776636921
Ni 6.756346123736182 5.115721181840298 4.198831867474436 1.0887380045218862 -0.9257411198399541 -1.345603037408889
Ni 2.5772902408544103 5.588766554920638 10.840443841364769 0.6235637361693971 0.4327842820575579 0.08660966687044439
Ni 2.5500060515850222 2.013150584678026 3.0652408654800634 0.6988870314927447 -2.497295788386441 -1.2400219716422645
Ni 1.757542745542855 6.6886225401355315 3.348188013458905 1.302054463393977 -0.09379924264034813 0.452169371452389
Ni 6.197736798179384 2.944212060251257 5.4053644394347815 -0.4281272429015207 -1.1737242768562948 0.7818650151478729
Ni 3.7410757456402384 8.76429709524031 4.276815959827604 -1.2551940513970123 -0.15201493174913172 -0.4685195306756383
Ni 5.296348026761076 8.73070171471568 10.761558543972097 -0.21771921592547666 0.6993446878554537 -0.54599432512435
Ni -0.01579175803167622 2.0499061541281343 3.7899401669004416 0.17447017542885435 -0.22342603650226683 -0.21530186473323565
Ni 6.840587206429882 7.152233279418005 8.638646513707993 -0.9819073826188768 -0.7036733971377945 -1.201679110198008
Ni 7.3101600463304806 7.5579592791090935 1.7290257151287016 -0.4495525026548322 0.531346236193872 -0.6280600813778539
Ni 3.3659227364840074 7.6223756882528475 9.667389980163492 -0.03779598780185103 0.29403058619370653 -0.6414956380574695
Ni 4.632129596880747 3.3905519995921654 0.9042522333022361 -1.0387627010450238 -0.4077587065474978 0.6475264176325816
Ni 7.311041959518987 4.919706789099242 9.809495591938008 1.3674728408987868 -0.8404830819013976 -0.40302324874504136
Ni 0.9681753222561702 1.320811985318371 6.785398732680438 0.4315637793868955 -0.2973876755913975 -0.06650878235551126
Ni 5.3162737528638715 5.190141793716162 5.876858196499094 -0.21141229987084237 -0.38774215421625485 0.03663976271022077
Ni 0.7418892593196637 4.768495423653406 12.29336550366169 -0.6231760138126752 -1.3937086346668643 1.000470747443361
Ni 4.944685142844517 0.9621489154680494 2.672604846021283 -0.380494471514906 0.6837404056592934 0.8310306782392463
Ni 2.971275771223519 8.590495890934736 1.9403220098393292 -0.42218233817199546 -0.3465924194508225 -0.046086252835101274
Ni 4.746567019685047 4.878789691790874 9.837744373757323 -0.12402538851474124 -0.39509448081626797 -0.4631307555598992
Ni 3.998300425621003 1.2951905698731443 5.9270372196059125 0.5543439826406259 0.5131330556199549 -0.7421916078176508
Ni 5.787445060418637 5.824127137103037 0.16329173880921743 -0.015350257203825176 -0.7479897025566666 0.06456348570368235
P 7.102028533843189 0.45013675934933833 11.687309248563297 0.20681979540415352 1.5448977280805911 0.2125888366774468
P 0.6315848859269122 7.751989367176011 1.5977841714450876 -0.32570194915505846 -0.947702968823026 -2.3331833020428268
P 4.318517592409914 2.9273270973296626 10.686532535438706 -0.4636480615159499 -0.27303161534453624 0.3204219317030417
P 2.6923707253586615 5.418410324007663 8.698600074654081 0.06634783129761476 -0.41158425094117507 0.41891626582621394
P 8.096275414734553 1.8872666636145825 7.291931084455987 -0.6420216857642685 0.8328366210997334 -0.4512409461008487
P 7.982030910440239 4.2765807829773355 -0.0370697510235136 1.3909043324488497 -0.10582403501536612 0.44560534508162614
P 6.565053641191915 4.8766124686067505 7.781388310778671 -0.7628578779177507 0.8170451625934316 -0.9774562888260586
P 2.371914707081197 4.420525551213714 0.3908345280393444 0.042021595847424396 -0.15319866764458778 1.0071684711785105
Ni 3.8952084485229976 4.37885515305683 12.310925681368234 0.6127815579522284 0.4112500075302078 -0.354771355717189
Ni 6.186400539068803 0.7688675349517891 7.0274986014783325 -0.020099856073668612 0.6612684498090224 -1.3023971914453765
Ni 8.654278424974253 5.6352231694443065 7.8117077512718325 -0.7854835857370666 1.1443915893304486 -0.39129027657882937
Ni 4.61755965607898 3.4031560089112225 7.459744465675438 -0.9519671434160185 -0.5120588487191697 0.06266781134286627
Ni 5.181083810342553 1.6626360252256664 12.237405355872303 -1.3295207871350458 -1.4979918075576717 -0.7535381431787216
Ni 4.346398910400686 6.8580968578600014 11.7269870741099 0.29410463396475156 -1.0598920268244716 0.9420275157048034
Ni 1.9165075977709671 2.9827130828869497 5.090712512329168 -0.6247027348698467 1.0094541818888938 0.6295952870754576
Ni 7.559208656126144 7.703520888191066 10.76642560238116 -0.6815901920855101 -2.169166460736813 2.2294539447729607
Ni 8.454322982672062 8.811176293166806 7.465378604826588 -0.16029311259752393 0.7500537841745469 -2.793410767913002
Ni 8.633599398022941 8.822484992490246 13.108311165393747 0.3541710031290287 -0.6617703291461056 1.7771711876711587
Ni 6.179234994412196 3.5744033396084167 12.678552112656313 1.1724721496167485 1.3097014384162735 -0.6099399747383754
Ni 1.0101488780716028 8.004832041001391 5.9057656572310755 -0.024700588070473588 0.8503196083758452 -1.2424434365995636
Ni 1.3157317978887508 0.9557458582556712 0.9206209095447264 0.3071072168720066 -0.5964041450354697 0.48807379865848205
Ni 6.520709943682374 2.8491491678069374 8.584582479273893 2.1240407720427674 0.23762649637236496 0.11389395650769418
Ni 0.8213955705825752 8.934708445727567 3.2475617186504295 -0.6061478546857948 0.69773774837965 0.30189816186724133
Ni 2.8908838721338164 8.690629784212963 7.087693769891689 1.5884828117603933 0.007111414233800656 -0.1659438831253981
Ni 8.860370513213127 1.9804187441504735 13.033756429220466 -1.0308812414144182 1.5089647616294077 -1.3281187645811967
Ni 2.040370467777419 2.723706203337747 9.39139432916113 1.85749245042973 1.110695225519268 0.9892031449493417
Ni 0.436685745905487 3.183596371356213 1.5800760895475545 0.49048652186503267 1.0529222803748575 0.06771874350321241
Ni 6.371776853973511 7.996573291454865 12.945325340221792 -1.2343593740398484 0.8607104646918661 0.29767486781451313
Ni 0.1699841737865741 0.06778788977064504 10.933768629900076 1.0937020333953809 1.2295951198819857 0.04879876667025789
Ni 9.21911626242487 1.7209157884327366 9.17504265082931 -2.2198310769712153 0.5437975745833473 -0.6309399740288102
Ni 6.8644907284766665 2.4322247079409727 3.195177912572347 0.3700570782316659 -0.4024789462057972 -0.46648938761948694
Ni 6.311733264389431 1.2717647508034675 0.7423237852969169 1.2446761825848243 -0.31841595701660647 0.44330292220069456
P 2.9534905219219922 1.7077973297537177 7.763572745711288 0.2191510632759968 -0.3767622581659834 0.6528162052766112
P 2.630205032164739 6.685728762485748 5.4407264023151365 0.7878168618559335 0.21099141028333984 0.37456113674960656
P 5.490221942700864 5.122849980114051 2.24819698528702 0.4758903692184126 0.8053183610748066 0.317485217672221
P 5.1590635404170575 8.275074127108324 1.6603191657866967 1.3219321761545104 -1.2957344347132198 0.007182119570736017
P 4.010702329834361 3.389348555553684 5.229590873029497 0.20489378202603423 1.3414417069423479 0.5315308414008523
P 0.05554215768441793 4.311581712646147 3.7576437710097137 -0.1939848484230143 0.7719295012017158 -1.5009912565056278
P -0.29980638843243734 7.909980440258483 9.182235755273057 1.4631381902135963 -1.3379408928779408 1.9497564873724746
P 8.279612305390842 7.077086926480768 5.947957854024491 -0.8924178230974761 -1.0047189811967534 -0.6357975592314277
