# total energy = -340891.2987824938 ev
CRYSTAL
PRIMVEC
9.09566541168378 0.00000000000000 0.00000000000000

0.00000000000000 9.09566541168378 0.00000000000000

0.00000000000000 0.00000000000000 13.31242573394766

PRIMCOORD
 96 1
Ni 6.508694585927237 1.8701052313291608 11.423006309450136 -0.19127104903627704 -0.03534444093756494 1.031904797582926
Ni 4.647057419277592 9.645498592259917 6.047368793338799 1.1952919757247416 -1.2381224406267064 0.21319998789888445
Ni 2.8941225522895064 1.515838151627212 5.022684760089507 -1.030134850166697 1.5121794119119634 -1.8873095337911625
Ni 3.5739235040429262 4.335758263900068 4.562794263533752 -1.0404688851028532 0.21934338179246093 0.6803259806611057
Ni 4.759707237812308 4.7187221685900695 2.553815500160192 1.2737245061010323 0.02156692753749834 -0.34592290418762356
Ni 7.4436016709421144 6.283658723160389 2.360572626953801 -0.8504499633061224 0.920288324255499 2.045416180260329
Ni 4.989109020070205 4.808541866452832 11.445411662538271 0.3404726797063298 -0.8137135271170373 0.14546658910765267
Ni 5.97386944827352 7.664853736816718 12.435403008031802 -0.8118355933680341 0.8942798160068792 0.5419957454879182
Ni 1.7441211670155277 6.634169292966914 0.4983733481696849 1.1407321382009903 -0.18650653776809817 -0.5779073717828628
Ni 2.6745531845520794 1.6444599589666882 0.2377834381141543 -0.2083272331876154 -0.437265457757363 1.6757702214241523
Ni 0.3198754584777572 9.026010999142244 5.004966403488327 1.0761020609254308 -0.5513483903474118 -0.7053001341079402
Ni 8.545250497852706 2.471110431934721 1.6173666998250364 0.7109419057747498 0.2648902171843245 -0.5611964867860851
Ni 7.0943917813173 0.6771259164985906 4.913177494021787 -1.4608326820088713 0.07643426899933933 0.08642043367777374
Ni 0.7005136014722132 7.778658704883441 2.529920277045735 0.2386166281997761 -1.151196528067424 0.3788831611637281
Ni 7.672439521932419 3.9036595736045334 4.038031660740348 0.48829697041288156 -0.3357760455616088 -1.4293752348305384
Ni 7.49942177076832 3.769225635942596 12.810641054355763 0.3945051839717012 -0.6787794621095923 0.7522970716827689
Ni 8.057322612065361 8.725080902555966 7.026538115893886 0.18440234694090177 0.3513361047833949 0.812309447680659
Ni 6.929405502883613 0.8159485128155949 0.4901890682570861 -0.49032582791745233 -0.33498388867761664 -0.6505572340391054
Ni 1.9012215033685034 6.516089362065204 9.285710443534912 0.7937833638520135 0.11716259995663693 0.11698236562503078
Ni -0.1272156174367336 4.935590123642409 1.2632424220731073 1.3658407046120025 -1.3472218039592347 -0.224378116002891
Ni 6.383101635234676 1.8569710901935832 7.092155157144696 1.4407063435726413 0.8914752566785487 -0.15835784324802404
Ni 3.4733254424366318 4.092712983232637 0.4424650203870983 -0.20835860064618308 1.0977324947110128 -0.9089482166523314
Ni 5.976907400586043 5.445129310910456 4.66358242455122 -0.862461900165334 0.8451213520043575 0.4265367584859493
Ni 5.481330060023752 2.912241118177367 9.427007970463407 -0.7302308359113487 0.5140514536691664 0.009122016905926225
P 0.25049281166591514 5.5428804291819604 12.273045376958352 0.42575797133839577 0.9003285933041204 1.8978906517411185
P 3.885850260347289 6.1686440315680215 12.735824656910685 0.006204843259131249 0.009524394550667467 0.6647371250839132
P 2.4979426454734703 8.611794387428805 1.3291004984624863 -0.20353752510845594 -0.3435266360413051 -0.18035260235156036
P 6.431199514961085 7.84632136132912 6.049378935437804 -0.11322341280323081 -0.6213536158919557 -2.6327206769873754
P 4.633868704148377 1.3632128827525631 12.783976201064172 1.3150943272970705 -0.7305887334713999 -1.4805545859178308
P 4.076686420434238 6.110631876330685 8.415822814540507 -0.5435499773489154 0.43890993533932154 -0.904024811208785
P 4.884145038972861 1.1604886877181069 3.761998220051786 -1.2362892440727096 -0.9812111278828006 1.1686993128378778
P 0.3842181969771175 5.61224397509603 3.42403603051579 -0.5606318725318666 0.3704126617988717 0.07276864722229404
Ni 1.505632814816881 1.0774634520632917 2.5078214478885337 -0.9378654139073138 1.6228877716028243 0.6074048670213474
Ni 1.7721721997455289 6.696429124042418 4.735469108104492 0.40687553261159604 -0.26159509137282044 -0.14530949470449814
Ni 6.074258309570869 5.514465569827705 9.308687004423128 -0.24172072104639664 1.0440509460271568 -0.12481523140588828
Ni 8.528287081496853 2.1934925262975318 10.129331609391283 1.0285150551750868 0.03919466792159056 -0.0595079255576459
Ni 2.468709176214643 5.341275001017086 6.805405203238727 -0.06452234805310178 -0.1680241626931945 0.45616358021344666
Ni 0.6755259889184327 8.984307372337103 9.042837980514001 -0.0779638182699883 0.3281126154790801 0.5522693594997844
Ni 1.6402759527877644 1.1942063201208672 11.498954207696645 -0.8765456319519098 -0.370593153240794 -1.0837624056841657
Ni 4.049053788322129 7.057317848305794 1.9168560429792685 0.5749822277162678 0.012587863967339612 -1.2878326633676402
Ni 5.610170163337781 7.915784959564859 7.911455422736235 -1.0860951675824004 -0.3012607853935586 2.1584434178923537
Ni 5.335317340044924 2.9295956481542937 5.012154708017029 1.0004998009090835 -0.5599749556741582 -0.5016605362039812
Ni 0.8417638309395536 7.269374196252371 7.0137177752217275 -0.11178488058449135 -0.16097316938368406 -0.18151885474551963
Ni 5.120250326782642 4.6289843317177635 7.027643239265058 0.13394778983477576 1.0396013948962355 0.37189875942609496
Ni 8.458978109576423 7.08056636959564 9.338693605258495 -1.3400828789216084 0.04783280321256278 0.0854909798849689
Ni 4.563877557307469 0.6509167560538767 10.677098060069723 -0.06321854164001371 -0.8454617660629117 -0.730179156737807
Ni 8.104683742877654 6.941075241856567 4.6399127739437995 0.0759205625877144 0.17785040475499692 0.4897460441545824
Ni 7.405090622764805 6.074240118239655 7.076033999423991 -0.17342682176600455 0.11600920307848407 0.0669443272310331
Ni 2.4193924772969826 5.099948801149257 2.3737786238476692 -1.2428926083218401 1.098264970175715 0.8255012637805847
Ni 2.301048772092688 5.15055708458302 11.355459167957656 0.11825171925575763 0.29938285164455536 0.2857279798652821
Ni 1.0718150437217449 3.467686129760691 3.7396337974588785 -0.128583697309385 -0.5562550836204098 0.31687072401667365
Ni 3.4483487446815793 2.6417815013723795 2.7181978263976165 0.2970778576604626 -0.16778273610634972 0.04683341541377095
Ni 1.126279889372603 3.1789078424245036 8.000062668373669 -0.7182998888017178 0.8615622711692001 0.10835400052607146
Ni 3.9010127349130843 2.7107357423341623 6.8821517009254745 -0.9270112448016292 -0.4302247488604978 1.1008432724258526
Ni 4.185070371799573 7.26560859069134 6.014793576536196 -0.1830149796750719 -1.2839299858791242 -0.500392468124835
Ni 1.0612458802871596 7.898794256212186 11.80869436598924 -0.29289852947179235 -1.1524797656552217 -0.6580831101025054
P 0.3421480148480404 5.434287277507679 8.155884154142392 -0.25156238972716677 0.015242527981367295 -1.51480425112932
P 8.71356578989832 1.4895243910280247 7.924434937556503 -1.0207387536637775 0.662047494066892 0.716332994883334
P 1.7460403524584687 3.2262325905743725 10.33278527680737 -0.10169767155181841 -0.30989763513295016 -0.3509319273664408
P 3.8361515434741618 6.373742195325736 3.924050236760862 0.6864868580561789 -0.11226002044869698 0.33107169810740406
P 7.051469335320907 3.918822048170328 10.651524686650893 -0.6772519697214723 -0.26425232649000946 -0.6749649734595086
P 6.272161801833955 7.6508736987797485 10.20020685492913 0.8436499096651535 0.19817523235527804 -0.06448069618188895
P 2.3811361077566504 8.610148071954054 5.655611199140572 -0.1216301488096873 -0.6047023804885199 1.0813921056797764
P 6.798809936107558 4.30285924140188 1.810902453463952 0.6621536806274533 -2.311916936464883 0.4399484039061649
Ni 5.31278737633798 2.6883695006081334 0.9010311880305674 0.2863419593001972 1.6192632874763597 -0.4071686383719827
Ni 1.6330630899619245 0.9847058542096762 7.049794823282777 -1.136956473208642 1.371459850570993 -0.7788550246769553
Ni 6.705142771693306 0.5597172457186298 9.188383183280664 0.675613662787101 -0.025740599299213733 0.5151657697792675
Ni 2.7379408781627723 1.5487007914629751 9.20237413611636 0.07853768849558733 -0.07643221211681031 0.13523282719478644
Ni 6.444060786128472 1.9389139416412415 2.6805636003847595 1.1038591764340409 0.8910204285293172 1.004615879959986
Ni 4.136927013745132 6.960176139629914 10.583325385934439 -0.08747664285642999 0.46403398410045893 -0.7858275993400466
Ni 8.372260033685427 7.038198759201234 13.721650187556504 -0.2495577005923121 1.4997435001414559 -1.6266819485379338
Ni 7.572396295928112 3.831530945346133 8.369029253262049 0.9905992539659197 -0.2369940049946886 -0.717972587369286
Ni 3.5648551254333896 8.492322819689322 12.517581437218665 -0.8810656313094504 -0.46839997437863845 0.946199644804622
Ni 9.08679733238952 4.900526332729908 10.232396415510022 0.27029287625713444 -1.4243746962921533 -0.037783389396360736
Ni 8.796536451559495 2.200123266524565 5.73312900927074 0.4018320566504176 1.4011116119991547 0.9631013056559673
Ni 3.592515044542317 2.8671266167698426 11.552749612358875 0.11132079646387924 0.14204779323409086 -0.6603703634747853
Ni 1.1383953159602687 3.267636060414504 12.612498346087229 -1.318166281354175 0.9025112027777359 0.356634891288489
Ni 2.8555478344529517 8.419448346851201 7.878905673797329 1.8928476900005722 -1.3301787324340189 0.9348227704262481
Ni 5.745131649604887 7.936850521109179 3.926593384864399 -1.0094318132913906 -0.13337289116791223 -0.3796475501335784
Ni 3.0046166980755156 8.73138419882117 3.5810954363735377 1.5012427103948016 -1.1534269600598395 -0.28009494994922085
Ni 3.253010230119484 4.098943514172991 8.809032076969507 0.31236949371221046 0.3610954981630039 1.2590617618825348
Ni 7.263380152617782 5.889589010765028 11.631119686356358 0.5880925398459808 0.6044882075951847 -0.7903594257721291
Ni 0.6031408628899326 0.16880918668803765 0.4575911122904678 -0.7646882462582701 -0.62686888928323 0.08784713882197129
Ni 4.549688318961555 0.4371422368742589 1.5956671703879535 -0.09149322021499082 -0.3057234491506025 0.08287771063183791
Ni 5.95153049354431 5.668546145199372 0.4734175704455268 -1.0576173718576818 0.6125979811865127 -0.5833313710119115
Ni 7.907708008506415 -0.3433513714077613 11.273215249978428 0.3678605848009794 -0.02699889718634705 -0.06800516439537965
Ni 0.04067490702506213 4.7944981587566184 5.876038288144679 0.8319652742383736 -0.11610690499861295 0.13396450200532412
Ni 7.749852731908112 8.99629545960628 2.644526573252378 0.6073593584953928 -0.9871246651537581 -0.033269303576091085
P 8.711819422101899 1.5467725103544279 3.6449824820260197 -0.09406586603817348 0.8997200131858439 0.07803400938629142
P 1.636555825554765 3.2616238254487024 1.5205715360087595 0.15283048567189164 -0.6829724171450173 -0.4060319536643782
P 4.7099630426111485 1.1654822081359961 8.344295409778686 0.05209903468808446 -0.892593686553708 -0.5301676425047386
P 8.556347209892461 1.3899450439696424 12.468537608269195 0.13627412397510721 1.5622220782916514 -0.7743193415901309
P 6.20493573733738 8.02994465859023 1.4904994463810262 0.10269088870302313 -1.281774115878386 -0.6905296606669848
P 2.0741301065453257 3.3425752493452685 5.853939458987477 -1.4622249343707074 0.27399783591254745 0.4373461903966275
P 6.984034070515386 4.013125909177025 6.117499103863483 0.4717876599039488 -0.3661371743519694 0.18769207343576708
P 2.4999345962412622 8.564451447947723 10.281013657742553 0.17883025216976298 0.17058935231720945 0.19100493985908396
