# total energy = -340859.6305404884 ev
CRYSTAL
PRIMVEC
9.31669562095751 0.00000000000000 0.00000000000000

0.00000000000000 9.31669562095751 0.00000000000000

0.00000000000000 0.00000000000000 13.63592578729591

PRIMCOORD
 96 1
Ni 3.7171472276069166 3.8713012716445023 11.588873580755374 1.4959778624514366 -0.08185492579427837 -0.31989459844466195
Ni 5.649252860784642 8.701029644596545 8.933208218587087 2.045765593179948 1.2923002122206906 -0.4551112276895323
Ni 8.445696287235608 3.810780017560847 2.191811315745171 -1.2038213533519915 -3.257674351525764 -0.25119806440921255
Ni 5.867738687372666 7.738484563870135 11.063630895895892 -0.08234292117429044 0.33399709928431515 0.45743396228543803
Ni 1.8593142910971234 0.7351217481281573 5.161920741656657 1.1369400181484095 -0.5829145951894671 -0.8073906702228031
Ni 5.418972097671079 6.638639341297846 4.993489793407589 0.23266683837424446 3.060631947223348 -2.331786164584984
Ni 4.1251905412001815 2.4911353143325248 5.073191328553748 -1.1405027957990035 -0.3470698733078732 -0.8695704861856574
Ni 3.9855984922569228 8.632579882627239 5.291556969769592 0.15733171597635484 -0.11279506701656059 -0.10205145534681134
Ni 8.073941502684189 6.465348804666691 13.319285799346368 -1.5473235639132643 4.2217326217783615 0.7300264332100266
Ni 3.7695350065035287 4.4031634686693835 2.805019444675103 0.30067046010772736 -2.298566483299906 -1.0297800379304396
Ni 0.14220538203600247 6.304151338817645 7.98150311309564 -1.4571719453278322 2.352971283303032 -0.16602204466150117
Ni 6.037330495883254 3.50087877455213 8.036100812169076 1.0221502892993233 -1.1328529925632296 -0.3246344271224925
Ni 1.1293139304951032 4.403918121006326 7.6598991688470095 0.42878621664175826 -3.9370955609844134 2.7182417387793314
Ni 4.83199232996287 6.197344741401539 9.81321669372127 -0.4674419813407434 -0.5702310861845277 0.11082920153944137
Ni 4.643329245727337 0.7800524439323193 6.977585382583318 1.7049478714293733 0.22816586518009738 0.831268248171349
Ni 6.389259352372785 2.5221319603202588 5.785927852361277 0.09427798204897957 0.0318125165249065 -0.4024635195868295
Ni 3.61386234109654 7.8718344268164655 8.738705429600994 -1.2229228500681326 0.6493922671967268 1.0341524559665223
Ni 3.7952490861326678 0.9688059001143744 3.048337991496281 0.06534818638850681 0.18348600577421947 1.4729662320476116
Ni 3.0333856268597574 5.495583284913983 8.170741969114173 -0.14912989689185283 1.1924740466599721 0.15046018566750216
Ni 0.11793166353391575 3.461860453723567 11.193895069286725 -0.15075534831041779 0.18473504768997218 0.9396163351601495
Ni 9.126234311333606 6.005504663994435 11.427600649672634 1.617704170519356 -0.9153248096026366 -0.14214009583758103
Ni 1.7059242160919972 7.702130817959665 4.750606336267093 -0.9274861275555188 -0.4901995867522332 1.4706404121279124
Ni 2.181793073054876 3.8377145843028186 10.004801493671186 -1.2757266241327254 2.291391048597389 -2.5905599844589258
Ni 5.98787747607475 3.4260377594576097 3.3781918696259274 0.023641036457707675 0.3279742901290029 0.4354847117078564
P 2.6429229177085887 7.196700086118793 6.818958393027634 -0.6923934533486011 0.9548470360669749 -0.4810449168361587
P 0.9500700254280705 8.973887706226474 3.264345577076569 -0.5051392387812009 1.3441634767488853 -0.6805617508209957
P 8.208316202137476 8.805190300485595 8.204040770564356 0.20085637873186699 -0.6604595807544819 -0.37517537329483774
P 3.268921006245362 7.6550721888992355 0.8977372150350131 -0.39298334801053614 0.1815103701050874 0.8630781935930942
P 4.747079967013603 2.4044900460169467 1.7426711265533201 0.32215794055754193 2.041460280936375 0.590342512222422
P 1.2028040247395415 4.480044840082303 1.399087234239086 0.25202724517872727 0.4639311399740074 -0.7781613410440404
P 0.15889065203883782 8.227284994211725 13.64683472700491 -1.2567020034011067 1.4205018436003085 0.023940055755365224
P 6.109264701976219 -0.03204104755527999 4.051410697725139 -0.5890929560860371 -0.5848187541907155 0.40146978821499246
Ni 6.636692151934626 0.3431515976422079 0.07842142118201224 0.1833718487938584 1.6477451969661363 1.1828146691933372
Ni 1.2894120262730482 1.7925415343210216 8.474441087916688 1.3495057148974048 -0.40696063612623457 -0.7043634812262838
Ni 8.72116302361052 2.518172364725192 9.293196948369069 -3.3813184454416865 0.5176615396179277 -1.7018247524193593
Ni 7.026968527175438 0.13486475763752465 6.402721977396012 -1.6760692407218103 0.5346735007948921 -0.45586096137136334
Ni 4.8441413009180865 5.671221628815625 12.634653087568294 1.3767362684785838 1.3137972057522018 -1.1929345312361583
Ni 7.982786953737993 4.3527694626135816 6.826908329312976 0.8247474163336957 -1.086930261889186 2.1122077839635818
Ni 1.4916309024869856 3.8402766755702147 12.893735483205598 1.856464780496164 1.6762242782424355 -0.6199963305331129
Ni 5.062189242816773 4.678900389214314 5.852307444586527 0.45725347084351575 -1.2979910919578808 0.5183315691017589
Ni 3.009739853635571 6.2150837296674375 3.8242910894007665 0.47971797049461895 0.2743202522489727 0.1133609668223596
Ni 6.050196852393341 3.140406508272773 10.47049558745907 1.0652368360761526 1.000295141097445 0.8628046282167333
Ni 6.73442428791639 1.4287897912193972 2.4209498519882513 -0.6063933950376976 -0.5726906034686137 0.2517714204141793
Ni 7.04235970817085 5.250228108452612 9.495308682584552 -0.8342985503572407 0.30370204784519955 0.01996075939264304
Ni 6.168984720245343 8.313361944100718 1.9116610765334574 0.9978741903607783 -0.3384204251629914 -0.04787394086314336
Ni 1.4894694291268553 6.61431344930086 13.384479376232202 0.6673467947926184 -0.7662483916565385 -0.03221617972122839
Ni 0.6613894198002559 5.237194051423205 5.795336783164707 0.8165947053195742 1.0634892572574264 -1.1527489601562082
Ni 6.287437187058704 4.567006876045486 0.874029951620409 1.2671753921286046 0.12400122014502514 1.0682293430455732
Ni 1.711551500184751 2.3424874373459605 0.9785483686173423 0.51192335158257 -0.8647303844845365 -0.6275723431081579
Ni 8.092677377370492 7.408580375584693 10.052895207603642 -0.21845275165739153 1.3598765166087676 -1.748623715050769
Ni 7.738885181777401 1.8754228576474068 11.710518879122688 -0.6115697970323145 -0.07740871709746669 0.7948303170592892
Ni 8.817059770575277 0.5877129916454613 1.8266005781254582 1.345523076100573 -0.486612126511291 -1.3997232162920603
Ni 5.9140799308782235 2.9226846507172093 13.03376355349909 -0.5378899508496607 -1.1206554220557734 -0.868184404471408
Ni 0.8966555466853962 4.356393657170007 3.4991561175508883 1.5974690744194036 1.0513996730827442 1.7096128810052105
Ni 8.066441562792358 8.114767262443205 3.534799931262903 0.1772531374906302 0.7986967419932309 0.23581335442302612
Ni 3.8167333859967236 4.0910169020408755 0.2693820025322352 -0.45693979625783887 -1.263845042203791 1.8758583545314276
P 2.376744926764926 5.796410066488358 11.541692902983662 0.5542300827705811 -0.5856268519143075 0.2115303135059454
P 4.3705923011391405 4.170180863855657 9.201618489776815 -0.05356687748286258 -0.40712210140476335 1.5631391907892822
P 0.22801494276363335 1.172301163614251 10.73550992313256 0.6006559783332881 -0.5146363796383588 0.31350566419918263
P 9.177075518774261 6.278763343531629 4.240745515707506 -0.20402654892973252 1.8269708848021051 -1.2372060994600242
P 7.7424348427696845 2.3506302292285213 0.5906347073598447 0.1431425689601664 -0.12204949573529303 -0.5348012846220079
P 6.967192608733207 4.795806284571719 11.996165037020353 -0.4350941611376571 -0.5041748179854026 -0.014142867159285321
P 9.066458392891375 4.865094549137627 9.572638187051878 1.7295831534795503 -0.3100981811795304 -1.0827758734011805
P 2.787024247282464 1.5970586289664566 6.963199473034276 -1.4995524671765723 -0.5852987791509274 -0.46732113949216286
Ni 4.867358506148453 6.816401891777549 7.1568702811106295 -0.34713980731386024 0.4726368952781215 1.3201491161121588
Ni 3.678827658942188 7.984622342755001 12.319077045319684 -0.46174544517659827 -2.153682249058284 0.09596565416404762
Ni 4.273866368273298 1.8973916256783887 9.926394979202001 2.987922435373764 -0.5936602637417453 -2.7465668109762698
Ni 4.776176007115705 6.155018993664155 1.3253455892156667 -0.21291485255829784 1.0259390669177946 0.7286858600217322
Ni 8.245806584901121 5.985212901156658 2.333584403109147 -1.370061941782202 1.1342563006686597 -0.3143399871750199
Ni 1.2090368940409526 8.55883823760382 11.485704221269419 -0.6420777358131845 0.6567816176822624 -0.42800974348705
Ni 1.2767599537598704 6.773526459004614 2.2289560491051037 0.09348171139992932 0.3033945439071098 0.06824350565843085
Ni 1.5928008991148201 6.874780305892108 9.841142556866334 -0.04894557666076731 -1.3034315462471617 0.22000261264301466
Ni 8.907170849623478 1.2302882765170637 4.264472344182697 -0.16021366550984023 -1.272038376647861 0.059841397637664676
Ni 2.10884334715047 9.291195722171844 -0.04943624975657197 -0.67460424768598 0.7344937249527609 0.5242286513124843
Ni 1.280486631966992 2.831269234296516 5.7736419259819485 0.08964845369676819 1.6629782118658067 -0.23113497511075032
Ni 8.749262177292218 4.607981702932788 -0.019139287602224907 0.4649166438157283 -4.303110093715588 0.3796025558282559
Ni 2.4370612135471896 1.8255505865406016 10.791007614993015 -4.555760831410929 -2.2145407751065536 2.6301554873633606
Ni 1.6839274979744616 2.217736884362564 3.150948349251168 -0.005696793274461156 -0.9280746530691372 1.2837644068355374
Ni 4.950155979215179 0.5866834967907439 12.171822945982584 0.1481518492492997 1.4693474043481016 -1.493941805858014
Ni 7.813064711490157 7.472902841439613 5.932063948236241 3.2416622923682232 0.8737770680678371 -1.9536702206045837
Ni 3.7960782720337525 3.4449413346632345 7.233967799859561 -1.5431036122946458 -0.422801202702917 0.3454814457748308
Ni 7.78322333574663 8.813929360881295 12.06411262910125 2.2387194292352866 -1.1536856130378648 -0.7177489013942543
Ni 4.246167832498867 0.614375510878313 0.7754965798241131 -0.0697501721109444 -0.7472075729750034 -0.3367263252900201
Ni 0.5107971484591262 8.849780005233805 6.61259172396917 -2.539277275024549 0.5482113873803268 -2.5918720184021296
Ni 8.445444736456626 1.8430566574185554 6.652531465984444 1.503672917102849 0.5627229507329405 0.9865281692203397
Ni 7.28449130798306 5.0452421736698865 4.8632395950600324 0.13656645840454545 0.8354244364315677 -1.9286338464612462
Ni 4.205360706130885 7.928778069821284 2.9691684396641893 -0.43391556744852366 0.38181190477474886 -0.2511646400681158
Ni 1.4887986270495732 8.616545849641097 8.36775374420321 0.6759844158629583 0.26771328845541636 2.5291034198153413
P 8.36065349054909 3.2021296160782247 4.5286276805294445 -0.06054947944828282 0.15904175668892612 0.44673277381785
P 6.535643272348522 1.5048606101222675 8.975833963920143 -0.07776584332656929 0.10356583510880873 -0.1199152230011096
P 3.115754531932663 2.1504796594195366 12.834364841018392 0.15703783888501988 -0.8288938344019015 1.1337065988127766
P 3.0743790871380954 4.5011844222122 4.944291119386721 -0.8637698203434802 -1.939968554747775 0.9794429802387842
P 3.504027817637148 9.200311357395666 10.54635212236503 0.0454146806893734 -0.7761664221011988 -1.03606792782168
P 5.919874915490298 5.615573006487781 3.216714902911347 -0.2628983835652763 0.053892636253397505 -2.1034920013571385
P 6.797293349270531 6.144258210341091 6.833112316858283 -1.6934244441708062 -3.287143050408842 2.2813897144103032
P 6.236679829877708 7.497088983003832 13.156581823832093 -1.2865095736808423 0.7114419853396199 1.172255148509936
