# total energy = -340870.01598079095 ev
CRYSTAL
PRIMVEC
9.27654363769621 0.00000000000000 0.00000000000000
0.00000000000000 9.27654363769621 0.00000000000000
0.00000000000000 0.00000000000000 13.57715930116947
PRIMCOORD
 96 1
Ni 7.894941636757943 0.4138303236444062 7.854427259942569 1.7208622286667847 -1.6088899146618354 -0.5877608675381748
Ni 3.7142724253823856 7.968337650258708 7.88947033130259 0.45878456277606144 -1.3876308039039003 -0.6321746177668597
Ni 7.796406189917053 2.5106316079231084 5.998850434241957 0.4328614151523965 0.4425637300418249 1.8143349412056495
Ni 8.190585083455288 5.499802997500725 1.1825533783933093 -0.7376538678482973 0.13209531000706928 -1.409862104498275
Ni 2.2916587946413127 5.839315219203773 3.9969528299581465 2.2862408718550173 0.07805534954253009 -2.938848303554932
Ni 0.07956027676811349 0.3539103451300617 12.2795899838848 1.4016569429796633 -0.002898918814349846 -0.15503829195648783
Ni 2.2372518660288265 8.863357136429189 0.7148374678905556 0.289986755141636 1.5973927126555134 0.838198399632279
Ni 8.354965437251238 2.6723959764046987 8.693007326782917 -0.2366656751209924 1.2618228695674396 -0.16114569040580634
Ni 2.990581424215145 1.7714209491993989 4.490197788635079 0.9708020167343345 -0.8198283817655235 -0.5582001231619225
Ni 5.016680603274253 4.244612426878689 5.0434397211388005 -1.1999608419553205 2.203030203363793 -0.7399498629713257
Ni 5.2608206795271775 6.488469191999091 0.7514389985867915 2.1853901216845264 -1.1849448281624624 -1.8249212013619278
Ni 9.131931628703477 4.5430944959384245 10.203004143567279 -0.608519697352081 -0.163924281592208 0.8030416492254879
Ni 5.048870209802015 7.577099421063211 2.612802532227466 1.148731354356383 2.6823946471737354 1.1566423816733435
Ni 9.166635178565251 5.231989181807211 3.344624423919658 -0.3883113964561635 0.07030141662872409 0.12608972724293765
Ni 4.114573837741464 4.057189138611568 9.317285320078279 0.11666894814967005 0.31401551395606564 -0.16380781061900176
Ni 7.242355342805486 3.2815309398165105 3.94382513671747 0.6922864954570916 0.510435968403766 -1.9194814905380169
Ni 3.197003073914214 7.007501086764172 1.757576635429361 -3.179279102145312 -0.6787768910064309 -0.6903831077867917
Ni 1.412966025326412 7.705505338514879 6.08870396386402 1.0989640531252687 2.3879660542106618 1.4584055606246173
Ni 8.318981724363288 7.96616693904041 -0.04779089766850895 -1.951539547414826 -0.8052057467563424 0.7341093450301487
Ni 1.2326578460526032 4.49855780978863 1.4954428474237267 1.0101221544901957 0.1620643455653338 -0.6335889816158831
Ni 6.088742925347426 4.211476612896797 7.063476678910908 0.3931460988406455 -0.7087757513613664 1.501921481629381
Ni 0.6661699368454259 2.38425725353472 10.89685157610038 -0.027599249774507305 -0.5083338344590987 -0.18748329985907067
Ni 0.4987357448739885 2.8439563749996375 4.259290701924475 0.3875819744893067 0.808476447087814 0.18602599858725383
Ni 0.7632007283033766 5.765121422947566 5.4433543016269255 -1.7911173654386057 -2.488981612093791 2.7927602788131964
P 5.128388742123623 6.899800414779353 4.518451357684533 0.19000786605313727 -1.666738707349504 1.8200559028498267
P 2.143846347836308 8.404084735972997 12.233183146531548 -0.23066137790844146 1.4383676681371358 -1.9766707952648155
P 0.8777094556860987 7.444732419465332 3.9639060707954665 -0.4772240004281717 -0.08887480875553727 0.45652044933223307
P 1.129437744659401 6.173270791249723 10.045739826419009 -0.08161529897964653 0.06942261356819657 -1.143423054769592
P 0.543430132266138 2.134606910343037 -0.020062380990660413 2.3345331312025017 -3.1203550741155937 1.6922201394500598
P 7.929877100211416 5.4640697512918095 12.433433111728334 -1.095215384716114 1.4711569467530148 -0.3516878316958588
P 0.44185661737399573 0.9668570403350313 8.776588057576717 1.063052169720008 -0.38385156091259703 1.4108339814932411
P 7.809170714004142 7.3924312662654685 7.038454130020998 -0.132378645575443 0.5268596611774281 0.1508239967648241
Ni 7.210351267151083 7.492024239084505 4.796973087733956 0.030746794264553498 0.23043049284455797 2.0179848235222533
Ni 3.494807955286189 6.110450037530413 6.090170585417922 -0.287625196887995 -0.3378164730304053 -0.4852155032740805
Ni 8.415494884684566 0.5290607661244943 1.5086535732612445 0.5954785478974066 0.2893115834514824 -0.6335139054035733
Ni 0.5859872039971934 1.5563721138891435 6.591669812650591 1.4425305412655738 0.01881481871365792 0.8589430883787981
Ni 5.993890266342708 9.028628038417262 6.72866395423004 -0.26843371156120865 -1.318815742012716 -1.722104328604002
Ni 2.711784180818785 1.568199707065771 12.518263392954207 -0.7249737012774676 -0.13584269286464346 -0.42697281758210337
Ni 6.238828125351076 1.8874890635727024 1.5345991382461144 0.9184944655798697 0.14221645760147122 -0.4395969341040171
Ni 3.701934622304021 2.2011290049858565 7.332439858364881 -0.8957438021469153 0.6067610627897614 -1.0584699496659642
Ni 7.452589651952079 7.926945712412347 2.638721195235699 1.1053401318549414 -0.09996937600680203 -1.0365081006828922
Ni 3.2246750036756877 6.277474206271727 10.399601933521996 1.2053637581384467 -0.6002726268519404 0.32986919315887064
Ni 0.453400348314384 7.256437136093424 1.9406649948404524 -0.6591724865119423 0.7636353795137235 1.4271913398053422
Ni 3.9359261597842163 3.9978563653114043 12.122095608453565 0.9598041229619342 -0.3676847213447474 -0.07035232447131755
Ni 6.933604139905339 5.551751642041207 9.772119822043726 0.8224388228051771 -0.46222161348206847 -0.9408761757091797
Ni 6.097101091192242 4.060510141244691 13.463328904558871 1.0988252135545593 1.8666278370720948 1.0371660459818655
Ni 7.690078446395089 5.2185938527507005 5.460597540996899 0.11075849620250604 -0.4559249818400793 0.8634337771603
Ni 6.300582076548573 0.5051430535854367 4.232258853676089 -0.6834331588315197 0.3659721095290149 -0.9351279603714927
Ni 2.4032648915103354 0.8736305594353041 9.826482223246607 0.9929325300847869 1.8964189522915984 0.4513982976143193
Ni 5.906347523748329 6.475695391368334 11.624179910039821 0.6317282742580604 -0.0935372472282131 0.3966628537446523
Ni 8.515403259988314 3.1348873375136668 1.8337036633859687 0.10452125704354258 -0.7632731110782984 -0.4735131272354878
Ni 5.743507076201258 6.513571519164545 6.602762703568716 0.6160897963898552 0.1977090913521369 1.0720836837946568
Ni 1.2127411067975293 0.26203267367965344 4.4211302104097765 -0.4181133103089444 0.09325288321857488 -1.1990136475507027
Ni 7.695004291082767 0.7918578270023862 10.336943519316875 0.6154894438016948 1.3761158612857656 -0.19313021373220288
Ni 7.602934595178431 1.7544263211997273 13.071830932140672 -0.3193310126317081 -0.7507322982988103 -0.5217745333450369
Ni 6.1805899842037295 8.56746322305281 9.145167401208896 -1.1431145223902377 -0.9177681289368065 0.37479485002696744
P 6.355350790364109 4.159008481910911 2.1087504001773794 -0.5599289329275712 -2.229783560198237 -2.1766856519319933
P 0.3308906020180611 3.721164897327667 6.5731510485262765 -0.5162924271845432 1.2599953294403978 -0.2654229497593429
P 7.393711429291645 8.182199087979468 11.0956479069044 0.8742244400179008 -1.745439918006149 0.8867881356155243
P 5.820465282470512 2.384971547397152 5.210085406898464 -1.379733660544011 -1.9316649199780864 1.2862820310510688
P 2.751997997619318 3.0447749923232683 10.615519053319572 -1.34151858292687 -1.1137373547797011 0.7264708546482844
P 4.489290542664355 0.4956837620072352 8.301876705493967 0.04697456897732555 1.1735833804030562 1.7977479833812455
P 6.317632363810252 8.76219642773027 1.064559453554541 -0.051115073508260354 0.22633472550862957 -1.029141633015492
P 6.20227854329938 3.537313078372704 9.177318046253253 0.7741257375220861 -0.5352165177825557 -1.0829239689432706
Ni 8.942894221838133 3.651191928440373 12.74105072099226 -1.0809578463558351 2.961436473268093 -1.025274693860918
Ni 4.51037612642159 0.6164161225367804 0.44997452073781263 -0.37594104781626864 0.14728101660857215 0.4597548971091308
Ni 1.5894615451526963 1.452549037157525 1.9441678177294677 -1.4245117360906498 1.8167438077574583 0.40084938102217416
Ni 2.4787759569673913 3.8225575196182846 5.29097872299166 -0.06492652547005592 0.7539214946600693 1.9391141771672797
Ni 3.9914833798115277 8.4959317948293 10.64613535804125 -0.1387603807320707 1.0288405568353056 -2.025457991970847
Ni 1.572735936919395 8.20586355087639 9.098095435674654 -0.4100397892721906 -0.3673941866875221 -0.1083416592308973
Ni 6.8907650612467775 3.1046365286125046 11.078608751495123 1.4096476744946238 0.6025241418902785 0.23283036053530226
Ni 4.826474351906748 2.7592708078549855 3.120329657535564 -0.778630310260659 -0.9448618998298051 0.46843442716099976
Ni 2.248819715982752 6.210274923941148 8.134619695506586 -1.313463476561867 -1.2016418292021693 -0.2850234975990898
Ni 8.522870877641008 7.613741768551586 9.408957979913625 0.016178666642391495 -0.19693853173469955 -1.6489142775735732
Ni 8.345419873816926 0.27196506898492007 5.350582371366928 -0.40877069275177985 -0.9426075565779896 0.30041823488760516
Ni 6.764724662430435 5.675046183931837 3.300376238277937 -0.6570179020627847 1.7964966274726482 0.9455005618550685
Ni 3.4690377169766435 2.9143375118083212 0.916934392931629 0.09396790700772849 0.5404456273919789 0.2647002126607054
Ni 8.863644709282894 5.6033477779223055 7.860822509147249 0.21359362379287733 -0.300089905013909 -0.3836088487741716
Ni 1.598302091268246 3.2416139724133513 8.561811024995931 -0.5010488707619113 -0.21630973717245972 0.13514798079046403
Ni 1.6975240023405647 5.001346476591142 12.11356860951399 -0.06437605228322461 0.02372356886918495 -0.2777387910122185
Ni 6.146146177564657 1.778758695240742 7.77512301577969 -0.794273930335187 2.1179701403686555 0.25517041879339925
Ni 4.0652690081463465 7.503879661892136 12.54651696200366 -1.154710197647637 -0.8190899609376023 2.753500047760993
Ni 3.3812445077032303 8.10344123223863 4.430240703946064 -0.621044312181653 1.4298498604741117 -0.2539015793833047
Ni 4.184509700454086 4.930585001492073 2.3823704045526606 1.1237893396990646 0.8932223212766424 -0.4292880959788413
Ni 1.2599772671546954 6.999699513539432 13.563486818887288 1.0800643880072882 -2.9432379479821957 -1.0640415302164707
Ni 0.14599331659172077 7.220722442971843 11.592789941576235 -0.5166276990367747 -0.2780110708369986 -0.15987582255444724
Ni 5.030001719981419 1.3692085688447249 10.484418299932367 -0.11671599933752157 1.0666067198404856 -0.30469757898924943
Ni 5.9351140856626206 9.076161048171802 12.222362058342892 -0.20155649012268514 0.6924831848489299 0.9982338876930421
P 2.5926826366660642 3.819180857723153 3.122556955670237 -0.8671533921037322 -1.7047833208270513 -0.3117115484132374
P 3.433721915232784 5.478606095219476 0.07297485841824071 -0.7863811578506714 -0.1748185599072086 0.28362430325871796
P 5.569748136757016 2.317484692212866 12.559483714742711 -2.317832273508053 -2.57829659371054 0.06456991346158557
P 3.331206831158345 0.4854406024890925 2.6441655987144146 1.133807643167015 -0.867526716282751 0.046242318796991325
P 3.075276267903465 4.336728505501363 7.445782524208543 0.8627663187796302 0.6805620079313118 -1.5872738790539567
P 5.098778014735548 6.430407305181435 9.120959332853033 -1.0879628169187585 0.6357502509332599 0.06461490776690808
P 2.4711599146160106 0.459141601190474 6.258921118935841 0.6576717335966995 -0.3575458331385326 0.22198184785657252
P 8.564290645118373 1.3524736840677556 3.426345207708036 -0.6500592113567644 -0.4805929169004046 0.3264321424528636
