# total energy = -340862.0846022717 ev
CRYSTAL
PRIMVEC
9.32446409977550 0.00000000000000 0.00000000000000
0.00000000000000 9.32446409977550 0.00000000000000
0.00000000000000 0.00000000000000 13.64729574130046
PRIMCOORD
 96 1
Ni 6.526583868553217 2.958260748704116 7.175379130039949 1.0287163725526154 0.532740031217605 1.1535115493538457
Ni 4.961705724735667 0.5580132139944435 2.5038964098537044 -0.26669616004481167 1.1144235822134485 -0.8072628863956871
Ni 7.945459557576219 3.5874569196471864 2.9458368330847358 -1.0298268320079749 -0.07329109538466733 1.8249214584722444
Ni 0.9706114144162089 4.667658757565779 8.660068749732952 -0.8738403172056047 -0.7593390661312148 -0.3514494904328076
Ni 0.9785838309987442 6.510322003617613 10.304445407350949 -0.07894186591254146 -0.2027188858619025 0.8017972352954256
Ni 3.093819803998736 5.546946373140641 9.677364957252998 0.6895510988037995 -4.301284096250444 0.09650070073191122
Ni 6.318872112070692 7.062982975368343 13.060161084985852 0.9524230000065145 -1.1867170895715369 0.9417459799086427
Ni 1.8000970686257822 5.807014994080402 6.107478124818059 1.9308719917631456 -0.25065016232554255 0.06638536940376955
Ni 8.065260268982552 8.258024909930803 8.264201434777904 -2.0087931297206563 -1.5023336294661354 -1.0316767407325202
Ni 5.1384322878804545 9.097823421146556 12.837560024644857 0.39821502872312065 1.231765388060427 -0.7090513736202563
Ni 8.404512236844992 7.7206467344125596 5.5759435907878565 -2.9847967452605886 1.3807045090977126 -2.239814719181994
Ni 4.514112811525299 5.737743552218816 7.3018076703432016 -0.0001442388873481387 1.987046482072184 -0.19605124403373977
Ni 3.731613130601569 3.9307930026712055 11.746090504622947 1.8005000922050862 0.03067223227287621 0.4177029622444032
Ni 5.061440189959994 8.273083919031148 6.814503730534352 0.399555344801099 -0.6340165560716049 1.7967100290350346
Ni 3.7549149657357868 6.305566102172122 1.5542491874872202 0.053232376961579286 -2.053793605690747 -0.48325169467949036
Ni 2.192022932715991 0.7591316420962541 10.160561470740669 -0.8742282966726428 -0.36910859827546755 -1.8510963170953991
Ni 8.815907581431498 4.570311355084295 6.421243535668751 -0.6194448289050171 -0.058795729981969705 -0.2506537618699683
Ni 0.3229061827522822 1.9103215556692337 2.8183574257068034 -0.13135843184104473 -0.21913229422291938 -2.0321426030798744
Ni 6.001038437646948 4.4277403029825795 5.327016771689583 2.6168235461411453 0.1532495754871812 1.9112922698590051
Ni -0.31940391413427016 4.9118198431958255 1.3672134971217877 1.065219609684972 2.300699984703141 0.6290463565505231
Ni 2.1564874010247133 4.361984183988381 1.7259871624780239 0.4601629311808268 -0.8915526468837033 0.3917368771979447
Ni 8.220419347267217 3.0507780789168844 0.6617273603853497 0.20618653269552875 -3.0856451814382337 -1.7243414454646369
Ni 2.531843692872623 3.01220277201402 10.06857843230589 -0.9801261223487379 -0.054267245983996855 -1.7758804938841932
Ni 2.324765999931165 5.822269816921369 3.6307401483424737 -0.699383511513189 0.3196104915453399 0.018829988222309507
P 1.2950095113827669 8.241697773748324 12.657702306542857 0.3661924530699371 -1.876103123552382 -0.6175697233694912
P 1.7402992820248468 4.657942666245309 11.351479194947043 -1.0871732311379276 1.4150534188912274 0.19573268435205646
P 6.390073717946997 0.662912499739315 8.508760675013885 -0.2899934400098554 -0.20116439689058904 -0.549419291645499
P 0.32733250573676126 9.386658013030319 6.402860355209723 -0.5038488021045516 0.026025991750116464 0.7346829581454315
P 5.98156895715065 6.992648544629086 5.033354904876254 0.20949579957441986 -0.4315915473010374 -0.38188929497990365
P 4.485113728985317 3.578626652391442 2.4036845320808102 -1.8660814776503216 -0.2205320027839234 0.430367187975633
P 4.3164808004529736 1.662384062184302 11.665763045987195 0.9706760326794316 1.4325724016115973 -0.4370142609785054
P 0.14498422334330596 5.796161318171547 4.552710497141377 -0.5132132740385872 0.433126495888325 0.16747780327142126
Ni 7.213992667244554 3.238171828693743 9.890427091086469 -0.19827524826825207 0.37042603153531045 -0.8443199391489845
Ni 4.267424796194823 7.726539795558948 3.2490665322434906 1.9453149066613529 0.35833207648525384 -0.9498490686317512
Ni 7.248810215220212 0.8062313738409358 5.9697501992344355 -0.4717084699265812 -1.034726069081805 -0.0642302707339797
Ni 1.1871161402991208 1.6901336665698288 4.909259345425575 0.5565561598005964 -2.5386116164160923 0.622258129984096
Ni 4.148845589551428 3.5797455880521487 7.687685687187291 -0.7575351801532566 -1.6159478499498816 1.3911827829212169
Ni 6.005337015476829 2.666246514651179 1.359307284232511 0.268618316768189 -2.466764452566803 -0.6339247676887471
Ni 6.0588314645224495 6.240817025272559 9.449005108044897 -0.5258209355002686 1.8593107345853914 -5.0655270274411786
Ni 3.18662619259052 8.756883725329217 0.5793615739543438 -0.3627327766561108 -0.7555209779367053 0.41516271232105273
Ni 7.196723760214314 1.2335892680738068 3.3148189214521535 -1.4284817764819913 1.38987357719149 0.34945714259312716
Ni 0.7912450955585371 0.5010565915253195 0.30814462404840876 -1.1311558073664647 0.5021318194134449 0.5688282922997301
Ni 4.7702371842610685 -0.05485115853422755 10.273560918222673 -0.38701581757319153 -1.2141150219685155 0.8708120719022423
Ni 8.877122686535994 2.1636765626447536 6.67703502504546 1.5036240661427847 0.8049681768242395 0.69393894345885
Ni 8.432830633524711 8.248140978261226 12.353572796623618 -0.12425395958577955 0.25600756998271396 0.75901330736068
Ni 6.65238953467201 8.221146655446677 2.8776824619910895 1.1453195004613566 -0.39103599447617815 -0.10081244073338767
Ni 0.9118505081941952 3.8595540989395434 3.898418464221424 -0.8144758592043587 0.7564668867897424 -0.007293962558251954
Ni 9.394770296570444 6.7444872640120135 7.162060065892003 0.9010042792149062 -1.3362419079089631 2.5457757382646995
Ni 0.082256690204087 6.118647900051064 12.805025105417041 -0.378978806201328 -1.2334342911224179 -1.1148331589470413
Ni 1.1864261299750183 8.346849752463237 8.631136803332613 2.021284834429764 0.7938540691889489 -3.849503475596041
Ni 6.900485544042208 6.4651915986357755 7.005852917871809 -1.0152473915319031 -0.11799100939520325 -0.8480871195009008
Ni 1.1374074235722247 7.834880740906877 4.712861893365564 0.11931744151611064 1.150865112869934 -1.5520322822428432
Ni 5.05739337265377 2.3403751523980243 4.596928037113355 2.7878397015831275 -0.8716906178524536 0.07002913680394392
Ni 3.333551769305152 9.458176650677157 8.132614601078792 0.46296697628852523 -0.10148401287911556 -1.1176109788024944
Ni 2.5348927925480487 0.6688512507585159 2.4663934162923513 -0.714611384206537 0.38495662105131767 0.7888010801460738
Ni 8.84117687843579 3.3944405181752764 11.816755953828496 -1.2916327538400205 0.7949431884880697 -0.4894519099529312
P 2.3341557350172626 7.686248787309666 2.5161245117324613 -1.3730158822042033 1.2650467758213761 1.14389073843463
P 7.499563696784589 2.9060344267406304 5.150107449053547 0.18259614697009843 -0.4351273283684377 -0.8042940335753503
P 3.8201395902911495 4.285682096392021 5.7505199325713185 -1.147068364831663 -0.48259246382893656 -0.6982658529689781
P 7.397787173979474 1.2140358674029568 12.739095551395433 0.3742063245133491 0.18849142940861086 -0.06794165814729589
P 8.366785456151497 7.019027452830247 1.475272843661772 -1.059657542216162 0.7503147511454175 -0.1560487354988732
P 3.223392553508575 0.42518715905109994 5.675500891199237 0.44642012767343764 0.28246293596076516 0.2678850381465903
P 7.354773422289139 4.825848286598192 13.298566179087947 -0.013145279132706392 0.15857458724452045 -0.2566179498732032
P 2.7390053059886337 6.965905982338195 7.819873016357648 -0.5912940775024139 -1.019617495575141 -3.001940861140043
Ni 3.3317801211757 7.607988562307071 5.148415058866727 0.49852096213373503 0.1341719900304399 2.505568827028511
Ni 3.7421311258122123 7.073472997187468 12.03557687652907 -1.4600132714313694 0.19084398880118747 0.8649846665871878
Ni 4.608084758096985 5.4012423011889465 4.097873407974317 -1.109511746734128 1.4406245824921124 -2.6449650415723673
Ni 2.5338857504534125 5.531691550299673 13.397481956387189 -0.6317177327350991 -0.7597473573132271 -1.6809227121593695
Ni 3.1037223845959905 2.8180860838090815 4.006013452462215 -1.8552108534844047 0.9514827475804323 -1.0743022887125304
Ni -0.1402045031793204 0.9597484140435145 11.332741684862125 0.4606642962972776 1.049283912291322 0.19941270430680494
Ni 1.5817647478303827 2.7819910842874505 12.442635412983954 0.8848315261097859 -0.8243949180902834 1.1705764752559324
Ni 6.931825067005836 0.24884103403095237 1.0083876147680517 0.3566341199575407 0.21609325028627943 -1.1986207829876583
Ni 4.881039788062552 1.4445925602915775 6.8248352364682106 -0.6134173917640146 -1.2938071357835201 -0.11781463171833904
Ni 7.176545620466236 8.987682854277658 10.466479412824272 -0.9066334524762256 0.03450703263793412 0.26698386648855954
Ni 6.212228219141502 3.134847444891316 12.201227841525629 0.22429301248825242 -1.3720375774513338 0.13454197177534893
Ni 1.0889108871444273 7.189665141088023 0.929223849219435 0.20080264267579612 -0.07637616206789427 0.1139147824433006
Ni 3.2701454151984377 7.611736996770438 9.583594419100239 1.1851016654553008 3.389712325932336 3.007055813769105
Ni 8.627040566368041 0.9269635991848074 8.894883925256947 -1.1966600597168615 -0.1345949365004714 -0.9375784787945143
Ni 7.378084581887196 6.051530409336339 3.2088473223657714 1.3084588242584239 -0.44689115377258515 2.0829856538736706
Ni 5.024692477969617 4.699977349232526 13.56779981553528 -0.6430102749297829 0.6487361216699665 -0.47477579599799524
Ni 6.804070587944646 5.46923629150456 11.242519105200188 1.457606975982722 -1.9949829633104417 2.586702044165416
Ni 4.720155488980603 1.8753548162721485 9.316599586420702 0.28388398467800785 2.433393076195209 -0.33422772723788247
Ni 2.6380027136821735 0.5429840431783843 12.24099574735353 0.07216469508970798 -0.30190793205925426 1.4249989601397137
Ni 5.527775275487199 -0.23808340009964113 4.767519103051935 -0.9128948600049053 1.2741873046700636 -0.4519567412209507
Ni 1.8148017481002363 3.4758990342747254 6.118342057637137 0.34314045634648005 0.2678053339485904 0.9305745366728554
Ni 3.5312117537689947 2.1289522593074883 0.5459287088588108 1.0339531954715224 0.2397898225722709 -0.32731454505781693
Ni 1.6913085490135709 1.7876022870812236 7.8333291501240305 -0.04100883831219389 0.04641329715721684 0.1402899300027197
Ni 6.100343977534669 4.844133560186908 1.8633337174906226 0.48307043190661975 1.7378788178294393 0.4537894235543153
P 5.49488789152626 7.359640792413213 11.053176542480932 0.9641091780951911 1.3480689824508783 0.7084417650607153
P 5.164484839847244 4.3556528730415485 9.55138678855318 -0.8287714498914243 -1.6957163255287764 0.6395130604098018
P 1.4732373132056695 2.3932821602217733 1.0161390415575977 -0.42156167386886106 0.6908585047613134 0.24389201766610258
P 9.317871443288373 8.419021102578823 10.121120853593524 -2.99876452029459 0.31497633520743823 3.745458901078601
P 0.29730773217446416 2.5069194010303804 9.376361007612665 1.9796946696928033 3.807997643042771 1.6171418702579825
P 7.9070707399501385 5.455352164847956 8.53706601744423 2.0153859524468256 -1.1452120283492147 0.10768834191761455
P 8.840328352226422 0.1016049526704741 3.5873412962955795 1.2994519927741233 -1.9259622131663539 0.745954931514825
P 5.104687053246309 7.838871611430064 1.0463008847383313 1.29851379723057 1.3170275397640416 0.5476822543497343
