# total energy = -340875.6889888743 ev
CRYSTAL
PRIMVEC
9.19170181823694 0.00000000000000 0.00000000000000
0.00000000000000 9.19170181823694 0.00000000000000
0.00000000000000 0.00000000000000 13.45298472244780
PRIMCOORD
 96 1
Ni 4.228899755197851 7.509408916101781 0.7931785994664224 -0.27483370155028153 -0.7471438096166036 0.29840069023694415
Ni 0.20022651578075215 5.0285594235643085 7.38165253438505 0.9055960123506469 0.8721346473684077 0.127847847584625
Ni 6.312585007057995 2.431094810994591 0.5650129870631424 0.3265419285578505 0.2237217133658147 0.7054415447818109
Ni 3.251444999987877 5.0660799500852844 13.107310618250882 0.30982564424443415 1.8791624792039958 -0.5163857582292978
Ni 6.583050830889383 6.184728435792249 8.086373872943273 0.5903327420304091 -2.3697999248245964 0.020176989168507187
Ni 6.140286557857678 1.6040162963243438 4.179452076493235 0.4315941184041986 1.3579726147178355 -0.3388217743664681
Ni 6.466500052769349 8.47141242067928 4.867949142302274 -1.2485999431192625 -1.0410116449802007 -0.8456291448787114
Ni 3.6679026226268734 4.32122120751943 10.73866974392935 -0.47965137892274173 0.7482460415418468 -1.6036037265622316
Ni 4.7967538972702135 4.276255402585424 4.577633838553679 -0.515968211075905 -0.45081517141733973 -0.8979513513211954
Ni 8.183500746936868 1.4471323309495228 12.33644027891832 -0.9098010515709299 1.6998203203948208 2.2139669048809547
Ni 7.977330876808133 7.79936114763147 9.172931370349728 0.087692615521978 0.6667153318562066 -0.46277542910300945
Ni 3.418200853036272 8.843216756243583 6.669626550450485 -0.152105434580409 0.6752786480451854 0.3050557336596166
Ni 6.074354481244508 4.821093523489602 10.14207039299147 -0.08338138974113382 0.052190051739993984 0.8950778864281425
Ni 6.545190211403861 4.8045116935425565 0.9807306777117081 -0.2837492588723565 -0.4455438957160714 1.8707876248767394
Ni 8.280868443516166 2.8342704246128108 10.484664419581982 0.10463335714137463 -2.191046805749672 -0.24165695768799672
Ni 4.24515987558384 0.24963650850821584 4.526741224334829 -0.9878749130562212 -0.8836097378875427 -1.1430304473168635
Ni 1.2972984008127197 2.7691472177531544 6.190067895335619 -0.8308198477800208 -0.9465061203014474 0.8551633096213919
Ni 9.209257894814096 2.0325610067573345 8.222894542273368 -0.31952050293469486 -0.16914002146519258 -0.028264651272648093
Ni 1.75726034780835 1.1598916514344562 4.603194122764735 2.4494359885906847 -2.0011505255737343 0.13001657310116962
Ni 2.926444809706478 4.310604792004553 6.466984455451283 1.1252682382374364 2.8000784097411646 -0.2965222422673087
Ni 4.813740162094017 4.208135700957066 8.108517601615905 -0.21272973313068522 1.1678336224034727 0.06802650455161832
Ni 0.9329301519597033 0.3934728532567446 6.857161164462457 0.7925713458217833 -1.4256365937237125 -0.5444416359252494
Ni 8.929140784151002 1.8431108421018132 4.422426439577051 -1.9310532545360164 -0.23134683401124026 1.9841311081976023
Ni 7.889164073675061 2.484305572393398 2.541026644688423 -0.9716273408491073 0.3630217686514393 -2.2157553642399455
P 2.3945577965602745 5.426422233574217 1.9775753277516679 -0.36822619567051423 -0.40235193370962963 -1.283709385227886
P 8.388613571364987 3.3184892725121293 6.4690020339841965 -0.0012526414601784878 -0.47210287715152244 -0.5504413051521101
P 2.29949721711884 1.7277549852085623 1.3181681596235661 -0.8436537663198955 -1.2739731317767284 -0.5028730684548436
P 2.087481424680615 8.147184333344418 4.599050503618321 0.2827856094075065 0.4402883037440869 -0.183155104797362
P 2.3391134516375582 0.2806548252151453 8.535851764929149 -0.30202080348803473 0.5999705222304894 1.2272410178275124
P 8.092797034122317 8.10254023797147 13.059861215505517 2.4839725889149737 -0.2286338059554514 0.09529382490800363
P 8.450703516648963 4.83798787129596 10.321291112775556 0.6194219460868816 2.6532316524565336 -0.23859143138879554
P 2.680686280164259 7.349896124028038 12.53005612280444 -0.8058960879551477 -0.679269000151501 -0.27892895466557766
Ni 7.382076271835469 4.191213778045475 12.20565063562591 0.036207560268808614 -0.08670531190804422 0.8060197580172054
Ni 1.621462146235371 3.7300109513143394 0.6158228759662907 -1.1340824940949565 -0.48420557395232744 0.2986626856490792
Ni 1.162787037483968 7.146869815895917 2.6055606634662576 -0.406037867201649 -0.21594772584735067 1.2538689048276856
Ni 0.8582328685629947 6.509884885003304 10.844208863359494 -0.31258366660554554 -0.7588140468656802 0.865617157964864
Ni 6.462464895703522 6.932096512934347 13.44584099350016 -1.2118879324102096 -0.24928079278184165 1.2931718161923664
Ni 7.716332505773563 3.863189517890141 4.454592799831866 -0.3722360881608557 0.9051841216242087 -0.09900726920384885
Ni 6.180086626411286 3.4276039639208773 6.454580253947105 0.6336501738711217 -0.3960509311922663 -0.8193884660146274
Ni 0.9776477809466088 8.463397256758093 0.778791747895959 -0.6205768856269313 -0.16210599743654663 -2.235078232938273
Ni 0.8507370357903695 4.851242305211503 4.9919185429002795 -1.7195105997348967 -0.7761196280236634 -0.02782756373522949
Ni 2.7687979330868644 9.052171712000897 2.4169359136273907 0.18266299565229188 -0.9014408525316928 0.38712380390596557
Ni 3.0732270948641127 0.24419042522461018 13.249844498862219 2.1285836542184438 -0.7799677981251599 0.9014539651578153
Ni 1.0965975932219523 3.8327833685193937 9.364084757338501 0.7441304767115765 1.6766400256236158 0.22759225206481448
Ni 1.901331080951363 6.86814065219624 6.440105162039894 -0.08505852033324061 -0.4266786833804523 -0.3684701933605202
Ni 4.057768652119083 2.3500148099065137 5.876720944525874 0.04009866779309868 -1.3568575272767858 0.19891673850699293
Ni 0.9225711040936718 6.108271860681646 0.32402862740700755 1.1142317779176167 0.7465938506504044 -1.414352793279777
Ni 8.69233497210791 8.36628692782764 4.74664349686982 2.6989520373117837 -0.8129015727387032 -0.9025963062923744
Ni 3.410544165483118 2.10656339750216 3.1319620690113537 2.559186612353967 -0.14917694807970439 0.8693259742750189
Ni 4.885582502928889 3.2635504711853596 12.444548478986045 -1.0840282577510427 -2.678898718205335 -1.4660257961740364
Ni 1.398122177247944 1.6802063120843562 10.401295684759528 0.05345632004692728 0.31882219131608963 -1.204456415832829
Ni 0.6855768621648167 4.050176306478141 11.947945651326386 0.2113253965839909 -0.054142033260042244 -0.2462085816144211
Ni 3.8307887692408418 3.2594693556108094 1.137212046550121 1.393614018070529 0.3827447010016634 0.13013741494975006
Ni 2.1493231940174913 8.66606508852218 10.751759646383666 0.5622928051740574 -0.6786771322037731 0.02311833118501825
Ni 7.138091740729936 0.3060606888368939 0.823050710965815 0.592589913495702 -0.34380637206525305 0.5634739699663521
Ni 1.2469094918494685 2.9733592554103145 2.8626470462383757 -0.9127092263566604 1.23493041605197 0.5556251633458946
P 5.423490080717728 5.142040173301685 12.69959062729019 0.36777419573476017 2.9292192651056004 -0.9367904356755802
P 2.6418421485920773 3.540808962605919 4.512037259054181 -0.7618960282251137 0.24220923064704097 -0.5116549284125317
P 5.5120337436223235 7.011595541322373 9.907383268200478 0.6886028759579172 0.03969551881740905 0.144261513055958
P 2.5913153641026585 5.28615686495342 8.290254090167457 -1.3218820396428654 0.14208970221561978 1.1633660735504223
P 2.631198157971967 2.9396165183063205 11.932945713249564 -1.6475677908480075 -0.4690337513078955 0.8862080947423383
P 5.514221368637511 5.595181877602909 6.064618630756752 2.22224354306745 -0.6646594777684424 1.1147123170984607
P 7.9248278764436515 0.8735609503920931 9.59452072007267 -0.0336984206937097 -0.9020882563077045 -0.09025600537378003
P 8.661772563807506 6.0236070959132215 3.633907113724906 0.11390269825844254 -0.4491732649385425 -0.7617409907044881
Ni 6.346235827144545 6.004074729706197 3.61421113522683 1.70994763863681 0.4403525813231191 0.9872156822056675
Ni 5.0454721547741554 8.15280965481204 11.917245367499817 -0.9813024020450261 -0.3230614262084178 -1.4062882711040878
Ni 4.2649588011414545 6.644120497279721 7.474249737758963 -0.7504749308723656 -0.37250759665468747 1.059547499000859
Ni 3.3069169200158264 6.543517321686365 9.88704203223994 0.21654936398709157 0.44860273714705323 0.606550232330536
Ni 8.740701706687373 4.882742267089844 1.6227793170953553 0.6555009511976259 1.0531266830761798 2.1713336435914607
Ni 6.245788910480844 1.5461637255445733 11.093828826804568 -0.1779843592296999 0.27178180209783515 -1.7909913813837024
Ni 4.361434902651539 7.059787633568693 5.170385543141318 -0.2439303271032057 0.6259440634761156 -1.4605532030952395
Ni 7.529354908887306 6.6524941375689455 11.372197675795862 -0.168453022700497 -0.14710721003486923 -0.927610311838209
Ni 3.84766473364371 1.274824690047461 11.087936026816182 -0.34654819647644836 0.3817268012601103 -0.3599590705657155
Ni 1.2831064133192391 7.413548658608577 8.760394927674927 -0.0807848326585512 0.3216177517833557 -0.9146812624813666
Ni 7.890487678726266 6.137262487983743 5.557589655808327 -1.274873789214127 0.193560359291086 1.705854956624675
Ni 3.003241477781626 2.7165890671782056 8.17239257537866 -0.4649932626899347 -1.6202426206704932 1.1252687524580685
Ni 1.1385393282820242 0.9403938137762227 12.558670809505188 0.26227694793119344 1.2825091942721978 0.4175862341608808
Ni 4.416327745469586 8.665835295978567 8.943894384621071 -0.24173923298915787 0.7223740588710914 0.9131442570115499
Ni 6.157346356295436 1.529416444966127 8.343622029666095 0.12135092700637164 0.04621223689000428 0.1980459058662654
Ni 2.5201715926003674 5.968815361814364 4.09453729743736 1.9002488675606501 -0.3073486434588513 -0.1667956896027321
Ni 7.967477372538048 7.491034704314561 2.098194353063809 -0.043556030214079826 -0.3144544012656971 -0.47419189847006715
Ni 5.068929377626073 0.3551921730014998 1.9290633642846402 0.09897255931117149 0.5723635591464982 0.045771292697843746
Ni 0.5268995957796472 0.7209731864126431 2.4604567830471646 -0.3530222342365662 -0.3461681874292103 0.05205404038276197
Ni 6.206062375541192 8.20811612420859 7.421042653040853 0.3494962233611787 1.5043216064304417 -0.5183958466807911
Ni 7.83963918467579 0.6293153749570161 6.2231488299140105 -0.9518668703927284 1.7045660626099224 1.6011940886794747
Ni 4.571465287512956 5.526473907062905 2.3808961702574507 -2.1197022925684137 0.3543126709132156 -1.5200775837131175
Ni 8.821662215652772 8.838069403266674 11.229045193657123 1.1558941906534093 -1.1658659571541403 -1.4460007592023614
Ni 7.556828905401564 3.8061274334603956 8.441277426509997 -0.48061348572569484 0.38268685118053447 -0.14779292324798418
P 4.871408898838897 2.7853797630339105 9.676220241858324 0.270383893309044 -0.9480310415864062 0.3919201968533444
P 5.47297820291002 3.5789361414420306 2.571054095947297 1.274949636757385 -1.7660174850471844 0.3549397629742532
P 8.589167311727842 3.2088874209109246 0.4606706272001301 -0.764258100699387 -1.5494526944411249 -1.5441886178287083
P 5.496830668936951 0.7439257848387894 6.379499676587651 -0.24259900988629188 0.5471821747848641 -1.0818307358790917
P 5.000331707507003 7.62648362122125 2.9784505390065834 -0.27930253595491256 0.9542587676636727 0.39917559286417703
P 7.66907796710518 0.2684620328510897 3.035599025432726 -1.0844733157082613 0.7611879464144955 0.6969072820585546
P 8.915573832376147 7.267657968520157 7.127996494703972 -0.5814151278258051 0.7345178933224769 0.44712795237373965
P 5.263076501873026 0.8380056097040873 12.887380770610658 -0.09033442402019926 0.49507131302223767 1.3628271145966593
