# total energy = -340894.42725897004 ev
CRYSTAL
PRIMVEC
9.03149851809763 0.00000000000000 0.00000000000000
0.00000000000000 9.03149851809763 0.00000000000000
0.00000000000000 0.00000000000000 13.21851099910195
PRIMCOORD
 96 1
Ni 6.539590753153201 1.8261870872824446 11.236170543364024 -0.5553071178848437 0.6977305492907984 0.632944920273981
Ni 4.697463070777466 0.20106735099287018 6.202204671191719 -0.6783752846926382 0.5739941527713857 -0.5300293171546613
Ni 3.005167950780024 1.5932015169585843 4.896876754370006 -0.03940626971176439 0.5154732737173574 0.3461406766253845
Ni 3.1667324298870345 4.356876225699235 4.825655259273021 0.852744415767254 -0.512003312890886 0.43550682319504347
Ni 4.7801825667884845 4.569847995044778 2.5599764821949904 1.394554013386295 -0.5234676047767437 0.13445712537102653
Ni 7.376575857785268 6.125957147103564 2.5879334862240446 -0.6127368207572221 0.005428112994106781 -0.3109515303187612
Ni 5.179465121504841 4.811765717520063 11.256408325508525 -0.1455979724791944 -1.0282008663687776 0.03162534021476489
Ni 5.375277043441176 7.516446677167584 12.132425760947495 0.5273545985359757 1.1172931904517596 0.9242509084476728
Ni 1.773072843801628 6.837612145157959 0.44620841533149525 -0.1428191241824766 -1.81532712991559 -0.0033339494692394196
Ni 3.1156863995939594 1.8935891616060856 0.30624637781295055 -1.244528087042734 -1.8346803376312208 0.2906938085109897
Ni 0.8327439128724021 0.24640457099786095 4.828153371795856 -1.23842968745448 -0.6280739653349248 -0.23288975301832796
Ni 8.527929366954023 2.163676128328381 1.370270714066656 0.4668020337638993 1.6465339502668546 0.3078435808173989
Ni 6.896569768256542 0.6309829427842544 4.779655127268117 -0.0948060866383077 0.7449763696516396 -0.4961126098025585
Ni 0.8535100376871344 7.455330525894896 2.605857398417894 -0.6795168544962491 0.6733860590081628 0.37220420648165575
Ni 7.663109183524493 3.8364361167752343 3.5737170466405352 0.4476647987138161 -0.061630628327603534 0.6905962522388622
Ni 7.547054426046429 3.884546910011472 12.57438666247028 0.3893825180331552 -0.43562226572698526 -0.2741762704719407
Ni 7.964914773457914 -0.2313346123731219 6.785894171366333 0.22005197782371133 0.6294291938112385 0.9920113038220981
Ni 6.857084056218092 0.5663797298880415 0.33460167093187104 -1.8798564199472272 -0.14329709226015966 0.2713570558555907
Ni 1.665182561090893 6.505298152830695 9.148690459581571 0.7745419991238984 0.02408686574587465 1.5692586734234586
Ni -0.01372607162763899 4.7509747001982845 1.4541688206497279 0.548435587575991 -0.6495671022116942 -0.3564916808424054
Ni 6.376761864237091 1.9454841527709847 6.8929246554068815 -0.7217924753360085 0.23083672714404113 0.6493884105419847
Ni 3.4681496653790886 4.267599861678173 0.6477481137030504 -0.872111507439956 0.24140936045356487 -0.5184593529288748
Ni 5.893757317161072 5.558878379221063 4.66863272083027 0.6840466240458025 0.4910912453285672 0.38892666144265925
Ni 5.2458376049839295 3.138834130599117 9.112326033471868 1.591585361945117 -0.8814610669756562 0.008084833890663497
P 0.20097342340705138 5.420660324089212 12.48216061099456 -0.09716404534752299 0.6059269969242403 0.4222237329328922
P 3.72515902207584 6.001051520961804 12.635971548522198 -0.020997685297589642 0.6335671272390121 -0.392931154616362
P 2.5029353431070565 8.675215046716845 1.4307058903421586 -0.0015714582521779387 -0.3299005606174383 -0.5142216606984434
P 6.30299258337477 7.772787702965241 5.80735477600612 0.2302543722780099 -1.3630114626933234 0.5768025687544582
P 4.791589349566289 0.926956894048135 12.399174685773767 0.861238055060562 -1.065097482284811 0.6862798842516955
P 4.256906567292645 5.973108064180703 8.276334393689808 -0.3719203566926498 0.23176849492969118 -0.13286406985229376
P 4.8796013037782515 0.8574947348855252 3.885991046643436 0.027427757193649538 0.6141974644631487 0.196943416830706
P 0.25405334719304945 5.563945049956098 3.6022159405877745 0.025177527706892126 0.4354381747406371 -0.363745019970709
Ni 1.3828308192203325 1.0974896513011152 2.615255575898958 0.49084596208698045 0.6181829314734579 -0.6684510836003906
Ni 1.9732650425766285 6.54047584001957 4.777645618821512 -0.09748389058078695 0.43130358374697336 0.18204850199674452
Ni 6.282536238963267 5.734712626173625 9.15659482718817 -0.7072960814920464 -0.7040585483913553 1.103793613303428
Ni 8.71022113543163 2.46015313406631 10.344872715382087 0.5812469776790571 -0.6344739553239976 -0.005894253997247913
Ni 2.3559296398019636 5.511246255412557 7.055142111865305 0.0075716416996708304 -1.5298991977892296 0.003243446637962156
Ni 0.6359421386855154 0.013662851137184014 9.355890198148574 -1.0095320863146808 0.06318871684334279 -0.4540115668674503
Ni 1.498524316752939 0.9924081646663082 11.63670486379139 -0.16450483668602636 0.5434044529099866 -0.7888339902665382
Ni 4.041279537347994 6.733253178414066 1.5307830235825226 0.44324430104861734 1.4630561720227513 0.22616477558966852
Ni 5.598806634692699 7.8342470511861135 8.09558430202944 0.094854680488056 0.05000050028784292 -0.0711100285729485
Ni 5.253107961386252 3.03286755709794 4.643438452234097 0.09380104241256103 -0.7185613699932205 0.022745778336947926
Ni 0.8780964864250748 7.482018604365532 7.0750096025657125 -0.49331165001865357 0.6434324500688661 -0.730473033829142
Ni 4.98814185439081 4.373349679212075 6.842575856808539 0.4047075784259998 0.48196305777505377 0.25538921967242467
Ni 8.268047993690889 7.1521069906755566 9.116080427455032 -0.408173168377097 0.6628985292132776 0.028645688761150666
Ni 4.694600085709719 0.17037199657725194 10.28873382300793 -0.9943800611645907 -0.036583969771620865 -0.5246798799172899
Ni 8.1535737484742 7.3459500459091505 4.677026595662963 0.3442000079592459 -0.31690157725460905 0.09170996421148722
Ni 7.178262210726644 5.958422847397877 7.0554464733693525 -0.04467188898607791 0.6708545508355608 -1.722780014514788
Ni 2.3097064297807397 5.473485559613663 2.533579217980447 -1.0745444866303235 -1.3630276606432397 0.2388454563811306
Ni 2.079376120055988 5.15806950123515 11.422882327274296 0.6860523416219216 0.05450378747483516 -0.14895557609751767
Ni 1.2626847928599683 3.2293116839388247 3.760071183204805 -1.0252446119539311 0.9416179389712106 -0.18926944522521597
Ni 3.9146308319694034 2.335337822910914 2.6199356984923536 -1.0595361861469494 0.816986027220722 -0.2040373475630099
Ni 0.9478106243996407 3.396493755197691 8.205761360194918 1.1698905049325012 0.19842951445792922 -0.3003596137355279
Ni 3.2853431014792065 2.8509099540698823 7.197822630473413 0.25184546818522435 0.2783260309742562 -0.4260202238608469
Ni 4.192457793023115 6.77634245840845 6.224385128692917 0.41063859919845414 0.3252818308985043 -1.1323552269912047
Ni 0.6749139584515538 7.455086675431712 11.568246104127287 0.8200225000542006 -0.5971955305885134 -1.065169730283643
P 0.17329188008640817 5.590470561451278 7.898232509575596 -0.13087763554988427 -0.9924247372104327 0.4623409126687521
P 8.556288272672399 1.5557027346201469 8.214934653359935 0.20709336078051432 0.4884106131726104 -1.2129644533038402
P 1.8762306212268767 3.0514905072862493 10.631397009622676 -0.146436923440722 0.9502972119127635 -0.35831485009407327
P 3.9801182285821226 6.1109467963698245 3.8253183419537953 -0.22907834969203772 1.1436588249294821 -0.14703033405034677
P 7.014719833418257 3.9250170554012924 10.290399231356487 -0.6460629457131777 0.014303818217181815 0.13831403722327149
P 6.489194990761948 7.8189567239946465 10.2575245763199 -0.9241640051608213 -0.6279757491941637 -1.0583506504792806
P 2.4867328345533095 8.370004581797494 5.89803373176542 0.7931200192364019 0.6391379364585702 0.4178561999928158
P 6.847989337091211 3.8490260258744113 1.4434746231143365 -0.8210316580450052 0.7806049174885266 0.44606994342287054
Ni 5.228262308637446 2.8585776964122074 0.11174402317889785 2.054084140347972 0.3359591081066924 0.5042383242334865
Ni 1.516090581600786 1.1785473515630311 6.951165177513732 -0.6976423604523663 -0.6234724620071713 0.6033615501899092
Ni 6.831768765540192 0.6654959116734896 9.12550479628214 0.252682619374539 0.3040154653205603 -0.06583875287168016
Ni 2.4427404046952828 1.6224816355378746 9.183151045778716 1.256508399333062 -0.7825245031087427 0.38770744432357745
Ni 6.385170189467603 1.9531067376201277 2.5057143352374847 -0.22889708691916708 0.12573337234478343 0.3134071909481054
Ni 3.8440225756298316 6.6324435906342885 10.434375770018924 -0.08187060952356222 0.5787877175052871 -0.787861856161256
Ni 8.262042047097665 7.136374120050904 0.3365813754329755 -1.0025641396372797 -0.572975224588568 0.8764507582452583
Ni 7.699298398560649 3.758214307085156 8.088460255905028 -1.0220307330023237 -0.22737525095800198 0.011014605942948773
Ni 3.050090624997603 8.368667919999302 12.47362132903382 1.3971017195088131 0.4324168714158102 -0.22559476201881148
Ni 9.04188485985707 4.910498060613462 10.126225552293414 -0.214600724901153 -0.25513442334914127 0.018074855223839836
Ni 8.54660650613415 2.294551575068818 5.946704477917115 0.3218576357083038 0.7368966779672987 -0.7342463848286451
Ni 3.945988195235072 2.5037481779843347 11.24827907358588 -0.6329264083312196 0.8820483069376939 -1.0028451612128082
Ni 1.1239338793085683 3.2663950173399865 12.670960477389572 -0.7634404898940982 0.0642086734674249 0.8656143297513867
Ni 3.073915718400493 8.292469166003782 8.115425601383803 0.5308101611847439 0.3387898926872681 0.1778311214812873
Ni 5.676459459968683 7.7701414738647685 3.5855076681103877 -0.5776425481572502 0.03470449336072088 -0.08336056380552741
Ni 2.9340719935140855 8.623401339039674 3.5661432318840287 1.3526396325406964 -1.2418991340603194 0.44022016951031284
Ni 3.316014070848506 4.258423859063565 9.205331503279913 -1.6139423894840783 0.6666047744202713 0.7593521787573374
Ni 7.323190669345358 6.1609000153278926 11.48935776983784 0.32729937554916533 -0.3863894968431023 -0.41309066028337244
Ni 0.49547343409346734 0.01386876930609451 0.5061378276833581 0.784370812288862 0.24314279820490384 -0.03796233817638623
Ni 4.6952142276169955 0.22388001339861655 1.7154320132042353 -0.26690441940087584 -0.6874769898835902 -0.9170690459872529
Ni 5.752161481539199 5.593974782922211 0.2835249335434321 1.3387456481674234 -0.6759491917496487 0.9484933259348052
Ni 7.832314310477919 8.759506023490601 11.597089098172574 0.5470867868575804 0.09278468533290472 -0.6957875666318145
Ni 0.13074268371048187 5.057124440975826 5.763231389417865 -0.3256682677036456 -1.1899211983311313 -0.4652668280662955
Ni 7.921491328013981 9.04378147457072 2.4185648891452995 0.176540941914954 -1.310400007145195 0.9226185150505722
P 8.609510894136852 1.740866519664136 3.6449123503914747 -1.478449623759686 -0.694722872812726 0.5810248343659219
P 1.88930823125242 3.1131575799757605 1.7001516206612675 -0.053321851351592044 0.6993953385877311 -0.8339663638288025
P 4.46681665860044 1.3008699690947738 8.169132311175169 0.9855244105461737 -1.0740089258418277 0.3447183423565612
P 8.544709891420501 1.5775860558162051 12.56033545689173 -0.11578140333839414 0.5521397759004556 -1.8461073485212398
P 6.276277410408224 7.60922726265958 1.3562456998341514 0.06294831869776256 0.060312423736812254 -0.30969323243162794
P 1.6105871518337025 3.2042312122254715 5.870089371834457 0.3123910909787652 -0.07076575785965232 1.4908924775087293
P 6.884539812072824 3.9532043626455757 5.787248853741711 0.5996085109053803 -0.2810609134069159 0.8942551334165307
P 2.376087944758465 8.328260995099935 10.323855514905262 0.3083549732361786 0.34616715898794576 0.06997694340976982
