# total energy = -340871.51420081034 ev
CRYSTAL
PRIMVEC
9.19636691210490 0.00000000000000 0.00000000000000
0.00000000000000 9.19636691210490 0.00000000000000
0.00000000000000 0.00000000000000 13.45981255887731
PRIMCOORD
 96 1
Ni 0.4676334211892931 8.194156094645507 0.21286278845179044 1.787585441025947 1.4557269853511896 0.5823250412345843
Ni 3.655960511020227 0.09779600564036005 6.4304658013545195 -1.1807462167000826 -1.0674006764966908 -0.6828531179583337
Ni 2.6226935036545296 8.434558323627908 10.587918917476951 0.7519425165568275 0.25427284667979433 -0.5788867049769967
Ni 6.462075553906384 8.180637435198502 3.6550252404993016 -1.014163414439105 0.5171478332063029 -0.16917781668166346
Ni 2.2297695284622234 5.894163107994629 0.2551734336108215 -0.61582780097772 -0.6199330813953453 -0.00887853343655245
Ni 4.749647649383757 6.65488658381515 4.714810891661856 -0.7659668558603777 1.470359904773016 -0.2467369433140654
Ni 1.0798833915404336 2.848271189080081 7.58769983548594 1.3248730039503893 1.22019413828306 0.13446843822493618
Ni 8.298176201451671 8.072929585237068 11.866304970444345 1.4420127210888907 -0.08136204531825987 -2.859463179457385
Ni 0.21284255644445477 6.974763816158782 9.687215700721234 0.5230500576233508 -0.40556092756523054 1.5036957999209846
Ni 0.7015623274609828 4.955379574886428 11.648566268224663 1.8892332331764365 1.9952989518889634 -1.9889475557496392
Ni 5.057707550169974 4.2554900665774245 12.918512815223002 -1.6816742456134135 1.2282481189357881 0.03864548028633989
Ni 4.563080952648132 3.525730758347422 2.0671446534982514 0.29399844740419045 1.4992938141985468 0.7157910063369349
Ni 8.035334837060638 6.345226515176023 7.895916074510659 1.8765692645555232 -0.22793240901305262 -0.9556258232145285
Ni -0.05631395314539361 3.668062929953735 13.336668862472957 0.4859030162594084 0.16799922299253003 -0.26636088819257997
Ni 6.193679583865017 2.554989850015861 11.919888522236123 0.4738931362827259 -1.0271469711829664 0.3264642812423797
Ni 3.023342427102267 7.546308827023984 1.9669097713372485 0.27008307423917355 1.2694901563047105 -0.18091104595819169
Ni 1.0228567199548069 4.40886707491561 1.923810997528824 -0.4302643438491815 1.0629254143341564 0.03405683247439296
Ni 5.66969818297254 1.0546393642057221 8.165866230570083 1.8248661797542765 -0.21074304171795966 -1.7141717040204867
Ni 2.218485586189112 7.976101037402031 4.10680412503102 0.0019072443250418767 0.6916308641509636 0.6383360093825652
Ni 6.7143594890149965 6.913506815766609 12.780105653039806 -2.7317330883975472 -1.4747356652432086 0.8293265510639459
Ni 7.081230156579165 0.6835990638570149 10.599763838135278 0.2706260912268372 -1.0919783658360547 -0.2542353085736396
Ni 2.1516831765135773 5.760760608716915 4.376391024595099 1.9785271317472637 -0.609963114666827 0.2984073751051635
Ni 3.6309923746946375 1.0917007230978486 2.376478251109917 -1.2896031250045015 -0.2854927239260245 -0.3900870002993475
Ni 8.560143910980484 8.91340395542794 8.555918180357423 -0.8500403865725294 -1.7259524987054984 -0.39887863044904853
P 0.6077906520070234 2.6956942646683513 3.1476846656403965 -0.2616398285678268 -1.3468739337015125 0.4918232383985853
P 5.498471026344126 2.354159588108601 0.6254844620587482 1.2937816818622234 -0.7569106591953803 -1.0219782824978336
P 2.414772842812821 0.6140506190040135 0.5558164644351271 -0.5706159803277722 -0.46496369500357987 0.0404136279303562
P 2.978059516138289 7.1280672535612 5.955657374654646 -0.7683147872672639 -0.12055851301206333 2.0830028802648517
P 6.355940282696947 8.074419396686329 1.537164462430752 -0.7620418097743585 -0.49030988707785234 -1.3225713524004061
P 0.0724158720744815 8.79558929816565 4.429759381399761 0.507454774288255 1.0988552954615463 -0.7361040068626743
P 1.375969622530732 0.7882987821823177 8.559323595046692 -0.542449288085569 -0.6324235005528721 -0.09472869643315299
P 6.0208338666497525 3.0432341688600015 3.6297885702581665 0.06727831353168413 0.3766028497699837 0.6555657429972904
Ni 8.252644988579483 6.912394055363148 3.9515722094748345 -0.08342509849487569 -0.3420829616162431 2.2142978058578127
Ni 3.0188270109196282 3.981300385344484 8.32975284708244 0.594481731201776 1.231463283438976 0.36213242406795054
Ni 3.3574280464157087 1.5592716089917407 8.17421193359604 -0.48820235381654625 0.43827230175532267 0.5757702708352019
Ni 8.424506694528878 3.170318764028809 10.891398107875036 0.08591855434069073 -0.7265914393865487 0.1351592936443737
Ni 7.956117331974589 3.942252611186675 7.718058337296334 0.05388363739233301 -0.4800966939902764 0.3293236050680457
Ni 6.397903305184484 2.65122983036477 9.509196107448226 -0.8040232964124668 2.1253582053026108 0.49519086931923745
Ni 4.319496780693851 8.634496537939006 8.672762620904301 -1.8992299393778325 -0.02563338429738811 1.1457912978914524
Ni 0.8181088057180069 0.8271083704355838 6.411649114895666 0.3265100468786506 -1.4356893499740242 0.3168311290279898
Ni 7.758459816672238 1.530330642134787 4.1434691205067065 0.5349511799363109 -1.3486505659859611 2.3539313332234557
Ni 0.44944208768445054 1.8004739219005972 0.7349653715721445 -0.385303205757459 -3.149505727537621 0.8538872711224454
Ni 6.014837835384823 5.332246693347803 6.877102997112892 0.11722276377061101 -0.2715681434251323 -0.6178959963606584
Ni 6.980815025625535 3.641467036674323 5.454454455112021 0.37624315243771983 0.17780926710441636 -0.22640568795588104
Ni 3.954842437569633 4.283686127709747 10.515357742804332 0.7961724329094805 -0.9356972026114014 1.742232981033077
Ni 2.2400326740015815 1.025431702706617 4.523520021213356 -1.4437844682773329 0.9206400511679628 0.14529535363711105
Ni 0.5580051997741658 0.2650080284493426 10.502503061052614 -0.6496522057263328 0.5127975266574072 1.3719020803147342
Ni 0.26977818399707115 4.728008597901581 4.216717263792041 -2.1552447084493975 0.39141368953057104 -1.990359348495501
Ni 0.5948430869489031 7.299248428354758 5.948093362821203 0.4284987673083265 -0.49734288266523374 0.501404197218801
Ni 5.8528622239289865 1.1234557782478516 2.6351085990650436 0.4151501139155625 -0.6802771297010414 -0.7298233160602849
Ni 4.879454369175908 3.0471334284555995 6.906176391654223 1.687629434755584 -0.7749657169248783 1.4209630995074432
Ni 4.826722400965621 8.722818446326098 11.56028298457885 1.5022549537093999 0.5345457169677762 -1.0560716246371167
Ni 3.2461152206017387 7.949587911425355 13.038574144936247 -0.5839538350872588 -0.0360347821363702 -0.19438336941301362
Ni 6.1937163693329005 7.5415175198322215 7.7851283612507185 -1.0292519333411114 2.208804643953725 0.4192988459766134
Ni 1.3056174152044873 0.3417995319285074 2.4338433490000675 -0.6705223643071226 -0.20344085162959158 0.47784903560668024
Ni 1.9746439159596498 7.968228947275067 8.04266893971981 0.5019315304771808 0.6317282742580604 -0.32332470717213346
P 8.954704839493584 5.133835075953851 6.180301628832665 0.02736476516619803 0.23455968452158313 0.960833592667713
P 7.769081620523455 4.857511837583695 12.15303941586209 -2.3115726657515867 0.36219721586761494 -0.4156417088400003
P 8.534725152673328 1.2792054492644902 12.276910800411317 0.8948814541466201 0.5176121744372312 -0.8137636636286824
P 4.310732642970725 8.865527668978212 3.942836580489318 0.023603755461869026 0.8524011734952224 0.040993154582910044
P 3.4293252433930395 5.522188456761693 2.6617320814453675 -0.14135230982896302 -1.1350903665341805 0.20518971599989824
P 7.064612321463018 7.429937999376101 9.817008625962929 1.805870355378064 1.0286127570952157 0.6255087757109098
P 2.8648062568934907 3.253812579756257 6.26620213379636 -0.5185405997887714 -0.4960159363236941 -1.3722136980178818
P 5.160688467508444 4.578769954700234 8.73960457495781 0.02964379100836185 -0.3667886918930393 -0.26919810053105897
Ni 7.764713346212348 2.3559528796678975 2.101830590801833 0.7418892460858835 2.3175422530714602 -1.4029640918268613
Ni 1.7859436620868108 2.396959479990476 9.95106866547905 0.9535002922310933 1.0399978590037058 -0.5999468680814055
Ni 7.085911107367277 4.2141523970438985 0.7637150539961062 -1.4020899167520238 1.1388693739606388 0.6872677020862616
Ni 6.993597975714879 5.111478707847954 9.852569137765428 0.4069642356706604 0.13171298696698608 0.6510416298746916
Ni 5.0166825571134535 6.816843802537045 9.899988364776712 0.15803774090444395 -1.1334086079563834 1.3171383543102928
Ni 2.523345151269507 2.910291487930825 0.97298298259903 0.9204428475554923 -0.38226287626923844 -0.15188971902517714
Ni 4.434727258837361 4.456246757548918 5.169375355749015 -0.6345243489459588 -0.5952862293809426 -1.1644482508710075
Ni 4.711914955702766 6.086036108472378 1.0778298427958648 1.4708959797821444 0.2911668914926663 -0.6804110841757443
Ni 4.051155988854308 6.433502441728262 7.853289074327834 -1.589551876454856 -0.8421090475405948 -1.1021979866815341
Ni 2.5613169504917375 6.028558814905184 9.990182653479048 -0.7796939756384831 0.3841526370927836 -0.20243606451416105
Ni 6.373450165409257 5.264432683305485 3.4395874692957005 -0.8233101696665369 -0.6164484652808544 0.04497630760037416
Ni 8.623387326638337 1.957060462311574 8.847605789025613 -1.1243251575978765 -0.1656510344753276 0.06675303715583342
Ni 8.767089756923292 6.115666802852137 0.1671117824090014 0.6616204338318025 -0.5802483612112135 1.3203465768349454
Ni 4.310447555594632 1.8523874134504863 4.782150369168482 1.2945900366961316 0.8920342145058121 -0.26550265395734274
Ni 7.924711738769473 8.980206365103475 6.33145587527402 0.7977544326846197 -1.2294521665462181 -0.7173357251162357
Ni 8.118755081852319 0.12642889420379322 1.8630800293273786 0.6018150316383958 -1.4679875478860975 1.57363186279049
Ni 3.965749328796944 1.459251921817853 12.781747204544084 0.34041662965741376 0.2034387947470625 -0.7614491704956822
Ni 7.079767934230816 0.12238065346326864 13.269047056500328 -2.203809247621663 0.4896676255081632 0.20419418485584834
Ni 0.7361875687425572 6.941555735027399 2.377339031058379 0.09822616806345018 -0.38933726661751655 -0.7786045992290461
Ni 2.7556913627855306 3.265381609405462 3.6234081308538593 -1.4100155993570038 1.0296846500031556 0.1874609312615675
Ni 1.6184042486136694 2.012919195291915 12.080666766712369 -0.6828330633536756 -0.5979156965839897 1.5849645141944897
Ni 0.2951564782895556 2.886877537623293 5.469529139850477 -0.030247743140947907 -0.6998527378401238 -0.8322375540631537
Ni 5.792975482215456 0.14190454054217297 5.680269406805417 -0.6150436145135278 0.08516959198980815 -0.12343891988365192
Ni 1.3989789326915512 5.7130682496066 7.756230617318527 -0.8138834770359983 -1.0422578586824758 0.11574617922508454
P 2.48933698621167 3.93827058428834 12.565489117406694 0.9477536195553032 0.40307492791858324 -0.6945637215270425
P 1.4700392602745438 7.115964834627691 11.807149339904992 -1.155909360162061 0.12098763012968197 0.2615146158438722
P 4.348327391147156 1.4696530128617722 10.249606647903752 0.8529740152795569 -0.35241031168418013 0.24227479377765368
P 7.176817194873151 1.7459210730301022 6.519193269525022 -0.4024961725969778 0.920652392463137 0.854511792080322
P 4.51687840498708 6.340269673378788 11.992908595620584 0.3151421713613411 -0.03933093638913872 0.8067437806674234
P 8.158979990982385 5.526400392834297 2.3554001780129554 1.450215311504341 -0.7046858975627089 -1.7807982429007847
P 6.6280607813614685 7.169542868599287 5.729492041379665 0.781417386087493 -0.282682508170739 -0.929583890624812
P 0.5852448387415303 4.218014871171614 9.431317593393118 0.23742080811946206 0.7426263813622243 -0.9171870596223559
