# total energy = -340859.5044040233 ev
CRYSTAL
PRIMVEC
9.29930804485089 0.00000000000000 0.00000000000000

0.00000000000000 9.29930804485089 0.00000000000000

0.00000000000000 0.00000000000000 13.61047731210212

PRIMCOORD
 96 1
Ni 2.304377775392009 1.7226874730674786 1.4840588652065063 0.3166637502121901 1.8032555434630364 -2.3775538577384023
Ni 0.539623023570446 0.19144856967125007 9.730742689564927 1.6525616445181732 1.8452252030266028 -0.3479964988872007
Ni 5.46215302879147 7.558905158640574 1.8383671425392176 2.709322581912831 0.6795631343531522 0.7176398866202157
Ni 4.337039075793283 5.634208821949298 1.267289210290988 -1.5322800393165803 -0.03164205238531325 -2.4094417075859345
Ni 9.077593716212252 4.548375145153612 13.56007768592542 -0.5169606568961613 -0.020183159816094275 -0.16662419702187434
Ni 8.582247486932282 9.191194060456985 11.700804769491592 1.4907212420381875 1.2068961356225731 0.2747318858650946
Ni 4.5394943061921085 3.5081917704123935 4.829405806849938 0.21615675653436323 -0.058702398937215024 0.5853093206738886
Ni 8.148825348379692 9.117469148114791 2.7975656353285614 0.6133297171462148 -1.904113749832695 -1.473175005624308
Ni 5.824091388184823 0.45522343578960445 3.121345215041673 0.6772555692658981 -0.2779822744815922 0.5832372686362084
Ni 0.7102197553323999 0.11021725606232892 4.688319498502052 0.6461922722021903 -0.001724181779958321 0.7721102497539541
Ni 6.015182864436051 1.3542117002815215 12.468776016135635 -1.2578667131331691 0.25338015966219585 0.46914096630972113
Ni 8.347077291646999 5.355434172328426 5.354729284796194 0.01627096924588165 2.6337442331558836 1.8009099260489954
Ni 3.7493600192371215 5.7738751259941266 5.720224629428055 -1.778327412762789 -1.0140901379990084 -0.6426860588211447
Ni 3.4314817802621977 0.2773853330335958 2.94302075848704 3.8176094551009223 -0.1191912003508915 2.6930690961684456
Ni 3.570636622377306 3.2776712290336563 7.070411589288071 -1.3593219296568784 -1.2409141444392306 -0.2725829578428919
Ni 4.746859571116247 7.585705763757905 4.478118874625701 0.951696149142819 0.5988644336505041 -4.572951227147286
Ni 1.25420694405953 3.3480390912553233 8.038851734182066 -1.0228964234367286 0.21386796050018653 0.5764546984967363
Ni 2.156676869396669 4.024703224274962 13.453235148668462 0.689741874658367 -0.9770811648748269 0.40867324794196713
Ni 4.58055075018691 2.4553427384297444 2.702686657573146 0.6124457718793646 -0.7212466301348676 -0.8775190516087724
Ni 2.076916706283779 2.3895780335755576 3.625490449374392 0.1582614268794758 -0.07676799818967424 -0.06197952702659003
Ni 3.694131430135168 4.508825189024531 3.019157911275949 -1.279824705461499 1.1209138179234825 1.117042250783218
Ni 8.654103238404044 2.018005591287841 0.7996632876710628 -1.8679624967231183 0.98349375326939 -1.48216846737217
Ni 7.022084016514213 1.9273838366492595 8.503186631766937 0.4861464997287821 0.609203353682667 1.0671898460374651
Ni 0.9129818628890578 7.501928299669759 8.150334626037756 0.9033776645430894 0.6366295682144197 -1.0047760596869342
P 1.93583690745136 3.9691491593995503 2.017957234887213 -0.5858222557545654 0.05909757749310468 -0.49991629981936486
P 6.857988430844392 5.947418808402049 13.003953040640642 -0.047513986420563335 0.2794524312692155 1.6147366032505996
P 3.085928801235512 1.0074684098547604 5.037006344261749 -0.36184497473451877 0.9469488642658208 -1.0872387942685406
P 4.8409685661847375 6.771858241879533 7.297039440416246 0.12745061214620632 0.2899983251058618 0.7650158048010179
P 3.9020453542202787 9.216357987399212 12.288967390054033 0.8481069169952425 -1.9515084370665747 0.6994735001238341
P 6.906605212091235 7.227989290111695 3.6235310852181737 0.18773475374824442 0.45679555737049077 -0.9150188483264435
P 9.135109935036226 8.273687154386076 1.014427081891297 1.076572572803946 0.1257462278605899 -1.0422113217152567
P 1.8865877732732248 4.938713590608148 9.702310055926398 -1.2737571591111805 -0.20423815071990634 0.6244744209091245
Ni 3.925544705063962 0.6871146951399917 10.276427001967946 0.11463340577687998 0.4120403646419871 0.7075117970472783
Ni 0.9063356475950409 0.48358725455031637 0.007259039678899609 0.8083736029613627 -0.7846996563831904 -0.7423487022208054
Ni 1.0516866185060127 2.530276560787639 10.509711297628733 0.3115277145372054 -0.6461755600316419 -1.427177198737955
Ni 1.5679934875966934 9.07373450346982 2.468736531472941 -5.451229011298954 -1.9766759374711378 -1.395743662819022
Ni 7.999729546212386 7.937256796324034 5.45590947352576 -0.682735875654179 0.3156648766340306 -0.04285669015421006
Ni 3.053818291356906 1.7296433553116712 12.62630350069707 -1.2126924305893763 1.1070938813212545 0.04509843500053524
Ni 8.717292034994005 5.897090954517596 9.130248256911543 1.3761917088290234 -0.11092124703261541 0.07253519105524928
Ni 8.721439526278644 4.356046860963243 2.1892179372270215 0.2768157649773168 -0.3685087599079395 1.412383071147916
Ni 1.3911950474541883 4.735533014199901 4.128411894798908 0.8234454096928207 0.5642941518748024 -2.0511129735347904
Ni 7.882809349078381 8.375244895012854 9.32945151936813 0.7641208037905743 -0.30023568656315386 -0.6697420344976724
Ni 6.567450156839958 9.12303013418702 7.147228521478117 0.019196627533108874 -0.0876170250890362 0.34199271589528196
Ni 0.008422383086317417 0.6000527155322618 7.4159673581071 -0.8478953152050688 0.5125316745905303 -0.597328713732268
Ni 3.1319603749103178 3.2006729603412545 9.69203432079293 1.6790602050293342 -0.1545911771167402 -1.059841376092194
Ni 8.777942120550989 3.427678363366643 4.728946314475888 -0.6671909859410445 -3.1524653243865774 -2.009271612018972
Ni 7.4216008787802705 6.165636365544065 11.033972794622732 3.12019926526402 0.8268438938514082 -0.5255615111912948
Ni 5.413843124702456 5.5820025078866 11.063466479282734 -3.014557778573105 -1.0915415354089524 1.0693842825856228
Ni 6.946024977910933 8.953122481134017 0.3379042983504172 1.0509458733747772 0.08107485309514424 1.3037665609890772
Ni 1.7970168404175229 8.355753545836613 11.797887683198708 -1.6874975371634098 1.2083066428168545 0.5126620295208074
Ni 6.263465083737794 6.047832734167816 9.003139738137513 -0.34115942136070926 -1.1786245423713895 -2.3015726171160815
Ni 5.954467683724373 4.579602220789974 2.306812334177476 1.9395769757363113 -0.954743163499259 0.5012823269289559
Ni 6.041899775783064 5.936640910646675 5.18583711615638 0.8056595464643093 -0.4144885690721636 0.5372134936079264
Ni 6.639008330461701 8.240265442105825 11.764133985629528 -1.9397847208717431 -0.7198993720783537 0.8069661810908748
Ni 4.554503389002439 0.40131348853554755 0.9339908591003953 0.3601948407256055 0.4940230742633815 -1.6382835373326046
Ni 6.832192150970874 3.771576065602598 12.687632435724412 -1.1401459266802172 0.774253264238886 0.9884436410754978
P 7.643891532744421 6.945820393139044 7.4173696937253135 0.062389360870499004 0.3053709509071902 0.32509414036773043
P 0.007750973062212176 1.8098126879683376 2.716610511161689 0.4891878576582672 -0.17578812290932952 2.3940004333301994
P 6.77272307750615 4.114581034288496 4.329724240267505 -1.072889467525404 -0.5435844301312767 -1.0266510053831543
P 3.5380611471080448 7.3188528267534165 2.3446084408530075 -2.815244833068958 0.15182775543899013 1.3722607492057335
P 0.65186101922056 7.465977175664346 10.189402219591468 -0.8971118861390356 -0.6389669580983447 2.194722454829046
P 2.3005650591886413 1.3429967350589325 8.873581781685516 -0.3168100459820673 -0.30579595425975076 0.27036975224165694
P 0.8388263925951183 2.407581493501704 12.572283821610819 -0.2961874846357092 0.3929717780463103 1.271156745373856
P 6.7849516672803665 0.8842144541692577 10.554175937937034 0.48270379259582025 -0.9120469101823131 -1.2496862342049058
Ni 3.750754915409085 8.281851946645972 6.144096378856601 0.009170867865990659 -0.5624357585098249 1.223035207276281
Ni 3.3350572575482467 8.384525604210321 8.3684015343932 0.7677568578812648 -1.1087866956426453 2.21544888874312
Ni 7.933053509192517 6.761452316436682 1.6567628201189069 -1.0725590807691785 -1.724950025582913 -0.15023315725836062
Ni 9.319766290280795 4.5038500593445265 11.20658096666466 0.2421197562570282 1.1268643790799624 -0.2595675194198304
Ni 3.523424036610238 7.55582708775444 10.732610126323863 1.67534470385096 -0.20687867366654691 -1.2998937082972324
Ni 4.646613032891115 7.198482586420754 13.155356001076376 2.6831353819945014 0.9673225428261664 -0.7451481193428134
Ni 2.1478518262820443 7.548927001357126 4.379061717869864 1.7588073404519904 -0.41912015430690397 -0.4701917761717386
Ni 7.977085731687508 1.0681835905664379 4.52082873554967 -1.1554984978768874 1.92325484153752 2.06290585240466
Ni 4.787627736568842 1.265607895438381 8.243049654865063 -0.5926135676447859 0.38286400018834704 -1.114224578828765
Ni 5.7514079983176964 8.066572970772892 9.726523593610127 -2.8417925016504992 1.2566603515298937 -0.657310750712855
Ni 1.2568479474784482 2.4749828765309947 5.71041199982368 0.4995303772348558 -2.6154418353022697 1.7374733548609045
Ni 4.576635741597598 3.3368055274171082 11.523650165859843 0.5223064945891069 0.32489796519652436 -0.010516069039975439
Ni 1.4915066808340116 5.9383426839764715 12.458948507638759 3.2044401747919715 -0.7733783178331004 -0.5432424734108258
Ni 6.36095902685025 2.532647884279978 5.892588229674496 -7.327644009664799e-05 -1.0688165830076108 0.5022668023294125
Ni 3.268474213606508 5.4361800620695035 8.13145703117718 -0.3843308145418607 0.3072288300515354 0.33556547221269944
Ni 8.165768687215145 2.3949995300305904 11.484860893109875 -0.14069513586093835 -0.9163241974014282 -0.5449005778395389
Ni 1.3874846236367646 6.046168158069274 1.4298076333557088 -0.32592563513009026 0.050745605983983574 0.33600281686043426
Ni 2.3815434316250466 0.4595132064837838 6.89738122867143 -2.6380773133135986 2.075744398930225 0.8640595836697571
Ni 0.08713451420867196 6.608404308448815 3.8835862282112914 -0.5092594315971617 1.6345631510582235 -1.8875283346701879
Ni 4.418668399776604 3.1911504691406485 0.3724549465991792 1.1279498988346575 0.11240940154236768 0.18216008787394436
Ni 9.106254182892203 6.975466586447182 12.61911699561911 -4.170083530143502 2.33602025727099 1.3860986835300901
Ni 2.700044724223447 7.969822972285482 0.40179519268026576 -1.0151070092992969 0.5180348637969465 0.45952401204524723
Ni 7.683385693026623 4.575185049578756 7.4788213796157885 0.3675394540161348 -0.3352140024105517 0.18751312465574158
Ni 5.392901083507374 4.534816754362123 7.0900917144129165 0.1725567604562254 0.2202257843974143 0.3889935101248526
P 5.378719639092409 3.6687350204976137 9.152596353447965 -0.7159391018790251 -0.10258624480435881 0.25551083285195353
P 3.496214261949131 5.91154207885914 12.012579872748782 0.20389799377166823 -2.550659805829878 0.35698584687000456
P 1.349431856065592 4.462003174185613 6.098255440991964 0.9883397685077816 1.6897786198881026 2.4609396183549106
P 5.190985212961707 0.5331888324945677 5.571353870509828 1.7576300323144376 0.5732544463918837 -0.8646167417248076
P 8.33027344242874 2.6476338253888603 6.791967995025344 1.6134286830724538 -1.8803577850636777 -0.5409328514410426
P 8.388700993418398 3.6705762834446056 9.415864407290506 0.6328683013997746 -0.6267043386809078 0.34661478804832563
P 6.3483863626869494 1.9483909729990343 1.0506962422239186 -0.7604893776855741 0.11579374463356831 0.27691295267681343
P 0.7110734317896418 7.502783835988563 6.04948987082011 0.6812914298981686 0.5033731480197138 -1.4147407727468153
