# total energy = -340865.44275384827 ev
CRYSTAL
PRIMVEC
9.30849998978414 0.00000000000000 0.00000000000000

0.00000000000000 9.30849998978414 0.00000000000000

0.00000000000000 0.00000000000000 13.62393065264682

PRIMCOORD
 96 1
Ni 0.573246295610762 0.9362489451250496 8.339698449377364 -0.8657739952577026 0.416858869076553 1.2383330139756157
Ni 5.201859830535756 4.096186874173671 5.618004707408553 -0.17491523338607295 0.35139806836958193 1.2706736350898504
Ni 2.8277268671817706 0.7671479388432324 4.8196155803606215 -0.6143764132431743 -0.3204674402289965 -0.5065741714555146
Ni 8.87240622683323 3.7960063613242716 12.77134505197037 -1.0059885919377964 -2.020046848257605 0.7266235781760647
Ni 1.9349858517595888 3.3134444050285103 11.971239437494706 1.337201186498439 -1.8602540723352672 -0.9698854184573361
Ni 0.35029468510899114 8.38347725643461 12.905186390532569 -0.29930854676319424 1.500317627477371 0.1938586072577952
Ni 3.5553816324369927 7.802422060047694 7.905694284116052 -0.06512707151663621 -0.6375050288408376 0.5805756626436454
Ni 5.67981407925708 3.858187142328799 2.856216462742018 0.9228691976087977 0.7706856014922856 0.0424064899906689
Ni 3.7046248153480077 2.6794796937868455 2.3927713732050884 -1.5452908497539517 -0.23665719048056014 0.8461688194322653
Ni 4.074833174828703 5.0239371586614245 3.8510223897630524 -0.5124684254527626 1.3841382173696097 0.31006861349317566
Ni 0.2869596500858172 2.92467489624796 4.507559283019369 -0.008507523250378898 -1.447951712281145 0.14903168075109172
Ni 6.719266365549374 0.05369329056741212 2.3621855034109753 1.9155245627727977 -0.010457190777581992 -1.4641339784679623
Ni 8.26757712106225 2.9385259444717233 6.982169127846554 1.937845594867501 0.20936313065129747 -0.4715590888329105
Ni 7.774021826088891 0.9984204176294262 12.957543911328402 2.3082032350587216 -0.3938567517544249 -0.8764664419745422
Ni 6.676996466366506 8.229105089940735 11.828433082437678 0.04219540242112733 0.17143061727158218 -0.35008474887479707
Ni 2.695862654051511 0.8480062253994934 1.0131464648673247 0.806699043472417 -0.6071575268972318 2.59021237131152
Ni 6.1152098652908755 6.006514509034908 9.168905227873154 0.34748073559304676 0.10951202538991463 -0.323459690088101
Ni 4.1116855269240515 3.833687169933003 0.09911225535115298 -0.5557976843680169 -2.2388711243218022 0.7029794563945635
Ni 5.773690303273646 0.29843051482112837 13.444054533387952 -1.3752416862109282 -1.335945459714467 3.3571572748144503
Ni 7.123860324585567 4.188769216669334 10.995438675230702 -0.42372448584813477 0.7591243790172475 -0.014318730615517274
Ni 2.374831100865264 2.2275799369864298 9.852908712523192 -0.3878156877666676 -0.5620171829151676 -0.6220100185290319
Ni 7.74447664661159 2.546777715643052 2.7780967369299985 -1.0984783717381017 -0.442829839219018 1.2661682910203291
Ni 2.2447261942634267 7.716150880653989 0.8836131001747204 -0.3166069288323257 -1.0662300532273572 -0.14182667836222027
Ni 2.0955760963539154 6.0575995578601844 6.733791349184025 1.8919269779585162 -0.2830936275662286 0.3799676524771586
P 1.251313749714904 4.739348383563909 5.143401518741365 -0.20395764336501002 1.0971938485987234 0.08470036566287348
P 7.537930336774846 2.1001093359271494 4.781482378644582 -0.44749716278770024 -1.1743490549244873 1.3309678039942174
P 8.305965375682408 0.07827890116459128 10.868409297078546 -1.651835822095742 -0.019158575206321842 -0.539885898233767
P 6.873861936046858 5.0932854847817435 6.520645312740663 1.3681996917624824 0.18466845611809488 0.24170555153774503
P 8.184647693222528 8.413618179921533 0.7529645771641009 -1.953159342406436 0.02676852634309583 -0.712003771380361
P 6.1964172206027754 6.068443960535374 11.917179392021369 1.0681804920855087 -0.978410939429844 -1.8288796717890439
P 7.734200062445572 2.6518520653405226 0.6588863586942724 -0.29967518607399357 0.2907195195426025 -1.0684499436968116
P 6.621313018466944 5.710327342750021 2.7897044366175203 -0.33887756730506796 0.33403977959679243 -0.6674653226483538
Ni 2.4364068293600165 6.509350378658193 9.839461653205957 -0.6500903217050158 -0.11580917125253604 -1.4306196487606007
Ni 1.5580009041694178 4.7554893228246655 13.470512083365373 0.2674276388941975 2.313466797450506 2.8489111149731516
Ni 2.0293647347842745 4.2086428644903915 3.0514333970457366 -1.829703196131604 1.1878882270615025 -0.75520653202008
Ni 5.9415039439846655 2.5684572124932834 12.53701380003476 -0.13634945729773293 0.10236615837375274 0.5522565039839779
Ni 5.223576561386589 7.446725652301439 2.3009458117716517 -0.14729078680058502 -0.05555871110191077 1.628861729798072
Ni 8.511106101996445 8.927466005222717 4.2152165272965885 -0.12587118347422838 0.8101533205696048 -0.7618055253938364
Ni 6.068490503036126 8.916547134546324 4.523907801833479 -0.6286136398884787 0.23079584660377672 0.5283455016943353
Ni 6.4090605980380175 4.460791516563839 0.36844160615215366 -0.0026634057647760582 0.21657044703301412 -0.256377551727623
Ni 4.2873089992612385 5.856629039613517 12.965567838458027 0.5834995211586596 2.1458205869220204 -2.0260521739114203
Ni 1.654948933235608 8.389471930531453 6.559677715571229 -0.26037741691563543 1.3493457922807728 -0.38117324274948544
Ni 4.868885471656574 0.6116931937818696 11.553774615300584 -0.9813880197802971 0.8444019573398296 -2.074824201108801
Ni 0.5032919861306541 9.157078778432098 1.868113586679271 0.6664142556760201 0.6093221386487184 0.7986898000146955
Ni 2.7551019490085187 3.068584308572809 5.085922461162795 0.4913619824914506 0.5897089924034811 -1.1056615197501023
Ni 4.503955031761143 7.553307979023271 10.166394795487541 0.16198824091175973 0.05793003954756475 1.417445830382804
Ni 0.9578725909743784 8.775346495765234 10.6593496922012 0.8080614710375825 -1.0081318635330445 -0.04799092605698187
Ni 2.7446112693390425 3.5267393774742786 7.285873838852887 -0.7036528283125043 1.1735687251150368 0.5680178805832927
Ni 6.574779826215202 8.282480029803004 9.419136328915624 1.2286450972638905 1.008926334409882 0.3469451748045509
Ni 8.167501435945532 6.770221095372545 10.670998349289386 -0.4673291099119629 0.6665363830761811 -0.10261195583597166
Ni 4.494320734105502 9.193428471519326 6.259978452179603 0.8002550876192862 0.5700302830276311 0.3091252757432999
Ni 0.42662997144218345 2.732472985142949 1.8202930288567325 1.8836048312460656 -0.8455484122394471 -0.7868719814441609
Ni 2.8639927837676438 9.039707900035978 12.64672750620718 0.0573890794424302 -0.4935587330324532 -1.1722186388450457
Ni 8.419342907514016 4.986247041552543 3.823079203161632 1.1185391470437187 -0.1650044020302642 1.1989575975017868
Ni 1.750547229779993 6.868993590468209 12.01386864478338 -0.1284289168990756 0.007447457416980724 0.9376178166728819
Ni 2.7718758662795007 6.9234017738471705 3.0843491844274897 -1.1216712649147973 1.3086305739495978 1.9878633215465247
P 1.3180277702926653 8.527852093766976 4.268664073460031 0.4611535772288703 -0.8484678998790871 -0.4201046297073603
P 4.320121462291322 7.0782672908490145 4.786318144472704 -0.5226908745117193 0.4461825577413348 -2.0050426615392887
P 3.532529264567814 1.914544385429358 13.034723478625233 0.19572779925605 -0.09909083005659064 -1.552185777101572
P 4.757611660858952 0.636410054231169 2.8823333216139346 -0.7816845237059504 -0.17848623856678292 -0.20727205245022368
P 0.9876039404546867 1.6445141045670337 6.343056816021731 0.11485657753127962 -0.14742756948876545 -0.09991821105389243
P 0.32729245038739135 7.0155186913353145 7.73576295962082 1.2312701935915633 -0.43558858427557245 0.12500652148108793
P 2.813159064446428 5.144156438103561 11.523611351413301 -0.09781093490290252 -0.2924485864185673 -0.5979948865613571
P 6.557847664441665 9.027616158340637 7.418012652737582 -0.9978821607805781 0.14107591623912477 -0.2565996950407581
Ni 6.383834562630493 1.8454939313138516 6.6118574440141895 -1.2944625099793319 -1.508341783333428 -0.7806146876805394
Ni 6.591088318478666 6.8869776127587405 0.2293865766557274 -0.552234649607107 0.628060595598486 1.576033530253447
Ni 5.674145202665501 2.1291146223957282 1.436766067360876 0.5716307947455317 -0.6747412874844767 -1.6649582184103133
Ni 7.087892280004505 6.787618682153602 4.699207338365434 0.1406174885454675 -0.44468129060546 0.08019810691714575
Ni 0.1589147145672584 5.0463334100232355 11.022741437021775 2.070618133447253 -1.1145894183673515 -0.969771261476975
Ni 4.2520484006916055 3.0026894360082808 8.775037453560243 1.7100592245140096 -0.7890664179923185 1.5311783216119694
Ni 6.432769347921031 3.6711979913079995 8.258486439815389 -0.7399012691215773 0.341178961744735 0.3302247767260764
Ni 8.758190929988087 6.081252456742296 13.204926611324854 0.2504848403922718 1.0030729609528983 0.00019874627436739965
Ni 0.44520415264224833 1.827118952017005 11.151146611496154 -2.1888392565753914 -0.2838670153971434 -1.261065679686441
Ni 3.5340651670926264 5.632582749494061 1.425594936330407 -0.16046203407522042 -0.6402779636002844 0.7464416413432564
Ni 8.239735397112467 5.0085408994127 8.786059648588305 1.1983639297818458 0.06761718492834162 0.40638059525304854
Ni 4.669143675429757 0.44753407022988806 9.180853618666179 0.4319404460000238 1.0726390420774947 -0.4410215823656856
Ni 2.8024915232740946 0.9288095918048673 7.573080164192689 -0.4023704456523909 0.6489729202711211 0.2554804938346503
Ni 0.7261663360811768 4.356703867882309 7.4309961487473295 -0.8674313283554672 0.5707149677994816 0.049877344446417324
Ni 8.171848505515758 7.2388575354433415 2.575822097812263 0.5715621462911253 -0.5949095627678143 -0.6046938958480876
Ni 0.20348474413728473 6.837856657465194 5.427774336635392 -0.6514537777114457 -0.4921811359586363 -0.42909552035206106
Ni 5.569117395468782 7.01371284230614 6.381926320099665 -1.0641744562499091 -0.6040750313171661 1.940227979056749
Ni 1.0442368553695884 1.6391337914801152 13.37529450447714 -0.7640534408877486 -0.29075474365591214 -0.17050064925814507
Ni 5.185979529279211 2.142779500616484 4.4281587075866575 0.16979693832290113 -1.3425405964334813 0.3141067881182913
Ni 8.519111412125772 8.971755848938217 6.511203701038133 0.17836128295314443 0.9716515092188234 0.3350060001648037
Ni 4.628539997773807 4.787389552840011 10.388614757877495 -0.30697300528698745 -0.07744111299729889 0.6918368095141827
Ni 7.574494125365532 7.003501417641176 7.511118132941696 0.25345163633007967 -0.25088850358859366 -0.1500390389696835
Ni 8.487164639609674 4.556306036606871 1.5982229333192024 0.1076960552270984 2.2257255880787796 -1.1249262815169854
Ni 7.262007775317331 1.4228321734857745 8.83603233164561 0.5315110439065105 -0.38288559745490186 1.215021850053501
P 0.8885624297046767 6.0373442615329616 2.059815631326207 0.731055131584857 -0.18109462272390744 -0.5438610808314311
P 4.320363483295232 5.717429728364759 7.879932079099865 -1.0964297167391892 -0.49048523631345214 0.6766516171333121
P 1.6850340057216306 1.4861113575080462 2.972182688465446 0.8685924385431041 0.36113355048979096 0.3522588737079804
P 4.4478527013548135 7.844943288734623 0.3554460090922105 -1.030657041218754 0.04707895576567376 -0.387432593395636
P 2.6697523111297 9.096405974451931 9.565838291285585 0.8875450683862068 0.016918373021893446 -0.9679722605950234
P 4.258098925789351 2.2242381854324442 6.660453399899255 1.1104108615096295 -0.6529848696439916 -1.505136131911937
P 5.892113042186759 2.433902842819565 10.411953029454523 -0.7734302541169583 -0.1974355259757761 -1.69116881536741
P 0.32941571927169266 3.1505363438967393 9.259981455044485 -0.17942366277938776 -0.00752973271814187 0.22902898451134104
