# total energy = -340895.09325690987 ev
CRYSTAL
PRIMVEC
9.03800999894102 0.00000000000000 0.00000000000000
0.00000000000000 9.03800999894102 0.00000000000000
0.00000000000000 0.00000000000000 13.22804120950599
PRIMCOORD
 96 1
Ni 6.256490230545188 1.9533399462566252 11.47932041108472 0.26254511399091557 0.6608239060724361 -0.48346946711725125
Ni 4.653562976278455 0.17695429716027222 5.97490831254584 -0.4547188773471201 0.7980408535767868 0.25596617522181725
Ni 2.605703519747906 1.5870926604629538 4.872549443498004 0.16336249555146704 -0.3661690560311694 -0.441372280836885
Ni 3.250764381028313 4.379394938014975 4.768934079797069 0.3026224416277756 -0.44699322656808826 0.3848195812528211
Ni 5.242452604402194 4.47698737174397 2.855907274066913 -0.09891265260751353 -0.33983864566675664 -0.2448512962555783
Ni 7.295599296877497 6.014994599017243 2.508565697930059 0.2921490529002775 0.8262581965512672 -0.347361436406363
Ni 4.995452824685606 4.463981675120889 11.31012072664342 0.3401880585863754 0.3795076821216044 0.48917345948056395
Ni 5.809343715791687 7.86559948376271 12.341683054490483 -0.7135631454476808 0.31469377097001283 1.0794208408860184
Ni 1.866864265026858 6.750408447886903 0.3187471195864009 0.7282168908051135 -1.3738399207673953 -0.11805245876075797
Ni 2.5207281482050274 1.4631725031321285 0.3695967723596989 1.0827959280058386 0.10798916098748498 0.461714849048979
Ni 0.3463094353763567 9.127938363085613 5.0801895927602105 0.09887125784661682 0.06903849075590046 -1.0101347528956863
Ni 8.75938638470064 2.3828171511434664 1.5061708364777198 -0.4614209719576441 0.003890593303657816 -0.21310022909622656
Ni 6.93056310444553 0.7389413842358786 5.013348084806315 -0.7067708051161957 -0.1793133624537686 -0.9268436088755135
Ni 0.8873409920904103 7.486400729406929 2.425876942958159 -0.12383281288796091 -1.2568331296623323 0.6000623106133472
Ni 7.6260922144703995 4.007399477758288 3.74532158568848 0.136703498203042 -0.9519270342067024 -0.16319974472135765
Ni 7.589244247040031 3.824668988303498 12.513144952875322 0.7797662236373152 -0.5538436459654397 0.10316782833944167
Ni 7.785251573422761 8.62807313505732 7.049262907106799 -0.1988951412404381 0.0003882365773541701 -0.17073487675613824
Ni 6.858674771617189 0.9097389888738142 0.34444399007892534 -0.3817270583704265 -1.1189862618834663 1.5327379527896052
Ni 1.7847991327561346 6.527811295607646 8.984895583854085 0.010410396700046587 -0.04644517883641678 1.791398129903818
Ni 0.21543814442995743 4.854441790138488 1.274549231051732 -1.0271611122503537 0.29497392394358235 -0.15555636924348695
Ni 6.292732651294703 2.0182238212094363 7.0343547093446235 0.3061237699128147 -0.34721128398174395 0.06270714922123394
Ni 3.452610261975678 4.507879290477597 0.719744650651846 0.43077985003301933 -0.8443502781662878 -1.6420725720613913
Ni 5.990329869285215 5.760005218317471 4.754766998868176 -0.14581111693126503 -0.24582163058864762 0.48723433347632217
Ni 5.24120535899984 2.8092123945650744 9.160563772168308 0.10170229953750873 0.14684212929894064 0.6399522048297495
P 0.4307633137328901 5.58189315205545 12.428221097990368 -0.6368707376909484 -0.6690277820394671 -1.1254073349184617
P 4.252103602893734 6.111421129435343 12.592195908757029 -0.3837924255398874 0.3435991411504534 -0.3058517471983507
P 2.5859283535135074 8.445731280039494 1.3155429337433973 -0.3007815317642949 0.9691004606621954 0.40272191545453867
P 6.303216743082594 7.751693441691352 5.668493557825452 0.21220522808578293 -0.43033967717180727 0.8139446692912369
P 4.715166053542469 1.0660423366149923 12.93121709273877 -0.15325420347287155 -0.12964890534910575 -2.092867688874073
P 4.042982123765979 6.047097611112574 8.082796424970187 -0.20479093789958278 1.9540774833453316 1.1680709352252594
P 4.684997175621801 0.9961062139816376 3.912946848759563 0.07082386479109737 -0.19367425916113096 -0.8442530904667911
P 0.2884381525082212 5.390486172845165 3.400095807730544 -0.648431188835038 2.4673630053827504 0.7587070889741707
Ni 1.4580479513702893 0.8226930092028268 2.670569318680394 -0.3505876566531446 0.9859627836351729 0.08653381932718646
Ni 1.6930362155816125 6.48813443099658 4.771499970882053 1.2704201243181474 0.8425006265520588 -0.6689779026381383
Ni 6.050152458547322 5.748743857655652 9.257168351386598 -0.22383227080175 -0.017258787080447695 -0.002075651582106103
Ni 8.625000211602249 2.3656358938255537 10.384819188071704 -0.1940954058589496 0.08424656595490652 -0.3623548244914017
Ni 2.3221992169871073 5.294050604416903 7.039116836898968 -0.01777377904365326 0.1363394299954039 -1.071504414252419
Ni 0.6285520319185447 0.01089712885229202 9.096183314381518 -0.3474879346818983 0.3522665870174643 -0.0038363430269546827
Ni 1.4551105980676478 1.0557299670201798 11.374012228080446 -0.12056674054217946 0.6890875289038197 0.3091862108882224
Ni 4.252799529676206 6.444932742422345 1.7316827470342133 0.41692726042064326 1.586560912147332 -0.6831647356614815
Ni 5.514207493952427 7.898624372894562 8.092016099136417 -0.3474318846329823 0.29366908908922973 -0.013183845680125681
Ni 4.901909419509177 2.668671336546379 5.102359831687532 0.8812355812284113 1.050801634487429 0.5173604634377412
Ni 0.7608594626796819 7.392857324230499 6.8982648713307 -0.07900742904315426 -0.2791613823913579 0.12101256983034643
Ni 5.154964666034285 4.52387656846429 7.224428582056017 0.2072211446076302 -1.3065767767443628 -0.900849498804597
Ni 8.201930955920247 7.229621822695087 9.077518919596026 -0.012060530708959873 -0.5286764026711926 0.21314805161502645
Ni 4.800267957227617 0.28727586440139136 10.45988890047706 -0.732696523843022 -0.212013423789951 -0.5674031298174292
Ni 8.225664770605592 6.974361301690456 4.789146685723308 -0.39277406021320743 1.0304742357839867 -0.8904139052935697
Ni 7.143471509831151 6.107227492720187 6.999115507723086 0.32418576962084816 0.08571080920525882 -0.22678518278248685
Ni 2.288794731428451 5.2064361339067275 2.547681302110066 0.17724645262241087 0.937134192168244 1.0669239939705881
Ni 2.5032034465009594 5.177939287866024 11.438790358314364 -0.7038294630996846 0.3153763988593342 0.8910068016825624
Ni 1.0353763681354144 3.3430966928430395 3.5256699209210103 -0.2837801121102919 -1.2877010228857824 1.181443242767107
Ni 3.5614098283055204 2.7856051120219982 2.8340551730972923 -0.4051156124976959 -0.5646116831152211 -0.5003847548153512
Ni 0.946632146354992 3.6085249752798907 7.961561460458484 0.21084537162377884 -2.666325252415698 0.9209149020959043
Ni 3.2563589093185747 2.851474130082465 7.106659694441431 0.8720022355556014 -0.08725218555044974 -0.0344286139915149
Ni 3.9773480939697246 6.9109415843838855 5.9449464050578795 0.31189615362021766 -0.4593748880618927 0.21454467485223697
Ni 0.8528121780676049 7.417684738145442 11.283307661895893 0.09615951534240859 0.10336451773128004 -0.46151250323018583
P 0.1139051382703418 5.479808827275955 8.04122067442409 -0.8845232508407476 2.0048688549655855 -0.2499119986079373
P 8.462325066696879 1.4853337040492887 7.81160821865711 0.33144605072768724 1.193299884995377 0.3063831942217885
P 1.8410517080042603 3.261203282765393 10.433684093813433 -0.5314436810036847 -0.9753220160918752 0.1760956268474193
P 3.9725398725635546 6.162838369246813 3.8910811907746994 0.05825451276651903 -0.1787127527552922 -1.1930962536250034
P 6.845325630607953 3.9728742789395475 10.315782347449465 1.0025055184852025 -0.5516525518513918 -0.1577693177344057
P 6.4684857969044485 7.777614454835893 10.327886050658382 -0.7343854815096706 -0.7076262111379554 -1.6131782576245441
P 2.382392364665854 8.445062467287508 5.661350818394444 -0.4804234812020759 0.7415056374942197 0.23282984631467
P 6.945484859222949 3.9599228103774387 1.4497799796741155 0.31943977029543047 0.11906547340630463 0.8860237466456741
Ni 5.2033632104516565 2.8650763353762354 0.8399266869796786 -0.3843886643629896 -0.06209779777200919 -0.6339466220656179
Ni 1.5395165749703226 1.057799671347272 6.967328825983424 -0.9711208335263339 0.4125201324918831 0.3892925294225102
Ni 6.989861489118241 0.616685124575873 9.211214588718043 -0.3687910670350487 0.6678592156526627 -0.004274201895321671
Ni 2.5880793999320573 1.5984082491857452 9.11156781527923 0.5193656667932282 0.05668151185244431 0.8123127901147688
Ni 6.427028444291475 2.0114181995574696 2.815456755785982 -0.01530963377387686 -0.09432940411220529 -0.24951810560362833
Ni 4.01363570477005 6.7945229754874985 10.374686674879115 0.13142142386849626 0.6146908591597994 -0.5147952738137264
Ni 8.309347706695307 7.161945202602227 0.13993279993479443 -0.9903570560481265 -0.15566692667942222 0.7874113988873988
Ni 7.551817846959298 3.9131691838095475 8.019975927737354 -0.12363972304054836 -0.7748358762152333 0.5224129382599841
Ni 3.2320647380031886 8.30445814319768 12.302250216153789 0.4750246787840077 0.3056010646401253 0.17923854335177516
Ni 0.17117448966168985 4.798397089124088 10.255290041634359 0.45197499605339575 -0.3161492724696168 -0.2892236517233664
Ni 8.573926416176935 2.513786956400631 5.683639455254888 0.2838952975319175 -0.04683495807566773 0.49709528543080195
Ni 3.753368126135686 2.4745258402570163 11.478592851266681 -0.772265801495212 -0.13806823976105254 -0.016670004456513225
Ni 1.1660117670165862 3.4443314446673092 12.753617481652931 -0.22933443156690178 -0.6108354899694513 -1.8139361631053343
Ni 2.977816474136699 8.248711696518624 7.935065629867642 0.9635191099196759 0.5088807081015042 -0.10791022812043351
Ni 5.669697420779027 7.777252934429414 3.4408644639691763 0.29988293120942544 0.6877600683416478 0.2327930795394636
Ni 3.2614021189889564 8.246036445510681 3.411366206402526 -0.6181042557167227 -0.11510648875855659 1.2428504422299949
Ni 3.3291329671427894 4.371378223001304 9.340492478472886 0.49826076649381285 -0.24310011789242647 -0.8608940414575817
Ni 7.491814497493952 6.011849371480876 11.31505457639084 -0.5625722840876892 0.4688907979721279 0.03592139648695749
Ni 0.545167350164173 -0.034451087135412395 0.2501757364875044 0.5819357762159655 0.7627156959129315 0.606264068548685
Ni 4.675688025154968 0.4169875786440094 1.8017119611722363 -0.02819985947298369 -0.3184216134435613 -0.7375145140569557
Ni 6.297947583158162 5.68587545896896 0.23691426417683997 -1.1268402107102466 0.20549927682051708 0.20943100777475543
Ni 7.937379360469107 8.913177165616789 11.42836682119456 0.8896338325944356 0.27208570649149916 0.16534533030945073
Ni 0.08951426024622264 5.014622444239154 5.628147880462401 -0.9674364426962114 -0.9857457825283604 1.1661179252639464
Ni 8.00932192135842 8.726207849396035 2.7277410595619926 -0.7352750832034757 0.047812234387272494 -0.4035626661882792
P 8.470757530178002 1.6028459121752743 3.57577755306001 0.3172751585439439 0.07640084465824261 0.8075457077434286
P 1.8018628959419412 3.252879275406215 1.527045024747815 1.3542051772556034 -0.8814824071318949 0.25583299207806265
P 4.539629820176612 1.042823688508881 8.148446723184733 0.5024079558929669 -0.4262459667184078 -0.34236758273619744
P 8.556727082838696 1.7007998663107482 12.607315595956994 0.4848177536150296 0.3526417109686959 -1.4625416942801779
P 6.45223545463322 7.819071807448868 1.3235849551855217 0.36388514509299913 -0.31583431233235926 0.3394889756368218
P 1.5801243546280717 3.489864939863334 5.841595855054691 1.0232538067761474 -1.494087073186627 -0.14326752457380487
P 6.7617963406909904 3.9762273807096395 5.7399516813700835 -0.07823224144002655 -0.3979882574242952 1.2211225636346001
P 2.4611586232274565 8.57349259168916 10.182575634677212 0.5146068119520041 -0.6355049676916732 -0.1593009238875837
