# total energy = -381172.0319723552 ev
CRYSTAL
PRIMVEC
9.18311495026166 0.00000000000000 0.00000000000000
0.00000000000000 9.18311495026166 0.00000000000000
0.00000000000000 0.00000000000000 13.44041697319021
PRIMCOORD
 96 1
Ni 5.10428742391827 7.817484602992907 2.3925558699634646 0.5038171775356679 -0.13542051772556032 -0.629830028794083
Ni 0.6810620348520041 7.484670156921515 6.565750756130469 1.7656811847536884 -0.987340637819306 -0.6564088077238759
Ni 7.944404432449138 7.1449591916458965 7.640648116494839 -0.16429503466806544 -0.3628397345476203 0.7430503562735203
Ni 7.291365590677853 3.589606104898693 8.752386296757372 0.10279707526358424 -0.22359058710458915 0.19879229711398666
Ni 2.81892237960496 5.944560793059721 6.630748842585226 0.06304242107346562 -1.6491603321461084 -1.4103164184268744
Ni 1.7962080690115925 3.1608372924292003 12.108995658373212 -1.3123028805948624 -1.0810205812729705 -2.5814166273967607
Ni 2.6482174588494525 1.9728177325744478 4.663905644490499 -0.12345588916451643 1.2399096144341164 -1.3390312977286423
Ni 2.7929800803347296 8.463737122937395 1.2042654082225275 -2.12692426423815 -0.5102009695748245 -1.3309762886346497
Ni 8.576845547755598 0.22167212612885412 6.535160882467085 1.0960846746949446 0.9895983235052311 -0.029423961688071907
Ni 3.343379248143761 2.5992347245813434 13.623744014130725 -0.19847605142514851 -0.04316085165819018 0.6127417058532286
Ni 0.018705086507444887 4.923894317063614 8.144771732274652 -0.730980826703496 0.6647108998316682 -1.630848421210798
Ni 2.4179508555924536 6.218474740894207 2.602427693592409 1.1165313725850707 0.09596591127436375 -1.9154883102182236
Ni 1.3135711052078805 7.934431569791626 10.592876263578159 0.502539853485141 0.697837764292624 -0.644614129081793
Ni 2.437253762872462 1.0386470147469422 9.821557985052719 -0.6648075733105324 -0.43684585372144125 -0.6018145174177636
Ni 0.31877070862928086 2.07052607389666 8.397289940969419 0.1310712396179291 -0.2491167564001516 -0.3852954924479751
Ni 7.159642992188586 1.360019299795075 7.789433860567829 -1.5501067830853563 0.4908701304566966 1.3652123269993843
Ni 6.673488895421866 3.1664665417929707 11.094230251938539 0.6502499872113316 -0.6808898235843757 0.2451508297738681
Ni 0.12321076939419648 4.943481900901986 1.368315325692677 -0.9682267998079906 -0.26404895222995173 -1.7595236497927245
Ni 5.12680442137335 3.37522629022134 4.0840856135303305 -2.0023710282443967 -0.48274647290829764 -0.38299769755273394
Ni 0.1892318548361054 3.560036475288024 3.9370207851682224 2.13551406278969 0.2406341728504372 0.703410373284395
Ni 5.985039963036066 6.908172576890893 12.189423214291276 -2.71118020394686 2.1296951421150676 -0.8024022158692762
Ni 0.4545109198373896 2.3653958896726213 0.6347965842490495 0.500422292921506 0.6657041169828729 -0.30569311013329936
Ni 2.212708240127093 1.0848564483497027 7.2967349578931815 0.4785180366492468 -0.1255521095719128 -0.32051526274779635
Ni 7.174795131585357 1.1902969723216612 0.8153981478093454 0.7650440869357922 0.9053666699486601 -0.2932327728827595
P 0.7098253869844696 0.3101238877468565 0.8006546570205474 0.7985144507790958 -1.4393351742567277 0.6653158804055187
Ni 7.163830492530967 3.8969649567835085 4.7547358328380565 -0.2115405979185905 0.27924700012662873 1.3238728448206492
P 6.032966639103793 1.5830036930268374 9.79819797766029 1.1802579642097544 -1.3282408919813578 1.1641726286121177
Ni 5.499179725942495 2.343292132382907 12.891295105559657 0.8228931367337763 -0.26453051985206055 0.6014805311171125
P 8.762454663808658 3.2341093653060735 12.068176713149787 1.0313903198403527 0.8862124656177125 -0.8164072718991165
P 3.4565611378802528 1.8326742178264894 2.284897623770706 -0.6816333866186196 1.321145675697473 0.10143619036031562
P 9.085305430337323 1.516517941976761 4.802838824709673 -1.0060510697446157 1.0439419312531184 -0.35476338529738904
Ni 8.93191068095328 5.420296769931424 5.687137882757792 1.5125133982126144 0.19614097553406865 -0.13320037014578998
Ni 1.8451265214762 7.270391356506807 12.843326187163916 -0.7422417443292958 0.15011102985819952 0.6747955377611798
Ni 7.772643453493249 2.2222770457340237 3.159653588933295 -0.8433557754635025 -2.3226613194655803 -1.5545902727780065
Ni 8.725051837285596 6.855709442118919 13.268849686868062 -0.45187009504441533 0.055939234369781085 0.8262031749436158
Ni 2.2040761122283263 4.753060832701104 0.006319819595671645 0.2623296555459998 2.326128709188891 0.8691850778217806
Ni 6.940579788970412 6.20939264037093 4.439437259909332 -0.9825144200752564 -0.10726231012378945 -0.4656895174260109
Ni 4.36028064707764 8.576955745133029 10.554961019250046 -0.10210210607908866 0.46916282068659204 0.007297304992361626
Ni 5.271172168922833 1.0203083345194557 2.976151997723605 0.867614648010867 -0.2673391929454493 1.0233893039127473
Ni 2.814578766311219 4.653791361865285 4.375836843524993 -0.40965926600432023 -0.2292380151983536 0.2700673905098897
Ni 0.6530516981319843 8.068991750749744 2.4704828637253216 0.26144622449978194 0.429345431579338 0.07718194579864127
Ni 4.5758634497919495 1.9734880999538205 8.425985338052469 -1.1114876395135762 1.1284324948980307 -0.8423103649181235
Ni 4.035519792673503 6.678576341013266 0.44220738264721104 0.7191750923178195 -1.2651879293849306 -0.2447556512179785
Ni 2.003737280058648 6.037337801741892 8.713341529310588 -1.5256465931604628 0.5025995030784829 1.3201028362552554
Ni 4.234123016148641 7.352405754659879 4.770730063860697 0.8130265283523418 0.7995678317442746 0.2839436342713497
Ni 6.450587150223176 1.4020871486293844 5.142330313541909 1.9165679164356477 0.715651138324961 0.34881385258217346
Ni 9.451445399966827 5.8313605370936585 3.3487201477032538 0.3954415797430415 0.6306687226452945 2.368506402824153
Ni 8.672524420710122 3.0000042200685595 6.369615035598308 0.3539234058945969 0.10701214178619635 0.4256710680515443
Ni 6.496401709890142 5.632472637060155 0.6116716645951403 -0.3396843794770795 -0.43005017095584647 1.7629421885559702
Ni 8.927778279299615 9.165694417173286 12.441820205870867 1.4704573495828288 -0.3596651934743806 0.024975181888098923
Ni 8.435746989069903 7.8913535783308655 4.765823525630578 0.033185485613033174 0.10028022237900149 -1.0484848134287943
Ni 4.537872903922589 0.5677433167052031 0.6105017357714139 1.8765744067618455 1.0522599642005104 1.1206204550527796
Ni 7.425650278192394 5.341863786544862 11.920856594196632 2.609641940791041 -2.48865559621294 0.5877770654880909
Ni 3.149441046979871 8.155946664657641 6.466453735950293 -1.2760485262485186 1.2761755387446858 1.8820398007517911
Ni 5.063156252792124 4.3403716542217605 8.209715638352172 -0.7290478713468412 0.73212882426501 -0.6276150234206351
Ni 7.573369862638738 3.376227249733005 0.25826041037040387 -1.3106645736604912 1.703193093521796 0.49869014072174755
P 7.915808213005776 5.641857780371367 9.734839995506299 1.313647310437899 0.6214724008580071 -0.621540277981465
Ni 5.008571818504602 5.219177373004942 5.8030343012250025 -0.5562429994355517 0.35162201145492994 -0.9111894472780243
P 3.9978965713955787 4.422909489917629 10.317321293131428 -1.2626042278181544 -0.06199855318998355 -0.506796828989282
Ni 1.3541880219060145 0.12137598305996923 4.935387903529674 1.1696110260188695 -2.127043049204201 0.33538318099856435
P 1.693733691115487 8.250615394985713 8.239607595291828 0.22587115560864968 0.9382567358084615 1.7822560583932336
P 1.5643344206670575 4.038586953012 6.898240119938439 0.37153674810098597 -0.30038763875998586 -0.8672837470340096
P 5.925110955943137 2.9147849148552014 6.6811375117270595 0.010005190841827931 0.6754185160571593 0.029165822930678802
Ni 0.72763971135768 5.696791173020754 11.137253144710584 -0.23819933815669944 0.5952679745484974 1.016075029639521
Ni 7.962100294641609 7.465266235378862 11.064043517014255 1.1150519598260666 0.3229542112065922 -0.5758749147338663
Ni 5.845677013044911 2.8590985067933694 1.799402874645615 -0.028932366763634042 1.6310114291512234 -0.27392481658276696
Ni 6.33714813327268 8.507329368826166 6.559823973847634 0.4421518393153869 -0.6384437386050231 -1.5485301826268556
Ni 1.8494609516551552 3.710575275973646 2.191580647939122 1.320729928316293 -0.5677605131568481 0.6120439084552557
Ni 6.397655676597121 7.858340280675475 9.371626684559068 -0.010763923384723397 -0.243994861792554 0.06386363142318033
Ni 3.155152944376715 6.129141400256756 11.411719916055183 0.09349610957763253 -0.11898191255356282 -0.28178673582934693
Ni 3.9730746121292313 2.441165769771265 11.075104578773898 0.03885399675272018 -0.5203830523141489 -0.4382082812866066
Ni 0.0160254536129128 1.7293274440257214 10.683128834005682 -0.16608066581357847 -2.627782359145494 0.6087217860605582
Ni 3.2121709040825057 8.998708657906077 3.1888871165427997 -0.41265074453247647 -0.02801653981758401 3.150459863920774
Ni 3.760035532210623 3.2486646022417602 6.182417240687284 -0.3933803263386387 -0.41694757213561745 1.2870327931741643
Ni 6.919027018567853 0.41071848204628386 11.804852733286426 -2.543565617987258 0.8801868282489228 -1.6934172450819547
Ni 4.787497513148312 8.993575296740747 8.101130815877514 -1.2681151303340545 -0.8291234339142044 0.5227016731449966
Ni 7.36730994995743 -0.30768301583675844 2.645383549626517 1.9032503733911352 3.407669424631389 -1.179391245334085
Ni 6.608334696015747 8.335366361344988 0.45429419832844187 -0.17828157875514458 -2.0620149651592747 -0.020045862907281605
Ni 7.024228781555378 5.217092805948537 6.817879600758314 -0.5572876386499821 -0.8244244857766382 1.0990432431026365
Ni 4.366984320871364 0.6000935934730497 5.385655306024489 -0.5164459220432719 0.25742013405952435 0.25475415719158706
Ni 2.7113330067730956 3.52763844632329 8.71219914983122 -0.5305671919360023 -0.4105781782741638 0.359246103659091
Ni 0.4956687219964142 3.7575652743332095 9.99616205634633 0.10368899095023433 0.4436438504798811 0.411098312443692
Ni 1.343149917933336 1.3127905404510771 2.689010691351476 -0.9319176809643112 0.33296351581347816 0.18278640860403358
Ni 4.832678437895049 4.67933878719972 12.416660307980399 -0.005809664703241608 -0.5993046065117161 0.4594736184232861
Ni 4.700891557602279 5.831268705945798 3.373665160707733 0.8539718604164519 -2.98735884956081 -1.6048072599520296
Ni 4.096569139770313 6.444186519217388 9.275970769391511 1.3431640889500933 1.2782573609743793 -1.05716588614256
Ni 5.906276387517211 5.305663948058757 10.24970234571677 0.23904857353087217 0.5774731124589215 -0.04268134091861036
Ni 2.222846398850751 0.5983056410242306 12.44776168113736 -0.10753176173509221 0.263265794207024 -0.40012278726879474
P 3.9828087138023087 8.44636266976243 12.614274509993095 -0.33660548344143965 -1.5781683172082628 -0.971940501214152
Ni 4.095430433536858 4.39419388998205 1.4714169103286612 0.24039711713896664 0.7726463247630823 0.5295549486214041
P 6.279974060615529 8.4986329591239 4.220116011165675 -2.084794939168267 -1.0400235700353184 2.8322411105166383
Ni 7.778933887121606 6.898603771283962 2.26278835661212 -0.47160896823423937 -2.830552667070622 -1.5153369837043387
P 5.123177091032911 6.851476026202609 7.3123398248489 -0.401094921374077 -0.7433797145884811 0.1136594718993849
P 7.547721423041657 4.343007208165321 2.692008060017601 -0.2668123739077018 1.1755528454246014 -1.239181220908524
P 1.8935582688571535 7.133342551441705 4.423644139100503 -0.28469002551907097 0.10288732098454538 1.2468233108348141
Ni 8.801244140664393 8.888162322113146 9.125142700590132 0.3099161470757114 0.6371610152378576 -0.1363520284008942
