# total energy = -381171.8174986223 ev
CRYSTAL
PRIMVEC
9.21409188913815 0.00000000000000 0.00000000000000
0.00000000000000 9.21409188913815 0.00000000000000
0.00000000000000 0.00000000000000 13.48575485442984
PRIMCOORD
 96 1
Ni 1.4417565801729015 0.4317824754375538 7.467871182874234 1.2324924960344386 -1.5227574445381258 1.5287550568824575
Ni 4.883072427566995 2.6174101902781657 4.13724053417247 -1.3248902303415697 0.24849840608986234 1.4070194928431574
Ni 5.171528784247655 8.75435465291248 1.685004917035699 1.3934672080800197 -0.317909192583517 -0.9239984261172346
Ni 1.3193473711234363 4.348093045811556 10.834603564506121 -0.3077523066551732 -0.5658460697429545 -0.23554107459824597
Ni 3.651949985058435 6.977020850791403 1.4381206995638751 0.4531021676793035 -0.6561840933075795 0.3036241434194126
Ni 2.7241093728745387 3.660638873589383 5.1950495962868395 -0.14590136265222614 0.02900590031404682 -0.5093010834683744
Ni 7.696466349608964 1.5936324546751477 11.906855715456398 0.348708951573193 -1.4396604188066302 -0.7065026390564735
Ni 0.2817604761976904 2.8980898535122503 12.543990811160691 0.9500917807701768 0.1978643859830786 0.9147424547366053
Ni 4.688489237750916 1.3830904579284193 10.509448401749202 -0.6983704968676424 -1.1060021909189728 -0.26686071064713396
Ni 2.917070882540621 4.671129888872543 0.9073051658753875 1.1874141156385614 -1.433683118177273 -0.6176735959372072
Ni 3.0211809053520553 0.18938828488103288 0.8072852783968137 -0.6330817029621613 -0.3126967951446421 -1.3361048681104666
Ni 4.513697917038206 8.515543822641947 12.514267993956947 0.8343247756094856 1.258498433179897 2.3680700866176827
Ni 6.76364091378218 3.1947098954934616 -0.26491435223042376 0.41571421394914854 1.1733206136599728 2.1053552798181223
Ni 7.203733578579291 7.716589926015741 6.74539885491307 0.5212505425207667 -1.7738428946288742 -0.07925451205695383
Ni 3.277802574997269 7.53973464874849 7.959980159891664 1.7366899397276607 0.5036230592469907 0.23779824606353883
Ni 6.523291330187502 7.445566630947546 4.418108164878486 2.5808980358891294 0.6150269023429794 -0.22459871665412934
Ni 9.272232680358865 2.7228746845785183 2.5558876995876667 0.35135024585078195 -0.2988868858447433 -1.005353786567275
Ni 6.805859882232662 5.625580798063202 13.196917017325577 -0.5834555552946017 -0.7530401204963806 0.05234123260587759
Ni 8.975529711551802 4.8795065740553545 9.03499745977952 0.0920704328746995 -0.5370273457390492 -0.5617608439299874
Ni 0.3660703372231712 4.320764049647408 6.571918699457999 0.35258848913325724 1.6343343228768694 2.6085134836135526
Ni 1.4187674212283463 5.3359911080958975 2.47819632067436 -0.08567481376100083 0.3928537644112073 0.583544258353666
Ni 5.6026745659445 5.318576474666957 3.9895856351060965 -0.5015150117650523 -0.21137373332342305 1.5270478443833637
Ni 6.052248531164033 3.2579738495268553 11.021934342696847 -0.11458224082397041 0.3374745163099543 0.08923887696317534
Ni 7.053995373365677 1.538937605979805 9.42682579052153 0.14888435653995005 0.9803541791991437 -0.8229049638083182
P 5.2293932805089005 0.19006459921631555 4.649038182465542 -0.2994031633595295 1.0696187671939321 -1.7040153323127751
Ni 4.90743448618399 3.805456753802439 6.34995675738226 -1.3677093823896251 -1.0953930479445586 -0.3760107247119395
P 8.78866793063173 8.471887455876695 8.108822755386075 0.06800027929937322 0.12173684959088067 0.7587788227523707
Ni 3.3596237098380106 2.3383429931023163 12.539392057962605 -0.8680213965309824 0.22609998379000418 -0.4900779735727044
P 2.488403691527578 8.16995088294919 12.361420032773877 -1.20151096005126 -0.9886758116909619 -0.4665819473332932
P 3.567171126762302 5.014446947900249 3.3121960153148406 -0.9747170355180245 -0.11217131738963264 -0.038651908044243115
P 7.188152549410857 8.748125926881812 2.5335149633819456 0.05907186646149181 -0.18321603994228447 -0.9598298339935469
Ni 1.534395058741462 0.737084034676304 3.9775824377685924 -2.0048863384670828 1.0002822855816385 0.06430149029154733
Ni 3.0351771107375383 0.9042027811793427 5.535456845136314 1.1952575229423803 3.583056712557874 -0.11666046350923778
Ni 1.5414622671224134 7.345658233979285 0.6928296733557412 -0.419508133773942 -0.6091796995335832 0.8771285010385732
Ni 9.009382284682982 8.08437961276158 3.3992728680962534 -0.26132538265120153 -1.6707303450074 0.34933990028897255
Ni 5.325192192551602 3.9296534966536054 2.149279044251283 0.3420395099728174 0.4948386281861413 -1.1509383893100307
Ni 1.3268568559089322 6.297509225667509 4.693447340527696 -0.47382294516642265 -0.31764154074442713 0.47793722444511233
Ni 9.145197997245205 8.78339747014424 13.387510505408994 -0.8651546165061487 1.3131924822886674 -1.097484897476581
Ni 1.341304551790721 6.671840917563903 7.397920562449633 -2.1484120017982806 -0.2392432060401815 -0.4787134404895046
Ni 5.012051284042299 8.06438503363946 6.198726790712485 -1.4571547189366516 -1.039576712305887 0.7185803961566141
Ni 6.7322392890595175 7.257737370392533 9.002078274143765 1.1723569641951228 -1.5085338447395762 1.7099592086010358
Ni 6.405544451569277 8.957350308506667 10.974545347359074 0.5304085548709511 -1.1049094720754262 0.42911248963292553
Ni 2.3713662979749763 2.123940291907585 10.08899004508634 -0.318709062776993 -0.19014644851353057 -0.7413819674321619
Ni 5.6599770026083025 5.880101654786829 10.980640469059203 0.6256566141426837 -0.13181737375533428 -1.444808795776789
Ni 1.4372048188427973 0.7654735728021833 11.951952244763948 -0.11632853409111578 0.3359377679504537 0.11809693884544822
Ni 0.9251132410225386 0.5522696249456027 1.7331890884924754 -0.4385795485830962 0.8261964900753964 0.03969988969278324
Ni -0.08240162262170636 8.802396927356133 5.8710368313120185 1.0469737761009066 -0.7880441473753912 -1.0877928669997976
Ni 4.677026907599803 3.054674128904544 8.962821636194555 0.14266614354438012 -0.13853232388166464 -1.5909402721619503
Ni 8.904415351337743 0.10387045642563969 10.330532853564113 -0.2596783339660818 0.6686290039391517 -0.6532622916750943
Ni 7.865489648879073 1.2060324706424181 0.8438587728251196 -0.5477411326121276 0.49636380658141616 0.7550988027976221
Ni 1.973133252049655 7.972271758301298 2.933772345267234 1.75699162739949 -0.9142817130501028 0.172625923131264
Ni 0.1670551692698854 7.135936291399316 9.823954066844667 -0.8308663847472401 -1.1703134514025328 -0.361101668810591
Ni 7.32452110747876 0.7449114056275663 6.907174349603705 -0.3522069374241224 0.3844123185120734 1.6979652694639533
Ni 8.990226187911146 4.945295189231357 0.3500636170153631 0.8751675206574606 -0.5554295023953209 0.6524709061220505
Ni 4.421953205370496 1.9829094034084418 1.2989455291454668 -0.565063168830343 1.3251033747936405 -2.1853942354495848
Ni 7.156695640137626 3.471860561582951 3.818100330517356 0.3107802948482196 -0.2827814956424485 -0.4801810261739666
P 1.896112659016574 2.379456270541437 0.652478401305284 -0.5375850180147322 -0.24900645607453245 0.9349068454996221
Ni 6.1675444613737405 1.5844091488220415 2.643410514410329 1.757121725219451 -1.0433680610275193 0.09183106317038378
P 4.679938560596388 5.973882680733796 8.857645542966333 -2.1198732709286396 0.7889139515748542 3.044634543353827
Ni 8.271600743260343 0.9114220220743564 3.95658536546284 -0.5672372936635264 1.3693412615660934 -0.21173805864137726
P 8.70104191798134 2.8253353849646725 10.39963393472832 0.31765928135624 0.1962610460517007 -0.7169420892222427
P 6.676954738491449 2.984978738821732 7.3797559019513175 -0.6196224921334619 -1.2410054186014563 1.283847710577963
P 7.61921540428185 3.772599302581484 1.682887518748942 -0.22339801147780883 0.5240700142474329 0.026807350000831252
Ni 0.4329434509994832 2.4506074871225416 8.33167477872596 -0.5012383610648979 0.7643326626910643 0.85988668323899
Ni 8.11794654904816 4.761584627693664 11.369043921893523 -0.13881951610478027 -0.046284484888836415 -0.22960388317820457
Ni 5.027484887742551 1.340770134468563 6.4299406023257895 1.249922261475112 0.8883313117329281 1.3487796353646577
Ni 2.200877958114814 4.564135855339806 8.302221934410822 0.3000477389220639 -0.2851841915466702 0.2473437236601288
Ni 6.025076174559828 6.328938492665457 1.8479662653360192 -0.10568648099623734 0.5930863935161463 0.4092746289713919
Ni 5.447850182078623 1.3813213523102412 12.733519150236496 0.956674833304333 -0.8321879317721409 0.5217364810182499
Ni 3.710828031413428 4.076249696576601 10.789318146317465 -0.1350158260879739 0.8871933414737431 0.504091514242977
Ni 4.363462150869479 6.199931993914868 12.701598772147669 0.8655690783357479 -0.2187337732329201 1.9045791195048878
Ni 8.0871161980147 2.477927269194929 5.737460143047803 1.3828817192546894 -0.18381047899317376 0.3638054408949993
Ni 4.195111480297949 7.911781245888069 10.532698319490603 0.2766540425884719 -1.0444420108179884 -3.0309223359740574
Ni 3.589800936128164 5.870012224308157 5.782759382374103 -0.08494436335287951 0.3941331453442632 -0.2235797884713117
Ni 8.312373099304295 5.657074563703479 3.257227508094186 -0.42726926577659957 -0.27227185436037626 0.6499807927103451
Ni 6.400826836587469 4.659778127822566 9.119485152775995 1.8639394916066545 -1.0683280734069667 -0.5421533541117051
Ni 6.602504877059784 7.879854417935009 13.437650828546703 -0.053903434886674914 1.6318357248247315 -0.799722612154584
Ni 0.26534372890650243 6.856159609157843 12.313761985956674 -1.2818947006166503 -0.6331349247975999 -1.416730292373018
Ni 0.38177022817532663 3.784964613725208 4.536634555659721 0.581352907129302 -0.00890038781342338 -2.5284279910148717
Ni 4.4294258337889465 7.479188851784693 3.6813410949587726 -1.795710641236243 0.04634439159249438 0.09622636402460202
Ni 3.7759071615238065 0.7554080989620904 2.9677152164976763 -0.8460454064805236 -1.4425840202113285 2.991546405279596
Ni 2.414792312446194 6.229684296212251 9.918449184903139 0.7059012580270488 -0.1305963568640396 0.06751999722884501
Ni 2.275281749087673 5.846110870279229 12.40290279529263 -0.7903455418150582 -0.46882266373835385 -0.729331464025531
Ni 2.607514255726482 2.78393647068095 2.8641718603295643 -0.6234048419940296 1.0622592415050673 -0.5079219437326608
Ni 5.5056593937893 8.952310200313212 8.421301170697737 -0.6744607801295804 1.2998700541481485 -0.15399133874921223
Ni 2.509255181183501 8.191880421341189 5.685688925668336 -0.7203662844124432 -3.831313949171208 -0.16744283626842774
Ni 7.0360002521557705 4.563371085723615 5.994323221897164 2.91789792655551 0.9125881273977638 -1.682293367254651
Ni 2.9978600391040917 2.604980380492112 7.297478669568388 -0.3369839498267809 -1.1332905943212805 1.065199555080314
P 8.580162248164259 6.26969188264001 5.693766919915506 0.1072258004588992 -0.03315411815446548 -0.6309410024700747
Ni 2.044892598687008 8.609306420405392 9.965419860474945 -0.11836947578054453 1.0148362721364137 0.18499370066799753
P 1.1347061863178483 2.081186906134945 6.223756870982178 -0.4663700884328033 1.3122391172364625 -2.0050737718875404
Ni 5.6660767313543134 5.706821445122979 7.166937103130361 -0.6211283872550271 3.0916101407724175 -1.2737656437516127
P 3.564508254243273 0.49588214759370103 8.721777310081071 -1.0704214656008855 1.1124440898895744 0.22177204583861163
P 7.457812158898373 6.972395376727207 11.52708402378411 0.1997289499956431 1.0357377981757712 -0.9194969387024552
P 4.732403599085485 4.042452407995988 12.91459263871209 0.12108404649823017 0.03610780146615072 -0.13675646292816449
Ni 8.285901013673952 7.042348761379338 1.195883148567297 0.6980380532288882 -0.04191129552180524 1.2546091254278198
