# total energy = -340891.0443654426 ev
CRYSTAL
PRIMVEC
9.05599316975389 0.00000000000000 0.00000000000000

0.00000000000000 9.05599316975389 0.00000000000000

0.00000000000000 0.00000000000000 13.25436139775605

PRIMCOORD
 96 1
Ni 6.572359890421664 1.965114298484099 11.46496978940158 0.37127295291663803 0.5270332106408149 -0.05641411712367059
Ni 4.685987452733705 0.4225843382703494 6.2660255255461275 -1.2514528391870252 -0.6597389005383735 -1.1617946152982443
Ni 2.6763538917224268 1.561072106272415 4.672414330138967 0.18716705417023252 -0.21079909176687567 1.4184030520897506
Ni 3.5330236796157535 4.495576139898783 4.951498305903329 -0.18154070912239056 -0.09053779828025697 0.23756247590364893
Ni 5.235776799362075 4.519429625963997 3.0692200827370413 -0.5586287260589089 -0.6775119082510783 -1.1762578419114258
Ni 7.182760999477701 5.963172284453227 2.7820237482721404 1.0270125024876313 0.6711006054080958 -1.9307503785836169
Ni 5.069707996224683 4.537432940427795 11.401852233657952 0.30777621791457316 -0.2162698850734598 0.4644533310260647
Ni 5.595091441203184 7.797844057013507 12.53700920736435 -0.9782975537804314 -0.6341844491080368 -0.32488022458471144
Ni 1.8054028025668214 6.216703869829736 0.4689129882370998 0.4824304843297756 0.8004430352603763 -0.415827085377929
Ni 2.8914880659689026 1.519233417729785 0.5724574031848753 0.05715690882696608 -0.32180621364507805 -0.5627630599422566
Ni 0.3291527509190144 0.195654732892537 4.8230499096801775 0.9552977504511483 0.27320979279361335 0.1490280812066659
Ni 8.611307701392356 1.924054425355899 1.2398451605942036 0.5783760838891652 1.2625062687877096 0.9697386084668267
Ni 6.921459371943275 0.7025811581483692 5.111650828689011 0.23777022103908083 -0.5295883729625008 -2.288741526789684
Ni 0.8407665582505318 7.607142952396472 2.5531081635875315 0.2225408056838361 0.9315258448425312 -1.5650171245382851
Ni 7.486625795010039 3.748873277324322 3.703202092463241 1.2812452399581096 0.47810923124660243 1.2388163813699373
Ni 7.448300831825535 3.9357346408283536 12.808378382529261 0.22677798369363525 -0.3033991718928 -0.3439976621404527
Ni 7.618970079503978 8.688075355672849 7.19401669341485 0.7534373559347992 -0.10302693188620322 -0.6166482399964863
Ni 7.003017646621831 0.4191421552584331 0.23971938456152594 -0.048297144443491015 -0.22431666663733624 0.005044761512759054
Ni 1.8505107046514186 6.504702565291364 9.250390952083073 0.7445991888178789 -0.40683979427765415 -0.8228463426562409
Ni 9.124728179365487 4.706327213440794 1.4938060000479676 -0.24679505024551043 -0.17935604276624595 0.746390733500663
Ni 6.3955959593256475 1.8718647365959038 6.9019835529866125 1.3077018914877414 1.408202457407665 3.0985264082762765
Ni 3.415830071730434 4.111819372435042 0.4020208945314426 0.8647918338500913 -0.18554160275166756 0.2579569803996009
Ni 6.136540218102601 5.753743385917111 4.805726700305027 -0.7303974433962002 -0.30624281198918224 2.269128637654763
Ni 5.29437813130133 3.002414926566018 9.348142248186535 0.4106154592700025 0.3146150952132776 0.31384479270615623
P 0.0771860411659186 5.321383102997028 12.489452564720896 0.6572881250050358 0.5776744298364502 -0.4654259793519791
P 3.9301018130635232 6.022498095847766 12.587733636426035 0.8928312564858107 0.8937080026638092 1.1591186111279779
P 2.4963116910912517 8.407022606988754 1.0599514782513622 0.301281611329165 -0.06693532836996859 1.3646325432365143
P 6.094810201478264 7.813320749377004 5.777748107068614 0.5545617550783869 -0.619678542182378 0.9300675151294497
P 4.729592059948589 0.9039701459294761 12.486363565443428 0.47262583953452797 -0.317621229029453 1.067173133866917
P 4.009124409648586 6.366471885223246 8.276911530415726 -0.4787653767733625 -0.6854956977875033 -0.7026238728273577
P 4.722093697586404 1.0760331109600205 3.929440725560577 0.7999735518231255 -0.3335294156192772 -0.7368946210847697
P 0.3138363496349993 5.913011138168027 3.6034231594843025 -0.7813824190844995 -2.219348223797526 0.40684853602840254
Ni 1.6087247424436961 1.0429877918058958 2.6302353407977086 -0.9430865530969371 0.5306402112657829 -0.8634782572449904
Ni 2.144441075653181 6.910728020011886 4.3792546241577615 -1.1576631096283738 -1.609674358236344 1.4565525665762786
Ni 5.945793833519611 5.507755442868742 9.192044999151804 -0.8701998922395402 0.7522834448360142 0.9132913241123755
Ni 8.770131709976912 2.4897098720549797 9.88160363909145 -0.585557689239269 -0.9314885638466925 0.6885943913174851
Ni 2.3289841049003055 5.344919629300554 7.030139440629692 -0.30207171133062816 0.05619634468590967 -0.06631929205252449
Ni 0.21570289061887343 0.11880104667672976 8.872296897161691 1.2600426377385654 -0.29316103910455965 0.3852867506972268
Ni 1.3886278839285275 1.2685001342493096 11.341292995990793 -0.6380855839346559 -0.5578980185404714 1.083312976851573
Ni 4.080069060307236 6.77423609063645 1.5956795842519953 0.05578676795231683 1.0806390295638355 -0.7293623172634663
Ni 5.504142101585516 8.12676678570547 8.222436108974312 -0.932755089263942 -0.5626895263918439 0.07146124126478015
Ni 5.358277219257346 2.84217818304366 5.108787323642001 -0.8548069547232375 0.5214757711576955 -1.5037996724887004
Ni 0.8051475258315118 7.549637395633334 6.5395029359259125 -0.9534964355763513 -0.45745478822104446 0.5534960328180338
Ni 4.889520899702451 4.505999588061677 7.292814862331199 0.9640125046163267 0.9308506731523776 -0.9205040398107308
Ni 7.891338130717861 7.06901772499817 9.213649882107683 0.6600276354233859 0.9156924773547003 -0.036948295089575076
Ni 4.87175304106162 0.6499196521431209 10.311786861248406 -1.3574797342418168 -1.2241225268031886 0.9607963116718743
Ni 7.963958140116854 7.357559780051259 4.62345219735226 0.6858682506355737 -0.040251391320879064 0.650342546925138
Ni 6.921921227596019 6.206796613278732 7.1679191322368965 0.4503055787707729 -0.15479969358312048 -1.286970572477661
Ni 2.6158689131994337 5.171995439317541 2.603249386687712 -0.7656074156384299 -0.11970670653472933 0.43592745567222985
Ni 2.3914704579185186 4.982299549944713 11.604935597765103 -1.0535558001937986 -0.02274654966789631 -1.3715655229109218
Ni 1.114149786301131 3.472040621467253 3.7096970507798592 -0.6269521930256557 0.5179356192149209 0.46978322787941024
Ni 3.687229131672875 2.7702645411135682 2.882770766923202 0.49008157311713024 -0.21498690459597813 -0.6068824188589741
Ni 1.2070189964753022 3.582958426071178 8.192030611835376 -0.4413044037134271 -0.4260245947362211 -0.2950970797850079
Ni 3.6557595553339923 2.640836286427146 6.957677911111542 0.014512334683562104 0.15510128398393933 0.12334533172858111
Ni 3.8243278125921125 6.9299357815700935 6.079325358720895 1.8604525614993184 0.12431155229659237 0.13989783677062356
Ni 0.8535128686669282 7.0757372719459255 11.19761604161758 -0.7612864196655728 -1.1992854131548507 2.1181956261159005
P 0.19736088200972998 5.981546894637858 8.015800078738312 -0.1889567990808036 -1.3009617445504305 -1.2992007959952656
P 8.536025229995195 1.8347532764989998 7.749811974727521 0.016819385550183936 -0.784878605163216 0.6320460626087954
P 1.8491341936863799 3.156774330507388 10.379662435814613 -0.3490920459442246 0.7948927948661083 -0.2439547525832379
P 4.151412174666292 6.296804129604533 3.8125242310669036 0.051766848159646335 0.01383304922835037 -0.23949131749524563
P 7.071290779289122 4.023342318958528 10.496672207038152 -0.3169802530113444 -0.7063432306604739 -0.28267582330251967
P 6.146148626878301 7.894860912069177 10.333974950165786 0.8619443370989672 -0.3653887262217191 0.3767887405285446
P 2.481948885890254 8.591221508494618 5.725447029592369 -0.40302427718630585 1.950361725056641 -0.06388265758657385
P 6.751052748067373 3.6533597171383656 1.6366887438183255 1.0393034040398423 1.404375627462407 0.5869106037227376
Ni 5.404553344463589 2.4302210527830024 0.6068855724992728 -0.7847719043820227 0.41018197127700967 -0.49310544754511854
Ni 1.668213561715674 1.4286010378738023 6.9257220279383 -1.5831729695117056 -1.1855868326218355 0.05402761916936502
Ni 6.966042026422792 0.7528084131838646 9.312421788643777 0.32566543949016813 0.5337412187886098 -0.6194049768060171
Ni 2.6657583796889037 1.4342700896113965 9.271638123307902 0.20999227959486413 0.08493742137434404 -0.6936720629507086
Ni 6.609616246409625 1.775671976920619 2.8574148915875943 -1.9264885179834697 -0.029989604383554802 -0.6622716942625562
Ni 4.078801221260489 6.75172289156351 10.43458884571694 0.5165688207743814 0.7783186925575112 0.5330112826011207
Ni 8.381484706190005 7.027966907863161 0.2699872306039572 -1.9714213739404176 -0.9019159923958983 0.6276443339966739
Ni 7.525430725833669 3.9810779987359184 8.204979776499252 0.8935624782248804 -0.5107223892959333 0.025016833759311755
Ni 3.13167111738181 8.455988362172736 12.015595909800803 -0.4416067654451943 0.008402108020766174 0.8476425757643143
Ni 0.14665003693783274 4.79993901505663 10.053605023368297 0.04812385209042034 1.2056730618487494 0.823474206048227
Ni 8.767460191985553 2.708674731421268 5.758980466779492 0.029918641936303312 -0.8179674172973849 -0.3960301052566598
Ni 3.6607765755618313 2.544525798840378 11.531439873824537 -0.1286538884256881 0.4488508486021173 -0.17848006791919585
Ni 1.0040470210844004 3.3812361777406403 12.778000053369901 0.035898513668822046 -1.1039339955360343 0.16182394741975356
Ni 2.800638342276334 8.351708600577847 7.972140229964963 0.5535677665962337 0.253406384914441 0.08613966921256133
Ni 5.6723028391500385 7.9139056657499465 3.5277938435479244 0.10339074298352516 0.2137951982807221 0.5906199342535248
Ni 3.2815659166799946 8.553249729044564 3.338058107805055 0.550141257413188 0.35371823186232626 -0.8464616680823357
Ni 3.357002339961403 4.490568175664135 9.353868352681234 0.13162376968728942 -0.4885211706085458 -0.14635027726418665
Ni 7.188756066970172 6.122412868724571 11.22770367339551 0.311102968294961 -0.5125203617366205 1.7715479279471102
Ni 0.6576154351568713 8.731752410833261 13.317054425669605 0.7641339164166968 1.691478633298345 -0.2620622608172261
Ni 5.098931686252187 0.1663078813576351 1.6193917968234288 -1.7600106167314722 0.7857496949142596 -0.15187326396494488
Ni 5.815967115132783 5.442036100281326 0.6187371507883939 0.16614751449577192 0.2967924652095598 -0.5775548735394505
Ni 8.201333833640538 8.585543400763832 11.202877573661576 -0.89172619634709 1.2407341672179408 0.3287525630559241
Ni 8.999529073499284 5.145941346906904 5.881278032427285 0.018943373871722215 0.3038357452095864 -0.2700743324884252
Ni 7.871505505629471 8.8853329993602 2.6824974775032318 0.5730754976118583 -0.8935336818694741 -0.5058583763354126
P 8.686336604980168 1.7350739594451623 3.4894091108083596 0.008507009029746639 0.161774839349373 1.1735725817697786
P 1.906929542231632 3.271287364408158 1.7123841685049979 -0.5069063579839528 -0.9289745391755873 -1.3409408560465295
P 4.746970510882205 1.2528604340083742 8.299788780414946 -0.6239748555648866 -0.5044977485424602 -0.936967841793709
P 8.48710475477717 1.487347265704114 12.449252105346524 1.16932409090607 0.21293439294232364 -1.888381683809419
P 6.4838466129723855 7.628841112082218 1.394305991659313 0.4502664980027213 -1.4966031547402612 -0.07452342512987165
P 1.8031569162554422 3.449889662121956 5.894452691321617 0.42710137274016763 0.1467004615147538 0.22954526202612727
P 6.9508279578618355 3.9262258479777556 6.125490095210888 -0.7585656783003001 1.680583583652396 -0.955165338638342
P 1.9555149457015908 8.521544696882714 10.16752670091369 0.7423080787908571 0.9400685922062196 -1.0153880308748255
