# total energy = -340877.8374230064 ev
CRYSTAL
PRIMVEC
9.17446168999246 0.00000000000000 0.00000000000000

0.00000000000000 9.17446168999246 0.00000000000000

0.00000000000000 0.00000000000000 13.42775205210013

PRIMCOORD
 96 1
Ni 6.186825757435451 0.24143421613026944 13.105190978635063 -0.7411693372007235 -1.0301939855394064 0.8755521576903887
Ni 4.753747319601424 -0.044242924006650405 3.400846337283099 -0.6557241229520255 0.6832333841158879 -0.2040304055844744
Ni 4.934025491617573 7.24851281199285 4.816924497623694 0.13533824242439918 -0.20959890081118743 0.5872677299518403
Ni 3.211813893931691 8.130545557928352 0.6521831225688364 -0.5469368915432774 -1.1312493955215355 -0.6011005220698745
Ni 4.532092325407522 6.269964729181525 12.678335387270716 -0.43901200813482455 -0.1452408462500918 -1.0171119555444679
Ni 7.918909075889242 7.678996902951719 0.9025826226530081 0.2558067668258175 1.323088915466773 0.24408690728572802
Ni 8.536377870352494 0.21579159573407922 12.695080614729438 1.4471251026147915 -0.15674653289684617 0.6531386216130365
Ni 4.072231608148616 8.558460799616764 11.60023522076742 1.227690189549789 0.05322800608620511 0.5840993595261876
Ni 1.3885180774532417 0.15310341651936424 6.845575042228814 -1.3729510904045386 0.4677579699192654 1.1467408062889155
Ni 0.5605541039838952 2.303569710975825 0.2665327909488232 4.181009175917071 0.5080672110612734 -1.0607826569595407
Ni 2.9529381087011726 6.141237857346482 3.8563161571818547 0.7704513739942924 -2.017291396999655 0.8142161777850686
Ni 8.125517952927597 7.313513872997146 9.176861719386725 -1.395241526371623 -1.4754398903990849 -0.36123896571940367
Ni 8.042608342723529 5.72844212850706 2.6598764443578506 -0.1865134797466336 -1.119355472297427 -1.0085915767782823
Ni 2.336900530260032 8.118361872817033 2.8761441946531328 0.4651465004383473 0.603127322691916 0.6488250818393471
Ni 1.903856764492384 0.1396481510191665 11.992379236364686 -0.010009047496569858 0.6003201922604242 1.7293275858253183
Ni 6.666117984533044 2.9713145554466354 5.9707304870197575 0.09402267150506388 -0.6615037057482801 0.037477685230483844
Ni 5.524622287819488 0.22485504642795984 5.631236872112886 0.10198794909872759 0.7634296912608207 0.38011703357082927
Ni 3.3012740697754306 1.0940637298268636 1.8590321796152083 -0.12051557558926987 0.8187814285582479 0.14115330644427948
Ni 6.5635933752566835 7.665115942429559 2.9862248905693143 -0.20197840815145215 -0.026446110006670583 0.041500176126315624
Ni 2.1933018560413666 3.1278125227876776 6.432175633810835 -0.23450671979646065 -0.6532880027067071 0.11723150552135939
Ni 7.353275989919182 0.8119416935910257 3.8260771314838786 -0.12791083961207647 0.4406847678515572 -0.22934908685492114
Ni 7.018380615206432 3.349577610521742 8.334484666617767 0.6725491649291643 2.7449686132512143 -0.7741717602686732
Ni 2.2949640659197867 0.6975132202845917 9.579827929981969 -0.379884605845049 0.07909356099905733 -0.7167888514738301
Ni 3.756400764807347 7.873724852114202 6.8512687131475545 -0.5713302327859774 0.1201409658586705 0.425344537950061
P 4.722444056348544 4.9856960598005235 10.26248219212929 0.36330561844044523 -0.375445853347405 -0.11219394309745194
P 1.1233761348951385 6.41961854810913 7.054471112564047 0.26525299984038186 -1.9489633020472177 -0.6475181901024655
P 1.6978992742333232 7.0740145508352335 12.656556132688063 -0.24574629726602196 -0.043681757158666706 -0.2031570018405856
P 3.795419750333285 8.294805119850855 9.37954025704128 0.7996318522129906 0.15537562069124852 -0.804691269013769
P 6.537666346548407 6.621557624152258 7.836274699535579 0.6466244746436025 0.7755012777133742 1.8585196061426634
P 0.7914789742594827 6.149522396243713 3.5243685370069575 1.0684080347152827 -0.02551691332418186 -0.2076744300949649
P 4.619203839061127 4.427118134862545 0.4700040020925468 1.837251697902823 -0.9206297667553177 -0.3733714873168795
P 2.836670155827856 9.143286859421824 5.277536603294209 1.9665725304885484 0.3046736677298495 -0.9339524520061527
Ni 2.8165046890547516 5.382528225316378 6.353045901819014 0.9018830822754338 0.5937211988866679 -1.4672149313861311
Ni 5.802021311182354 2.7371914678293257 3.8125145247820225 -0.3422341424821267 -0.15639840552880807 1.111411534860002
Ni 6.305433198037222 5.346023042290818 6.3326483211654 -0.7902185293188906 -1.4436543704573717 -1.8080107987598346
Ni 0.9981172095752152 0.2608593038457806 1.3909538970293378 -0.39356184622182544 -0.1716473612680786 -0.4658453262775848
Ni 4.47594461992463 5.872848155353584 8.065164674210497 0.4128651745361277 0.04114896343448397 1.156653694527253
Ni 8.559121360857738 7.481984512830864 6.863045052160273 -1.136738957881197 2.1912028717115617 0.7159709835582251
Ni 9.012358116783531 8.160619443316085 3.1428999250207847 -1.161044110285465 -0.9237510859931188 0.02196981940287184
Ni 1.0451730235330183 3.063224312558991 4.3670134840569785 0.28143243781372174 1.6670112442846001 0.3183583643057937
Ni 7.628115338473268 0.728587121995467 6.840218074053739 1.4479493982883 0.48634781710631075 -1.3711657163693418
Ni 8.498102016222655 6.5668778325382 12.174485878593702 -0.455478381220964 0.049400147699682664 -0.14108465798987316
Ni 0.48969423175061605 8.061599478401567 10.603908866112182 1.0312697351020885 1.2845077127594653 1.491731685580573
Ni 5.982253610890103 3.0101133538922484 10.425790362375555 0.24010298293731552 1.0349692954408627 0.3157587218994175
Ni 2.3093404473726777 4.8524278294337755 8.626578425253827 -1.0221348626803557 0.9459939565517193 0.6210355704309046
Ni 0.8936494493149865 4.907529646285124 12.935679037400641 1.355644480805291 0.24733806723317403 -0.06815557393031488
Ni 0.8658636746702989 6.597777419477151 1.3420228231040994 0.11641338049543822 0.542101417827847 -0.8225851185750543
Ni 3.146666041540511 5.560632049914318 1.4880765832683893 -0.09689330818463958 1.7604451331657294 -0.5850928337877085
Ni 6.989903086151057 5.303270050861033 9.967192051043847 1.0280378584283523 -1.160928410643207 0.03495363325704948
Ni 8.747564803769276 3.644096179379882 11.440068386200462 -0.5151529142634612 0.4922451564273522 -0.7884889482222937
Ni 5.346380846296346 0.694352618235759 10.061159639911072 -0.9779363137862706 0.7272704677314443 -0.5388620849549428
Ni 7.144887267314865 8.513469239537008 10.894109933303612 0.7463308267970049 -0.8624901823001081 0.44791548127204156
Ni 2.781797700518513 3.2876316452569565 0.34245237879873874 0.7535695106372893 -0.848785688229822 -1.0098020521466158
Ni 5.774984172610772 1.5495941011727092 1.8198636503638825 -0.03294071659207875 -0.6786323950087668 -0.5200927747672397
Ni 7.717887446014134 2.300276079232629 0.4258720890722269 -5.219486998731823 0.9899446511010563 -1.694081618138831
Ni 3.868797094851614 3.5822327842702175 2.544947962889845 -0.22026692204799483 -0.8193169893467439 0.37573484534273355
P 8.39280671951887 4.3629427754094685 0.6586648797459055 -0.6711800524957796 0.42968481719662777 0.8551440263476822
P 3.8696686687112343 0.7920413687604796 13.218265301397496 0.6609599174296682 1.572470495492537 -0.15401782111177345
P 7.410203524644891 4.315079608823806 4.309073088761773 -0.004380645566198907 -0.8152153084735444 0.07721254192626056
P 0.09912822356234578 -0.18724709310843815 8.662189098265566 0.07066445639509766 2.0681889551804704 -0.12629078751015024
P 1.8329748735510722 2.5558031859498707 11.799677008341195 -1.2028451054816511 0.13898920891342517 0.5842965631386582
P 1.4887674202329093 2.181989744789666 2.4764000549999787 1.5193381344439318 -0.7879955535256429 -0.5629209256763595
P 4.396778190086087 7.207548840590707 2.3389932249692884 0.23474891771425374 0.07841144733036819 1.1284795460858823
P 9.106277081003853 4.362961124332829 9.113146917909996 -0.8607821984700659 -0.4069225837994476 0.418320284113428
Ni 5.53858581849677 7.086592737798802 10.128499271197654 -1.1185108649089446 0.11621926220676114 -0.4611726033922638
Ni 6.699668990897576 4.715187057159497 12.665471874548892 -0.19265764497115853 0.021119298477118464 0.191688853299986
Ni 7.578224615856279 1.3591322766915253 9.130992163324175 -0.05961385500789088 -1.786637475290381 1.5045789738568862
Ni 8.560277343029444 2.710686448035196 2.7323730405548794 -1.5530000454727513 0.357538634049681 -0.04381365475084067
Ni 5.9767948061903775 8.73075718997113 8.012809691186202 -0.9927718361372064 -0.8432015092738253 0.6252118132957813
Ni 0.9634469188856971 0.7329128806776866 4.086588723231979 0.4589285445530935 0.2627176350130379 0.690195674366334
Ni 1.3912795904189852 7.566490479367289 5.202233539269204 -0.24466849082081088 -0.9423735861903124 -0.5235552793945435
Ni 4.446834053013319 3.547057898188288 7.257417544499663 0.7128604629537013 0.406935439315254 -0.1233422464047876
Ni 8.83507999373681 3.9335504453905448 6.47872960471473 0.30976805153362136 0.641596939522024 0.4315941184041986
Ni 0.5366885768151618 2.342561173116722 8.44045703859355 0.41113636477047905 -0.1327951642875713 -0.6542351971113249
Ni 6.032492963050939 6.345956795278715 1.1166466672527036 -0.8122850222006269 -1.4711170946540149 0.39967567242904717
Ni 6.400856773973098 3.894623204481409 1.92923240805368 0.2934451460038817 0.6160165199497585 -2.1259277046528355
Ni 2.8833222934717297 6.679090673348863 10.816524263212571 0.845608318943105 1.2599580484445592 -0.5119079249636023
Ni 1.2532773378252486 4.206976926845878 1.9883810799521697 -0.9626714172074002 1.2365936626870058 0.527551030817498
Ni 1.888434494407949 7.446571090745249 8.6834582527788 0.2911591781831825 0.4410174686006276 0.5438166007467409
Ni 3.495827704165989 1.827094043614057 4.369054801780825 -0.17069013956113185 0.5445483367064429 0.268280473812796
Ni 0.16172098837558657 1.4280600072949516 10.846575212446103 0.06533970174807457 -0.21311539860487813 -0.540649772982985
Ni 5.400831276368399 5.293838704253776 3.5509286035711694 -0.09841103038074664 0.16868545042627725 0.5857150407527396
Ni 3.5706637880914713 1.1433672868963185 7.227930824659464 1.038016824017935 0.13389148267554363 0.12201324318071892
Ni 0.8455046267557423 5.81620502893996 10.512761506765452 -1.1754091207578854 -1.903485629330393 -0.46381981120712373
Ni 5.380142865279523 2.4002318392385296 12.707849630495955 -1.159494249299842 0.8942990992805888 0.5674365541585259
Ni 2.966965860610215 4.525174781300643 11.419712090624408 -0.7396086775818229 0.22581227734625625 1.419441263546278
Ni 8.259354999918518 6.207376551599125 5.10194107651964 0.47657685376247594 -1.4614237786256508 -1.4440531485576873
Ni 3.5589296516024813 2.602858999907674 10.532514122762947 1.373107670587061 -1.7396312817441717 -0.45595634929864703
P 5.752809498729701 1.8008917810553737 7.649508348219185 -0.21934261046151257 -1.469813802461559 -0.1709577914002217
P 0.28686431547833924 1.8831591789418276 5.996699718251763 -0.5113913903385 0.03601601308329281 0.18884135654886186
P 7.958102376187104 0.6717283957323582 1.615184162616875 -0.37185453645172084 -2.0678755377051097 1.1293213252608874
P 7.384276495936614 8.17561051370155 4.938458591501452 -0.5375420805919388 0.43182860301250797 1.1102293416264426
P 6.489803179962746 7.285366624562259 12.620072968370536 -0.1361882491295203 -0.5187678853082291 -0.590202387100132
P 7.040023170310051 1.3433338536782016 11.446138210048089 0.514442775570314 2.434522561813962 -0.07362302480278933
P 4.176003944213486 4.074772934034035 5.058247702767634 -0.21172083225019667 -0.2916183772077881 -0.8778324690841334
P 2.794770389334331 2.8545144837958665 8.549651481511424 -0.2892365072391729 -2.153995923643961 0.1753500069306464
