# total energy = -340866.8332762444 ev
CRYSTAL
PRIMVEC
9.25250697753057 0.00000000000000 0.00000000000000

0.00000000000000 9.25250697753057 0.00000000000000

0.00000000000000 0.00000000000000 13.54197921935455

PRIMCOORD
 96 1
Ni 3.864633324313886 0.20999582075478027 5.421003053326978 -1.0761208299785079 1.6035808437440964 -1.9734625727401627
Ni 6.907940120424233 7.288023849381438 11.260696845700181 -1.2330954197257602 0.3580929638912543 -0.6340270975945662
Ni 7.003185425954687 1.164113402041912 2.0635264618195963 0.11925496370929138 -0.041909752859908465 0.23319288608104355
Ni 2.3880812709068757 2.152827031697891 12.218967877313 1.992840205935826 -0.08220562426547778 1.6315212789081062
Ni 5.299104976559784 8.11569759728518 9.204076454994626 -0.6941294622031013 -0.7327240346468478 0.30583734902064746
Ni 4.62079444676155 3.5983646821383113 9.302987603739686 -0.5203115756462651 -0.16018949714012412 -0.6667605832718452
Ni 1.4321122629987373 6.342278861544328 13.40344419643393 -0.3359989602056923 -1.5777404856422248 -1.381845564680691
Ni 8.880713368789833 8.897830506465308 3.491325206124114 1.1865872488618918 -1.4386476612713996 -2.863893704424913
Ni 1.544493211218368 0.9684969021852154 4.664954811462905 0.29163328960612356 -0.630929689616165 -0.35268233439864427
Ni 0.7351505298890322 8.418337843894426 8.85011625388225 1.197812171043434 -1.4089953856226056 1.1728117923443544
Ni 2.772097315276014 8.508216695450946 3.131136217399236 1.410673544655977 -0.1059721305574562 2.4014427485408576
Ni 5.700395451220873 5.559091166583117 7.8903962796964695 -2.378182749571653 0.8879623584292837 0.8367557536484816
Ni 7.729951334134791 7.697808125332305 8.84663638605536 -1.3851116370264727 0.6866154132142432 -0.058196662945390096
Ni 7.218805845624559 5.517612178367358 0.7695041625783674 1.8309764064170724 0.7016553382665013 0.313856362670382
Ni 7.048494952007012 2.6507599404240265 5.831149102295743 0.8923262918249343 -1.2652748326717822 0.014610036603690969
Ni 3.278820105511177 3.4859559763981256 5.074017391879346 -0.04380645566198907 1.345346955534025 0.9062251612942135
Ni 1.5904689177640081 0.14536058364150226 7.040542422368054 1.3646055466533207 0.1992378692918375 -1.7466737904132499
Ni 1.933921972095697 6.871420475880936 10.631184962288012 -1.8948338671926657 0.7444122696180534 -0.21437703892612112
Ni 1.0514086160824747 6.888167513282347 3.747499363324584 -0.3059049690337893 -0.9147254854557406 0.36142228537480336
Ni 4.3280451299766725 1.3636899748310962 2.7078812167231137 -0.8839763771983422 -0.3090661403705903 -0.7874533078689278
Ni 3.9315104438373085 0.8896535155506082 8.114692775041096 -0.03113991593791411 0.9027564860193227 -0.3621483649075505
Ni 9.139274672758019 7.6025535672950015 5.9319422109344195 0.033644427527322704 1.0570938952540438 0.23699426210500474
Ni 9.135684700099594 5.747759033794255 11.498656517912575 0.31570087207828856 0.10027687994489182 1.7420627740038
Ni 1.638692983474589 0.9630656806633215 2.083135299590209 -2.8946345851521955 1.861175298597956 1.0123009073090696
P 8.85659208342769 0.6879220339156842 9.75622442761776 -2.3418348070702377 -0.04598109471580468 -0.19657292086516467
P 2.145545308805675 7.88265470721373 5.489647401659059 -0.13371201967488586 0.4092445470644049 -0.4646281660410321
P 2.3565394750497437 2.9904472244671108 10.034322399803115 0.2492972478420739 0.3025666486891757 0.5148230417278681
P 1.6034501848768143 8.22640384176467 12.453664190358833 0.3305770178591726 0.7305244558923677 -0.9328913577314902
P 2.907720560706884 1.9358002309865734 6.364256341068952 -1.3964026365592597 -2.367442737446329 0.5614659383973879
P 3.191911308654024 0.7371129865922581 0.894744244820363 2.126531399675105 -0.045893677208320965 -1.9551272647660844
P 4.559348548760021 7.432927359184472 2.635743121803867 0.35111858945595015 -1.4563885301945885 0.031173083168694698
P 5.6976104466585396 5.707325578852728 10.154804843022013 -0.5757551013265504 0.3568012416630242 -0.9827743586048623
Ni 9.006852794697805 3.4865573893434805 7.907974192213155 -0.08155384961409179 -0.42477812392362974 0.5816812370029982
Ni 6.44983925369427 8.254994087936138 3.4647834649695914 1.4951772209270122 -2.944682650848522 -1.440465688316745
Ni 6.657021387115476 0.8030916877003896 8.951384016122415 0.3688298906927842 1.3030595076197236 1.4953466566253408
Ni 0.8379875172912292 2.9881526027679124 5.721337575228803 -0.09166317013395182 -0.7330436227697956 0.033007565274272184
Ni 7.1448320533459535 2.942287926304491 12.905329938573503 0.1055908359586375 0.7315130450578821 2.4242075530411995
Ni 3.668470926552945 3.67793624106214 2.887447392944326 1.7275183005307215 0.9060510976101944 -0.6149513119100377
Ni 3.361630041833069 7.680533695040354 0.18372240229895417 0.6580993080524213 -0.5620493217046836 -0.3425516737225455
Ni 5.363650464356601 4.207929086029098 0.6252455525028917 -2.0823778450863433 -0.766669538354357 1.3016780538911648
Ni 5.302519151588027 8.636271390277201 1.1052656079643146 0.04377046021773107 0.2564960795833583 0.41810482566851215
Ni 4.067503789542243 8.036079775827094 6.972616068567659 -0.049383178418818174 -2.5892037275413475 1.926195669333399
Ni 4.935009579442157 2.8429345077319246 6.961741597264964 -1.880674030752516 0.49093260826351576 -1.6347390145144556
Ni 7.50139590988637 4.864098366931434 6.968756847959853 1.3070334046658072 -0.15357533425771613 -0.4267830701688005
Ni 1.6359634939533647 4.177654883610636 12.103861140574885 -2.1818833940828486 1.184667920351992 0.10320870887970612
Ni 4.717150053114196 7.052658580090235 4.752869355814828 -0.17577423895225858 -0.331631427265616 0.3789317550134765
Ni 1.4326211508755757 0.8070998736685062 10.866449379254535 0.3199920432544747 -2.3917597169251392 0.01078346376874917
Ni 2.890066777634016 6.084679818288709 1.9170028380668467 0.5122617087585951 -1.2866769524966422 0.7426834598524049
Ni 1.3047422536795017 4.93576828500399 9.295986231805072 -0.35698970352474646 0.040589748496904283 0.5891487490246369
Ni 7.269472573143965 6.05580274440484 4.997897943261852 0.5838088248689622 2.610360564124621 -0.6311641742244744
Ni 8.946952065340493 8.116826403121076 11.373691235124074 1.3475830439533956 1.9379540954209076 -1.0692261597412038
Ni 3.589121427793555 5.7607217958933585 9.224119235336579 0.09457623001568873 1.6647044505282944 -3.039487451935249
Ni 1.8776667304379204 6.604485653212047 7.354120982577271 0.3543183273401704 0.6772509412802078 0.8885017758725214
Ni 8.297092994110955 1.6311244328699739 11.680241591128809 0.3759148225640236 -3.0590008393778287 -0.6781415714152773
Ni 0.42471967251073217 5.181015231612711 1.5956919578817408 -0.9060225583651041 0.6117667435344689 0.6100785571987687
Ni 1.4402452165213007 7.971922893318044 1.4605970305920977 -2.4951769422712253 0.32053454602150605 -0.6933902700442317
P 3.4411090756883818 5.230506890761962 6.660080265880619 1.4308209661381293 0.6111041702498057 0.3774376869664532
P 5.552947502033649 7.285738480189091 12.908552586709918 0.08503897994921485 -0.03444686882396003 1.1613259031919418
P 8.118195774135115 6.553199007733583 2.8222431266596737 0.4735498940106941 0.5511370456675541 -0.3559401792143096
P 8.023773941714454 0.5369090938385346 5.028110153884407 -1.1727107479901158 1.0664791931236859 3.0410607099596403
P 6.603190302252821 3.002281180730318 8.063110974594066 2.238339163077732 0.018626099741619533 1.589907974242694
P 8.92430192856776 0.04904938932174431 1.0919808586267759 -0.6948308591455 1.4165446587247734 0.4357505637747334
P 2.3271442607821853 5.080014866820558 3.9100159451703385 -1.1945432704841752 -0.16401272754095625 -0.7505302095903332
P 6.291991486805839 0.5296542032161888 11.152469347806237 -0.4915049358272181 -0.4572385584451803 0.2925989959535025
Ni 8.842759585684536 2.180621562280121 3.73009724843808 0.42779505637308257 -1.9359326941155046 1.8593133056885527
Ni 6.516540575587513 3.0642914816497946 10.521061625740176 0.9248255500042202 -0.6815228291826844 -0.9673310274665986
Ni 2.474407159832378 3.579702375818618 7.651258763361865 0.015614052388173108 0.2936379787409782 0.5229341008707769
Ni 5.173428175994393 1.6284227008693042 0.2666128354304547 -0.5569829629253698 1.7064614798604223 0.5814066431853729
Ni 6.967489254521182 0.25961053824515784 13.375290668585857 1.8934043338349908 -0.37080295525875495 -1.7903650606536132
Ni 9.1719730319716 3.1691408892922164 10.398019013875437 1.2273001532002217 0.35454458441836356 -0.06707159683751675
Ni 7.989928271651273 5.07617507647714 9.849189915459974 -2.572711386313279 0.11829259979602208 -1.9115100422967661
Ni 8.379023942281945 0.4655167509715274 7.29326261876082 0.2963314664127412 0.2561739203572491 -0.6008709225575717
Ni 4.0667543364872625 1.5091208775246707 10.493408658512775 0.5198246087075177 0.5142715400997724 -0.591300248150001
Ni 3.9434184201553286 0.2462184598281404 12.364829021575174 -0.16093768816005832 -1.079135962655748 0.12738710589812255
Ni 1.0880207856942876 1.7401189635819159 8.70300972219785 0.8290362735170368 0.6858332836325802 -1.0226280002666905
Ni 0.3905381364488368 2.372592574437284 0.13865251617408647 -0.3038432014087541 -0.37507638582312824 0.8150772402337834
Ni 5.638533190411023 4.46341855772255 4.942889939527672 -1.0769834350891194 -1.0192053477383867 -0.2843802075881361
Ni 5.934705934730995 0.43801737535786317 6.787808347215011 0.448598366271679 -0.7637965876819363 -0.9851194617982711
Ni 1.269258889903585 3.305883688052131 2.6263851363741506 -0.3608733548498688 0.4131595658480949 1.760637965902826
Ni 5.820011859798463 0.764985238232042 4.302842226563578 0.6406039794811356 3.1227827097204797 1.8798461355345821
Ni 7.818479319690977 3.6095972254561635 2.5401906330459405 -0.8647599521708914 2.2534114840298223 -1.4157913254985166
Ni 8.441293313393267 7.462257805904069 0.03432957617152115 0.013245552155996545 -0.09877175615427505 0.2540743575157431
Ni 4.006890617157359 7.0875312784139455 11.272356854834577 2.796606134921848 1.7641524068139876 0.29756276771668105
Ni 3.6065901607293904 4.87777357205811 11.207951079891219 1.1138736232472493 -2.296107223126136 1.237125881041392
Ni 6.328020748485999 5.171300099418522 12.230235580156886 -0.09725994749543895 0.1998395074315784 -1.5109267704517848
Ni 2.6533413898356253 3.331013496661098 0.9203005939951894 0.612678456715461 -0.7746846953493497 -1.9448631638359148
Ni 6.163603701732925 5.680150966229556 2.7876702095579553 -1.7863942489313234 0.03784226765875418 0.7030051674261764
Ni 0.5617317192200286 5.2558772645490714 6.0817430726140085 -0.8606834681086726 -0.3089339856681002 -0.9518146769985544
P 3.230346222115603 5.08014440191648 13.338429606539737 0.5676134460560224 0.36569700149075723 1.0702332608494796
P 6.123910447339528 7.375108443868774 6.61089578995884 0.46759933285421407 0.037074793365110346 0.07363150944322158
P 8.805046367757383 4.376731821029834 13.226816616388788 0.49210708818759125 0.2622172983378516 -0.1536267563209419
P 3.107260123468662 8.790251609301661 9.467536036090051 -0.9182952050848701 -1.3538755618303262 0.991769363014621
P 5.814460355687498 2.9628192390082098 3.0802178216934673 -0.39399533421481825 0.13132500749994802 0.1676562378308145
P 5.157439844154813 3.1659025118941533 12.17849093558927 -1.4143815896351837 -0.08543338717415609 0.07209321842182424
P 9.015318838467026 6.193535561397877 8.319853235715225 1.771681111090865 -0.6590997242924778 -1.808927654147149
P 8.177596868122437 4.1718998243489365 4.764189797947771 1.0736011488804478 -0.8785971151642997 0.16552145087599882
