# total energy = -340891.4823658638 ev
CRYSTAL
PRIMVEC
9.06653029859699 0.00000000000000 0.00000000000000

0.00000000000000 9.06653029859699 0.00000000000000

0.00000000000000 0.00000000000000 13.26978355092284

PRIMCOORD
 96 1
Ni 6.10352464312939 2.0077740390888796 11.067529695365822 1.470461463347887 -0.8748325059155448 -0.37201497328898514
Ni 4.695973034197169 0.3079138709405818 5.994823292990764 -1.117707909391675 0.8189680906477572 -0.31313131157889945
Ni 2.625467672878539 1.5277284663039998 4.809990997626085 0.7398123089521969 0.5078268129156932 -0.3614927336014226
Ni 3.594543749844409 4.610412189005356 5.073157915577404 0.19191408193691464 -1.2057447956269494 -0.9003455625849849
Ni 5.234225730658157 4.653532606482548 2.6327381234199523 0.16886877008167692 0.2644279328359252 0.14579157654723926
Ni 7.109982023976349 6.295961745937086 2.6210740323593114 1.1362144528362947 -0.28811036405452967 -0.03419772892763143
Ni 5.271298772513548 4.616613695640007 11.484400592595756 -0.5564479163575062 0.25554554274463087 0.700389069959568
Ni 5.329805091685189 7.962870516844192 12.597270931367031 0.6956955211386405 -0.6590177061016327 0.46738798817435634
Ni 1.6279770903673538 6.470991110822955 0.54277417505558 -0.15084945068612085 0.6411763070448376 -0.8191161861898474
Ni 2.5667800231035467 1.6359465703846903 0.3060996582540414 1.4133914578077724 -1.1855102137476292 0.3621087699188667
Ni 0.6597451073600893 0.009050210413316474 4.751776620725842 -0.49367057601996917 -0.3706828847411229 0.41940169010306483
Ni 8.651872410402168 2.2051252012474247 1.3949863047729185 -0.2476643402243412 0.25618446188021043 -0.00446754885305037
Ni 7.039498818453286 0.7050233590171745 4.935403776169664 -0.7215569622864347 0.07615119054128175 0.006185559985421605
Ni 0.9088652501227175 7.643674255763026 2.6534388250986582 -0.27304601352223945 -0.7631718096137438 0.13909950923904432
Ni 7.803680380161151 4.0929762458092185 3.709780254927853 -0.8672336105223645 -0.46956031323532677 -0.27421663679157293
Ni 7.177364476182088 3.3014046964649775 12.668025226142108 1.2522645364550433 0.9773930396882908 0.15484443077812687
Ni 8.140656106901018 8.842441807995336 6.999731203832078 -0.20115256981604712 -0.198405088977897 -0.5628967573066436
Ni 6.64074375515127 0.944922840599335 0.10301844902956163 0.055203898865653314 0.3719933760224303 1.368648606374443
Ni 1.9478896073317618 6.299470493111954 9.185662560714656 -1.6213759629439881 0.7675077179849362 -0.19037527669488502
Ni -0.09567274628775739 4.629370303585846 0.9821944394653965 -0.40212464819017196 0.7396295035174294 1.1947283899117875
Ni 6.424434478412235 2.0939242087415875 7.1289256321085706 1.3744870674330907 -0.4948712811962897 -0.8057353940075671
Ni 3.217620891186018 4.602986700798077 0.6622574428695364 0.02069943733088048 -1.5436494574957866 -0.7185860525835688
Ni 6.0316270589001775 5.683417901282633 4.869188186396498 1.179263461506969 0.16858594873393545 -0.9729455454398986
Ni 5.399417910312161 3.1801942546540904 9.022616428751327 0.3494625419097659 -0.6468859558351053 0.5257124349468624
P 0.14527391952876295 5.708305526592746 12.326646792352848 0.9237058345774801 -1.0983210202246312 0.2537771379902984
P 3.905054275024997 6.086461433353932 12.561163474974492 0.5989343676564911 0.2859267261396495 0.4019415856450885
P 2.5170954377849992 8.543636173261143 1.3470152936560509 -0.8648532832156459 0.31007864079550473 0.5883797320690963
P 6.291936206542663 8.002155792060481 5.936582623153036 1.6584625833836406 -1.8597647914036743 -0.9916081548464083
P 4.584989638415355 1.168013881903748 12.53916263286975 -0.23360040593210735 -0.9175981790178456 0.7385594103817023
P 3.934058105031207 6.318881934200824 8.132558788808318 0.6995220939735823 -0.6376155862767728 -0.34100027007502565
P 4.554870625198528 1.2881816727453597 3.7690037366357516 0.137081450367751 -1.0005339965811284 -0.4623002892388038
P 0.22950561139800296 5.635918349734482 3.555943904308791 -0.11963780097000684 1.0373843326402585 0.5012769276123173
Ni 1.4115952813869783 1.1104776814600432 2.5403810072144926 0.7766395050828753 -0.3705054786229942 -0.014317959284568891
Ni 2.166275119479181 6.614360152363501 4.888043849186094 -2.066490741542441 -0.8176120908404951 -0.6727962479429639
Ni 5.883878883288671 5.544727189308578 9.283222051930293 0.987012565055926 1.659739136103219 -0.2149210843550492
Ni 8.860103408761855 2.0818475905583202 10.225057739007555 -0.28672505367122875 -0.21677742083749763 0.33332861246238077
Ni 2.2973227465219344 5.2695851983118684 7.063346512753171 0.3467029768867577 -1.003068332967208 -0.6236064164818744
Ni 0.5588554796138844 -0.2779290423702349 8.888618552792032 0.1036681650146279 0.8013043548194071 0.5246066034771933
Ni 1.5719550004616412 0.8443215285124603 11.55113388124149 -0.5075594181869194 1.3741767352815237 -1.4988341009533088
Ni 3.8476450060036385 6.66361861076417 1.4911649634440292 1.0823138461630972 2.005264290631792 0.8343810827687178
Ni 5.6584305441406775 7.963876901692798 7.969566149372978 0.0889614549320726 -0.8390556054262518 0.3022205782036666
Ni 5.393189204087007 2.834133864686272 5.035179127358269 -0.5253324258996244 0.3348298795982556 -0.6348596207981905
Ni 1.1526551797998028 7.414680903319494 6.950579730487386 -1.6194851736791787 -0.5036947930251907 0.7752125428283616
Ni 5.323313456085174 4.717895904142471 6.994078222272568 0.09360538146198717 -0.25454229829109715 0.5895976636365975
Ni 8.23930902165487 6.82600923259638 9.423908307194242 -0.6166065881252735 0.2366559049289795 -0.12331242160811666
Ni 4.589350639425979 0.07347516047837778 10.582121269986795 -0.7004420346846905 0.5212991363705152 -1.2102208291204317
Ni 8.163839224539617 7.290741435928153 4.807363517183509 -0.08445096865622874 -0.4751550337142849 -0.24032795446392805
Ni 7.468381961502296 6.307947698818677 7.098830191870179 -0.5116245893952286 -0.12792498067946356 -0.1983827203803938
Ni 2.1589402965735776 5.278216535031442 2.705231378681177 0.16189105321226313 -0.2149424245112879 0.3030225052796717
Ni 2.1241066876695887 5.214052701035208 11.420174199541366 0.04157602366957356 -0.29350813803133324 0.44074441744489906
Ni 1.0057683245542206 3.2398610896871856 3.7875674571539495 0.3006781734172112 0.21234741009060204 0.007431773687696878
Ni 3.563110089753277 3.08427036548069 2.8145075468324285 -0.5407001666049461 -1.0538622756906237 0.15731860335023232
Ni 1.2529491365139953 3.3065544856001847 8.27989353064418 -0.09863163103198497 0.6732495334302986 0.07935607063182462
Ni 3.9478301643558193 2.7015086613943526 7.017274033053403 -1.1244033191339795 0.16617039731390737 0.19716093215815075
Ni 4.284905622927528 6.698361554366484 5.937524635637451 0.18117715513538474 2.4066091232331455 1.692244822040408
Ni 0.7430293468268132 7.457075998383276 11.179778778759035 -1.5941137847939255 -0.028820523776118104 1.463945259495924
P 0.22961531641303115 5.350268250273503 8.022990678385668 0.30480376554981053 1.3719969540213854 0.35222442092561923
P 8.721403630257631 1.6806808302317184 7.968770108024262 -0.730275058885723 -0.7832300138161995 0.9369207906058573
P 1.829979382501887 3.2332334561346565 10.414590832202563 1.0792568045043285 -0.80074231166835 0.3850262979469885
P 4.105932317418746 6.359998648510973 3.7478379219594466 -0.018390072471413492 -0.4617935248057144 -0.7871365479594573
P 7.022281477664978 3.9371044591675273 10.444885736104643 -0.45363515736463805 -0.21733355045128377 0.1777748143220551
P 6.122228894865185 7.671390638485435 10.137517670280152 1.3190692527844186 -1.1591690047499392 0.8790264893922346
P 2.4081520112908987 8.63066579634011 5.866358720392766 1.7442808647010413 0.4821047255592406 0.5511445018667218
P 6.954400366300021 3.724548725917886 1.529899900279144 -0.8343198905134793 0.8966398315986235 0.13492403770511602
Ni 4.914857205503807 2.9686358397228876 0.48013805139258986 0.7028856111291766 0.04229104745872716 0.4306034723561551
Ni 1.6387390616763167 1.374939299919298 7.05595547736053 0.39411951849750837 -1.4683922395236841 -0.3312748152571456
Ni 6.969623070451452 0.4863386513742239 9.10705211754934 0.33765757885503783 0.8379112074091634 0.5752560502029448
Ni 2.794014468694561 1.429057418489811 9.291170678928244 -0.04793898977312389 0.37374995370222086 0.19824285236841988
Ni 6.4287048141211836 1.9849535826569846 2.824380091531948 0.25138292672650897 0.04387973210208572 -0.6197340780106617
Ni 3.891844340570777 6.699567402878777 10.495787956424701 1.0282463748947324 1.1922066519311982 0.09823002471819212
Ni 8.203641291975462 7.051711434589067 0.5291118207459963 -0.1709207675146992 0.3954894022618414 0.945701622122281
Ni 7.726524208434721 3.7557829223453307 8.380186580705356 -0.1948338266868709 0.03175569514504209 -1.4667616458987967
Ni 2.994647714773784 8.291233039924819 12.49144457794456 -0.1913337839534124 -0.6688568036792416 -0.04968939680532733
Ni 9.081580607696432 4.529203278294 10.123464548520344 0.7130095869370559 1.3781385481427493 1.5999620160445862
Ni 8.705791065308993 2.3156915366415287 5.847117730071047 0.12230866293395064 0.6795960444736167 -0.45281960344187816
Ni 3.9390718962138997 2.6933397177133287 11.227643711472941 -2.6070109309260974 0.6049103827342679 -0.3517292264567556
Ni 1.014263663321279 3.193068727492108 12.62830838408984 -0.41070827609412497 0.4678176195126072 -1.0986904877489079
Ni 3.3962587350785993 8.441492644392756 8.043505516195939 -1.619483888127598 0.4104748199270801 -0.01408450311752413
Ni 5.7558866769124055 8.092050438672416 3.453235530610962 -1.1358964073752436 0.38197337005327764 1.1836729034285742
Ni 3.0725564085041275 8.440123598337445 3.7665222273288745 1.4548630946889975 0.45742444920374126 -1.5935126608748171
Ni 3.644663528611002 4.580927832900262 9.328392411878385 -1.3551587994181242 -1.5461411135693888 0.33305684685823284
Ni 7.268174842340951 6.284855246481753 11.84149041651248 -0.8129103144894516 -0.2389914950406916 -2.5038091640249265
Ni 0.5159780451451845 -0.13671874166259843 0.19941017115961113 0.38486071890340173 -0.08771935499485538 0.8594382828476618
Ni 4.716671922569842 0.5346768569628803 1.5689394725278911 -1.3703897574352657 -0.3372534014380837 0.154404772137547
Ni 6.009704188954877 5.660842241165264 0.4400177487478626 -0.5334221448862942 -0.30778161723121183 0.40916355731482434
Ni 7.393093494990395 8.80591275795 11.577593642882668 1.5161970177117887 -0.4419656914465098 -1.0138643951414474
Ni 0.09235620955244264 4.976799739608975 5.872821343096244 -0.02525980300805327 -0.6317154187422539 -1.0929751825316856
Ni 7.955009835188867 8.931728997086038 2.299374502298866 0.3374094673999738 -0.3445903014191291 -0.04089391000088441
P 8.560164457756711 1.429411013166348 3.6299222572114718 0.16532964658016688 1.8137633849728958 -0.1819482289734544
P 1.7543826539642866 3.188345065274779 1.549804560609133 -0.737157387827853 0.4211631528788617 0.505113270639272
P 4.886950425647878 1.1938897590021302 8.345857977531702 -0.7678833561568001 -1.251976058680347 0.2822076254168495
P 8.608851724756821 1.5124422964413953 12.481398862518839 -0.1566873975241366 -0.46192953616294646 -1.023081028643709
P 6.264591551557126 8.022501085756616 1.362820069044243 0.2515338504820765 -1.0848412405706414 -1.0330358258635757
P 2.0133771547324675 3.2887478203509826 5.905478078106988 -0.7147065150235046 0.5325430847154505 0.35331122623189476
P 7.050442120365601 3.9441491531077664 5.836209787626386 0.5843685540271742 0.4418769883874455 0.6582126937018341
P 2.2723625889704815 8.293409007165048 10.149287839743753 2.1145541727085715 1.5800351952136726 -0.461372892328528
