# total energy = -381169.91825641145 ev
CRYSTAL
PRIMVEC
9.23359063837044 0.00000000000000 0.00000000000000
0.00000000000000 9.23359063837044 0.00000000000000
0.00000000000000 0.00000000000000 13.51429324489762
PRIMCOORD
 96 1
Ni 4.039705013439534 7.496216460124155 12.680811885370503 -0.03985415588246039 1.2466924416839047 1.819803163409072
Ni 5.068788658386256 4.206158946750028 5.177258414351107 -0.49762801800582046 0.4277490336264955 0.1266610263653754
Ni -0.015047982199817619 0.14152231599581805 3.2090632288664636 -0.9056718598939046 -0.5507860900860386 0.1377964741569046
Ni 3.3317933417739405 0.5497061046182746 3.4210212188002136 0.6299891800797666 -0.00410116665256713 0.9297432990208117
Ni 1.3052141644813278 1.6959427738986943 4.486974590030223 0.573407169919664 -0.26289812645496013 1.046317116353514
Ni 4.806582393105394 0.6877852147711082 5.709099368352577 -0.22506202944379305 -2.0984351556595215 2.2929915603152895
Ni 1.9692108804235777 8.110222517890168 4.658322326228306 1.0266273512340707 0.6699083848722075 1.4648202059017095
Ni 7.697259422900513 7.963500767166047 10.082270880629512 -1.2860094941159723 0.5498998308263432 1.141397539699131
Ni 5.350523967265703 8.89492996052949 11.288137153056649 0.16417959213612368 -0.9483771120719151 0.09790580860955397
Ni 5.703995039604918 1.5406614849164688 12.4389739970514 0.6467437738302861 -0.785698272851034 1.2313208443238406
Ni 8.783775999848748 4.678540195667295 8.293437264411137 1.013023644407707 0.21641720928460145 0.0006196358618699005
Ni 7.131434239601363 3.860259418501045 4.4469857569253755 1.2862936010152943 0.038108891056579525 0.5533921602503179
Ni 3.2508886230927097 0.9134006081973729 0.14322960685226171 -0.2660513273719612 -1.1769484402205472 0.35456695301586677
Ni 0.1340523413994798 3.571377310687647 3.7540546622500157 -0.6386062323248164 -0.9712943829897207 -0.7923291479039903
Ni 2.076145090312568 7.390048638234543 8.994708137894175 0.9438982503649551 -2.4205756127155666 0.4466450992000501
Ni 0.9542730958990926 2.2791178734728987 9.011006348227916 0.5986980832759689 2.0057296603039845 0.3863357607870314
Ni 7.6853665585246365 8.861578232171054 12.472178911323207 -0.9373722763209793 0.3233398766807851 -1.661478487391829
Ni 9.015077438214968 8.485189388573358 0.8013352921486974 0.7312934728479082 1.8332939988066557 0.6205689152071313
Ni 7.811128059145313 7.469596019133744 2.1708281725199496 -1.8611256763069433 -1.0567246848400833 1.45915915096119
Ni 4.479057709660753 5.299896191355046 12.97834309726844 -0.3234391212628107 0.07181116840503117 -2.2199534614816927
Ni 6.144151058186932 0.9196342050453185 8.234785498482903 -1.516147909641408 -1.4187465514720985 -1.0389763597177268
Ni 7.382975708023423 2.79143440067096 8.517031424908923 2.651030016819525 0.16021495106142083 -0.37779301342334287
Ni 0.43346812908865323 4.556204357067931 12.704475730729584 0.13519940285368973 -0.5125828395434399 -0.14828734638589947
Ni 3.4502049044728795 2.5850267218989638 5.587984210398004 -0.48096444130721044 0.6552243004974716 -0.42412043573497277
P 4.0891047218331185 7.236161621395762 3.551502007450789 -0.86005071962068 0.9041405108510429 1.7425335429926312
Ni 6.8091727026584685 1.2328412832871383 10.387733746641482 1.2170265391883557 0.029808341610684144 0.1622108984455271
P 7.431775233044001 6.033920456541584 5.088023150452551 0.30369587719761243 0.16547080014372148 0.37079112818421306
Ni 1.9663022994620862 2.7290799650107966 13.036913607601557 -1.2763763419015823 0.7237326297815149 1.51258410354955
P 0.48626856880959396 4.009511172982147 1.234120135551159 0.055056574654511636 -1.3828783768205797 0.7744484109688274
P 1.7500054454210188 0.08968955654397034 1.8885822460939294 0.2587085138536448 0.6349881759562548 -0.7834012492867412
P 3.9247745143040302 2.9265679955008865 3.415210520390479 -0.7164234977146113 -0.9829152550581006 0.7354206076424044
Ni 3.292901459203141 7.871580375192564 6.790188440890766 -0.5017770071771873 1.1339305418981245 1.0266324934403932
Ni 7.897471362545015 2.379099189825372 12.749735097208461 1.0001462742244065 -0.07468746151156169 -0.2926617308706379
Ni 8.289963587719983 3.790204168485695 10.740930581347184 0.5868751224991118 -0.03756073186259338 -0.8640485279261635
Ni 0.3415569707055247 6.088324770907004 10.636708276945146 -0.03437410660449564 0.33518443472419696 0.3425329046694681
Ni 4.295346195978744 8.383656829041422 1.7963331383038468 0.7481681371160599 0.32500363753645317 -2.005128022164244
Ni 7.167288270945716 0.790776681578966 1.0325822523318307 -0.5066878142152434 -1.5592457692721469 -1.8495911933047824
Ni 8.462290084495583 9.158475096411673 8.038315009649818 -1.1266049547709889 2.031163784106373 -0.04398154778727264
Ni 3.938975776268392 2.7415914799403867 12.133402174673254 0.45327237470858067 1.5378721886923774 -1.8180399008610624
Ni 5.945804303793924 3.469697013710049 9.932032055339574 -0.21351314826392906 -1.0909969757593918 0.17705490543689506
Ni 2.16942282006808 4.3768418644426275 11.117830042491454 0.5822396806096295 -0.613258497588647 -0.9527562149762171
Ni 2.2591456175373246 2.333365216802302 2.242047778278932 -0.6681245534989074 0.2515171383115281 -0.8107055935286489
Ni 0.44306829297964573 6.1810761860123415 1.5641582022901426 -1.5581707910404132 -0.35102037331518904 -1.3142888006766398
Ni 0.09064892658174481 1.7400424014291165 1.1798866426072867 0.9830384108995264 0.49286093563448025 0.017086266058325413
Ni 3.8266860839741152 3.65034297539455 0.8433001135892884 1.2449330357906365 -1.9431886043469695 1.4116469643128398
Ni 5.961002793516512 6.400724833351889 3.602247973317978 1.6599602509750895 -0.7638156138453298 -1.3053603878387583
Ni 0.7923879430957286 0.7315431994584345 12.501085589285255 -0.23750873984757806 -1.127549063851813 0.8521754306376615
Ni 1.3595538437142705 6.6854241247349515 6.603502787755752 -1.2412910681626752 -0.4942878978889939 0.42863375022429406
Ni 6.468508620140169 4.31747911205714 12.09734592770015 -0.342626492824539 -0.7544292875344233 0.25937057291767585
Ni 1.7949176289025877 3.6406200047518507 7.1222348135317315 -0.7911757510258375 -0.1836454141702192 -0.14078820979537687
Ni 5.502130287287061 4.023897106753587 2.762362441441577 0.8328633605726108 0.5517613095151143 -1.7092323577373403
Ni 3.441968541877164 1.8421105092015801 7.90506414389306 -1.1098562745577403 -2.31463073585162 -1.2007290875799128
Ni 2.824924632884704 0.14838010355169 11.295529565494013 0.21615701364467935 -0.6370602279939351 -0.3777595890822462
Ni 6.846688780266531 2.4312874425058464 6.401004611139613 0.651803961962013 -1.0174058326358029 -1.8724171900603623
Ni 6.828803315750947 4.887524046148041 6.930250926251626 -0.2384785599600151 -0.5057416482518903 -0.7865066276849423
Ni 7.8020237390563265 5.121124648512394 2.4788589000093504 0.345477846230405 -0.6220097614187159 0.36681903091034246
P 5.83525052648619 8.344811114422393 13.482629170935677 -0.007768073981193073 0.48884692937908075 0.45255040894089166
Ni 3.612725328292595 3.7864922651634103 8.925717520846636 -2.7046074358253485 1.6197212009493847 2.629395212158568
P 0.8029834880268758 2.5122198619581386 11.269150121211839 -0.5742355793582304 0.7088356580650245 -0.4247858372331136
Ni 3.0379435623501228 6.573420673741647 10.9805930357789 0.22486354027974176 -0.5149811645722874 -0.933575271172392
P 1.6252873405103379 4.99686822311941 8.834374228270272 0.23983455976727727 0.9548043557544975 0.74320179424972
P 0.29078330406727404 7.694304673987252 12.413094090007375 -0.16500131670647067 -1.1660302506461466 -2.266767079401122
P 4.582750929335511 4.7043388471162055 10.687224326412522 -1.863806822683532 2.3881624864921833 1.5626817915368894
Ni 8.019761033192609 6.000513326641025 12.775615004252488 0.8951200525199874 2.3831316089364956 -1.5450504516083712
Ni 0.1858084620513898 6.5263847644786726 3.9860680104325263 -0.9314230007160799 0.06995586036384727 0.5251336796252569
Ni 4.969472160539267 6.742718552881156 5.729681964610546 1.289353985108173 -0.42207049518447953 -1.0809426768471837
Ni 6.799791374858865 5.737328300782645 9.108822387642391 1.6891589840262329 0.05610789873716144 0.484958650068268
Ni 7.347370983618627 7.2430868141612175 6.973483519647813 -0.06613725794870545 -0.07290363013826154 0.2545602960132261
Ni 0.23551564900376026 9.134855572286293 5.795915431578401 0.019568409050230814 -1.2739168246174963 0.22168694232397304
Ni 6.064723713962331 6.522746729879219 11.172238973652052 -0.9577048172307442 0.09719824101956809 0.5229826947205252
Ni 9.097357961858936 7.230122853304285 8.60483363558455 0.966180458801923 -2.501762823018859 -0.8134420186232054
Ni 1.836958165784081 4.721411755680642 2.8717869506490254 1.8442034466303079 0.2664195093446573 0.3556121064509295
Ni 6.4747782279904955 5.56456782526041 0.6526486333972565 -1.4097433195322238 -0.18197599688759628 1.9042384483360173
Ni 4.368134588738861 8.454376897562257 9.30209066734073 -0.5575735453215171 -0.5668585701678689 -1.2331167598819988
Ni 1.8078631225788129 7.646871720339056 0.35101863074120804 3.0168604585643526 0.5318427162143163 -0.9177025658061938
Ni 4.996794354396579 1.6424341177976063 1.632661285766995 -0.34705418957858936 -0.03998811035716339 1.0346085696673342
Ni 5.8294702989246225 1.7537265823336567 4.15637512099772 0.3011877660637781 1.7519355530328216 -0.9801556900350926
Ni 9.229832282666928 0.7096032654184352 10.28307931021088 -0.7529136222208452 -1.2214732621057995 0.10326115938419635
Ni 9.077468808236548 4.697736830013138 5.746912767570036 0.40432988337160686 -0.03435559466173438 0.9356216121784596
Ni 2.4589143448448376 5.3073846331320915 0.6702201558408062 -1.9837485280472027 0.9871709450106613 -1.6356800382714862
Ni 4.648124749041413 5.956062822677153 8.589927850676181 -0.7884557809915131 0.9945752078945322 0.09200744084724799
Ni 3.455846628179138 5.2014476510013266 6.587879552876883 -0.4961041251621263 -0.10041083441959482 -0.02746478107917205
Ni 7.0804648208476095 9.036711740414253 5.378296760332287 -0.23776045084706793 0.24769467924164434 -0.07424163222339472
Ni 4.332160520719906 5.944077622397738 1.7966175328867482 -0.10547822164017318 -0.07167464282716689 0.3215017950307818
Ni 6.403605713542319 9.142002371220242 2.9533324805008196 -0.5994131070651225 -0.7446043310242015 0.6997624921191625
Ni 1.7210858404324756 0.1646579999866526 8.338588597882874 -0.34039863193528475 1.090622880249425 -1.29746581558203
Ni 2.107899407539771 7.170870904003046 2.699277628784417 1.0551372857483055 -0.02208809014829099 -1.3090198389682166
Ni 4.235604866388746 1.5208369664265573 10.012199010151525 0.7670711446681499 0.35589312802645806 0.45991893349082086
P 1.887992219670313 5.358908067307082 4.969178532366011 -0.3648079140175846 -0.44479184804139527 0.693648665911941
Ni 9.275141510533716 1.7963950033592182 6.9359138872156985 -0.46862777411872836 1.888722097867973 -0.571845481859499
P 8.180148497640564 1.6132190379177371 4.636740655494039 0.2096402955720841 0.5066230224155791 0.15749446680646426
Ni 7.462246081212006 2.495977976525557 2.3805017722001356 -0.14053392769272574 1.1562487457793504 1.0407275380808785
P 5.343968118114406 8.147812464221063 7.2832169211984805 1.2229670730425066 1.1872994444375682 1.0608682746948117
P 6.056302679559536 3.095302625628804 0.40185416243483013 0.35953818097821305 1.0708133017226655 0.7920437554530875
P 2.643530750381534 0.6057992426594309 6.0448890385230305 -1.2876855962668146 -0.08673693647692804 0.2013880828656209
Ni 5.097542058748429 3.341368574970977 7.522799043394116 1.5071333648476237 0.011669208807812161 -1.6382501129915075
