# total energy = -381167.1277231456 ev
CRYSTAL
PRIMVEC
9.28189605013083 0.00000000000000 0.00000000000000

0.00000000000000 9.28189605013083 0.00000000000000

0.00000000000000 0.00000000000000 13.58499309779597

PRIMCOORD
 96 1
Ni 1.4474652352644768 1.5097746015431674 3.3192077823824038 0.30806855234401137 -0.9288133310073745 -0.6961233527046785
Ni 1.3819443330506709 0.23885380832108347 12.027024792796547 0.8120147992583757 0.3743711322259875 0.4253733343054674
Ni 2.080425553250885 4.639592726332295 4.013550205260457 -0.6277816309054866 1.2611137593155572 1.4513694797134424
Ni 2.3203439950163554 7.189041754546464 3.9282774288561173 2.5157632510630092 1.7624647346989195 -0.700543079038929
Ni 0.5469988249162147 2.9184600762963426 4.997144345901483 -0.16745209223980836 0.09238230768816348 0.6950573733340094
Ni 4.276271480354819 8.773544898903536 9.305393813550113 1.8110531851305842 0.6085695767534101 2.2031764991336704
Ni 6.61562479790041 4.844908260681266 6.42413928824312 0.3724235215813134 0.7334619412541369 0.9223758029121469
Ni 0.4197746642172528 8.729873579323431 2.9566105242746943 0.004942945827572133 0.29896607582211093 -1.0920462429595126
Ni 5.187428778246624 3.1112357694651385 11.174485451237205 -0.18108896629695262 -1.067250781182388 0.16553533483306976
Ni 2.2082836674306807 3.737930807809343 6.424424242443143 1.3380139122077213 0.5218277551804754 1.2892897075291407
Ni 8.779039781197143 8.560107705759116 10.869325492320494 0.4148768056495178 1.0010523309784438 -0.6802290500719252
Ni -0.04159681587635226 1.4305350573868765 9.227307080847988 -0.677191291686866 -0.5023141106275801 0.22636660718782947
Ni 4.439911302713425 4.2111868272420265 4.998557050437103 1.249308539150513 -1.6255113252686004 -0.029694441740639184
Ni 8.254194985095763 7.12651890466515 1.975515998163513 -1.033049966930963 -0.4585282237908813 -0.9501470594881445
Ni 3.699225302464171 6.474901976188622 1.686440636420098 -1.6478531832989103 -0.28712126066838295 0.18525698163171322
Ni 1.4778263163158096 3.365884579811613 2.2426238971969954 0.07268302948702322 0.3754623084076372 -2.0013238179268047
Ni 3.9834833603049136 5.795708535390632 6.414276345801926 0.19205446416952085 1.4683408174604582 1.096981218367285
Ni 1.809960392518758 7.202314865492171 10.354304654698089 -0.8673369688694482 -0.1826624814316596 1.1333291608686997
Ni 5.877676956902194 4.561309217439926 13.395088050728823 0.7445865904123886 -0.4891693457155059 -0.3737754076235176
Ni 5.629256298614859 6.675725072986738 8.636061458814162 0.39299800329855544 -0.5667994347951593 -1.7201194369634893
Ni 9.186422186376905 0.5345740792435414 4.896683603454864 -1.3082760188236566 0.07679113811812582 0.8111408812938545
Ni 3.07301292269981 4.12873574715062 10.15550222660828 -0.7651240482441081 -1.3207196439036482 -1.2083058714859063
Ni 8.288881429574158 4.9098165577745005 0.49698518595904656 0.21033937852163775 0.551540708863876 0.40918232636790175
Ni 3.180933524773747 7.389901978927645 8.026095181209431 -1.9076510735619918 -0.6425901566732287 -0.36641511060370446
P 5.401005199827538 3.120285617837211 1.3330519471020634 -2.562230798496929 0.07324173020397062 0.7439265882308865
Ni 6.832913977787816 0.3578662758356631 1.1762120415817967 0.04717331525169295 -0.960387763379546 1.7650558924648634
P 7.655670500402061 7.942666717493841 4.012273016403024 1.2638702390147718 1.3328112849608595 -1.126483084481144
Ni 3.4500992200986023 0.9891809137027192 7.748866303032454 0.5287980158507215 -0.18877939296267487 -1.2859015077831983
P 2.3067552996145966 5.831759418546662 13.5651453758202 0.8448195044932224 0.8675069187884091 0.22490827747474815
P 3.9487690701392193 3.0799929083160142 7.90632995194821 -3.8569753584930546 0.18079946008099185 0.6354478892014928
P 4.134908207835163 6.06437300834411 4.0657979965285564 0.3306590360500176 0.7377608257398068 -0.834839253352059
Ni 2.709171890559426 2.4620414157835966 12.043598545876725 1.0309113233214051 -0.5566332928954348 0.7221678563975562
Ni 7.386829671429023 8.431850470061372 8.968512975852315 -0.46829301648712895 -1.0777475669486534 0.1910566190326258
Ni 2.236157200416664 1.4012785219317245 0.8896576427284892 1.639760893209079 -2.497322527859318 0.9831731367051776
Ni 0.42870756070267096 7.343065532891257 12.760723381912985 1.8500791886847943 -0.5813649913141601 1.1331687240314356
Ni 6.595278882380838 5.0696043933901205 2.731670277707187 0.5886952064269861 0.8640084187168475 -2.6000463266828056
Ni 6.421633176386239 1.8330351853936016 13.003744761433104 -1.438476425800858 0.5573622006416594 -2.058978749436112
Ni 3.846872418417565 8.693005889339974 2.844629092803032 0.03321531040970409 -0.2953667885066268 -1.0983333615198052
Ni 3.6855901975835814 8.175373126248951 11.814134303312757 -0.30380154953754135 1.0171219828467968 -1.0556072834061885
Ni 9.26021325771842 5.119680221048923 10.16213135656452 -0.26939478992289734 0.6710183301069347 -0.23577273099307783
Ni 8.060741713536032 4.612480308799142 4.512310089690006 0.07755012777133742 -0.19795000371834942 -0.7374479224850784
Ni 5.881241204876425 7.3222740863749065 10.775996958580643 0.3795722168109527 0.9086319709634934 0.9475397037722841
Ni 8.289549726069326 7.02219967814851 6.102487256928974 0.2548927396519804 0.48083999991420423 -0.02288281813544446
Ni 7.3437709569694904 2.5887300110968474 1.2040911437052402 1.7189848091384137 1.5501353223304464 0.06826793113846308
Ni 8.635857257107304 0.16722820326182933 13.355012537568555 -0.021655373486246573 -0.37306989691606074 -1.0071540730008075
Ni 4.697715957620417 1.3046539870052876 5.3841399952203 -0.3389999518155452 -0.5054876232595552 -1.2310963870178604
Ni 2.906115154927259 1.828746949549604 9.836743362204466 0.9608431057494096 2.1463319793408004 -0.4995221497047397
Ni 4.814268722756947 6.661328852653319 13.069998933412444 0.9883929903432203 0.8633954677231969 0.8860209184321968
Ni 5.488895470837953 4.082725389837426 8.753245392862794 0.5135418610225995 1.173980615841475 0.6568574652255204
Ni 8.243418704111171 2.799902421674308 7.402109528239389 -1.2028029393898059 -0.876710182554232 -2.327494736298482
Ni 7.97594231381577 6.580372157780276 11.601719975081775 -0.7198721183848441 -1.3013114145803653 -0.33191990504031227
Ni 1.323319879391173 6.821970622679432 1.7931648021297677 0.03746405838372903 -0.5960575603293283 -1.007123219762872
Ni 6.693444212004469 1.3215841648828883 8.422030224340702 -0.5266280047825963 0.13114040229296767 -0.07757198214820835
Ni 0.42038541295867066 7.569033285320086 8.287253385056761 -0.09025780514599294 -0.45190557626804106 0.007798155888180118
Ni 3.939125180438108 1.7083514795658563 2.7993919174071653 0.29367268863365553 1.1451516074249246 -0.4267311338849425
Ni 4.58268542338955 8.066125213080444 5.064688701392327 -0.9667458443870898 -0.528347044356232 -1.4076399000359758
P 7.083590136746344 2.089104125792309 5.157963400136731 0.7267181947724001 -0.6740321772325941 0.433668227324408
Ni 6.095708688450896 3.2071084708345112 3.6051449351672566 -0.6251627052254007 -2.670770946891878 0.27931744835324795
P 1.0301883291979161 8.457756241144915 6.260087349712494 -0.10391524802842748 0.4370078332206022 0.4190538198453428
Ni 8.527277640433965 2.624344645151865 3.086537573020782 -0.03719100722800047 0.01409221642700799 1.2746187357805272
P 8.372437055261745 1.4708834582826709 11.395376934871484 1.1835713448537037 -0.38010186406217766 0.2553316269616119
P 7.185273304865376 6.895826667291311 -0.06364317470029779 -0.7754773664539741 -0.11861733012529248 1.5168799027114264
P 3.0447217044043464 2.6902461050920863 4.637250904030476 -1.1257894008482288 -1.6321380865564987 -0.3662796134671047
Ni 9.245046640036403 4.7651489303620655 6.424505923125886 0.1868811474986975 0.6500643535630869 1.3519058396984651
Ni 7.61496938746715 3.380438592373059 9.627181360542448 1.0218489560088206 -1.9424242153771192 -0.6737521840983299
Ni 0.5816936231007995 2.2998310053729907 13.489272375258318 -1.2683069346298868 2.1752265508879636 -2.496234694111778
Ni 2.541837873685862 0.359180592276161 4.840169852892606 -0.07919229136045072 -1.322024992978633 1.1229940974912787
Ni 2.692937854864293 8.293930780870985 0.3080670486706949 -1.2746704149540693 -0.962093176106427 0.3844819954077443
Ni 4.486487855668359 0.34312755354846913 0.4140421653920302 0.26499203286951134 0.8629727783634815 0.5215842717111018
Ni 1.3660815731861868 1.452765197746993 6.86725420755413 -0.9308727846395645 -0.10736181181613123 0.31982826398310077
Ni 1.9299567409845577 5.559187267475601 8.743246934743414 -0.017118661958157613 -0.281420867849496 -1.2636619796587076
Ni 5.598579633107474 2.7727714403496226 6.790866061777225 2.4427655185490447 0.0813317063009567 -0.3948448266993071
Ni 6.351619836621578 6.454194066734168 4.570222621944234 -1.1865918768475823 -0.8949483028288135 0.5556691292099527
Ni 6.293737934623378 8.849619316603544 12.749353059599356 -0.2230791946858094 -2.7893795352664217 -0.843111006442548
Ni 0.9856630752073187 4.539608145138484 12.5469910244832 0.2672990837361332 1.3818962154129684 0.5739761550492566
Ni 6.54123040333409 4.936446316727809 10.632444086849732 -0.8408900875318293 2.404993956227226 1.1739998991151845
Ni 3.834880209087598 4.885507272762749 12.094311111585089 -0.7758432344338251 -0.755464413667157 1.8298824020219455
Ni 6.535605574499756 0.6831447438256752 10.744845988199604 -1.0111752783450587 -0.13990683563168807 -1.1007378571962396
Ni 0.7006921677717297 3.5886964876799237 8.459687803653868 1.548030874392934 -0.24134688264674567 0.8371992689438034
Ni 0.30241715871779173 6.513338306556575 3.940503541959393 -2.732293331776391 -0.9557420370774186 0.7607457166707544
Ni 3.8884738752418 6.193874018074528 10.294286060294503 0.557321320101395 1.1267684769320467 -1.2455804395666485
Ni 6.652724535278025 9.064179619135677 5.5909851859915465 0.5752992447360543 0.45430672951036594 1.3670321538169425
Ni 3.8044727185574336 4.285711168349074 2.5395916549104345 1.847081282398735 -0.5034623652994104 0.4513332487043389
Ni 6.07227190164117 0.39648638773978595 3.352423046381852 -0.05456292284754474 -0.15394685866452198 0.2987511315978274
Ni 5.761913152905794 7.073454306569623 1.8881510824534653 1.4909816947884258 1.6677236969705924 -0.32067210004063484
Ni 7.98391546227896 3.469711865852643 12.041710608277873 -1.1880352941623282 1.140308163289694 0.696556069366723
Ni 1.8146755955680018 9.359678052749324 9.700921381457249 -1.2960416815409936 -2.096362589401209 -1.311940097938805
Ni 8.51833917481109 0.18429111224888686 7.254005743014297 0.21361393550785146 0.24540511187651926 -0.32099940147306655
P 4.672404227865912 8.521290817664749 7.0420666478465455 1.1565269391414017 0.6436905888262593 0.9402871359749291
Ni 0.6963417432260987 2.949043922846065 11.084715596334128 0.5448848941102552 -1.4714690786767948 -2.5822866887065397
P 4.301926640252675 0.8511461290048313 11.150670891269792 0.4892603627674154 0.8990047322863742 0.6606120471719461
Ni 3.0584032187637673 3.4761442196186394 0.5365112108899533 1.022689449632245 1.3262824827034063 -1.0370655158482591
P 7.94254605284888 5.850044753206132 8.03014394414266 -0.0978286755147154 0.14837270701085412 0.4126389174579345
P 0.09360420604410621 4.843237519443345 2.546574425095368 -1.7527896735030006 1.0268651782764895 0.12424470361439892
P 9.232738846250385 1.2473661263361266 1.5153511645195177 -0.05218825196778109 -1.1630940508359582 2.4961431628392363
Ni 1.6573381804346654 6.405946772541312 5.90645640291496 0.036165394176963524 -0.1978669570862399 2.1098770789478762
