# total energy = -340892.6677318409 ev
CRYSTAL
PRIMVEC
9.05897258077272 0.00000000000000 0.00000000000000

0.00000000000000 9.05897258077272 0.00000000000000

0.00000000000000 0.00000000000000 13.25872206694496

PRIMCOORD
 96 1
Ni 6.527741551227945 1.9860438269893388 11.5497650190705 -1.8771107388812898 0.7920401559086617 -1.1652059549726383
Ni 4.4262954740868645 0.12880499990443092 5.835985731717996 0.6715963140975917 -0.4574198212180509 0.2194349130650027
Ni 2.599571795729184 1.497584032014699 4.860289103050645 -0.37330129620057645 -0.1639512781754015 -1.567340116244507
Ni 3.309586880126946 4.2710246861442585 5.023292629884022 0.22830239075796163 -0.010195966696395343 -0.7206503913117653
Ni 5.084928066698719 4.8014365825752705 2.7545128370742926 0.22546929218454073 -0.44802501026671226 -0.48613570109550475
Ni 7.442670592642146 6.112913084397851 2.496763329089566 -0.42726592334249 0.16017098519736284 -0.6452270800754437
Ni 4.988767074049316 4.40303203281285 11.383620746485683 0.4927943440626029 0.7257946545168662 0.4149927624020917
Ni 5.648749453557521 7.799648461350801 12.35854736249404 -0.14233472834689034 1.9683147099906357 0.013308287073131921
Ni 1.8538009470368204 6.5391015026911905 0.6039390463922811 -0.19805696160985892 0.7059506232077455 -0.5978015396036285
Ni 2.6733390084606095 1.5177583636802872 0.5341922056380387 0.4617950674676111 0.29403418573813234 -0.2263771487107908
Ni 0.4189965000583556 9.23082116627056 4.461639055134594 -0.039854927213408775 -0.5916504324005681 2.0914432977227206
Ni 8.623090939904301 2.4277502651044807 1.431968082701637 -0.25002049916134356 0.3033068692893099 -0.209614070319839
Ni 6.628921214619483 0.878846248213839 4.749353832218302 0.8120399960693564 0.25719207720911835 0.29492301610098887
Ni 0.7872935548541914 7.49265800266941 2.75390316822782 0.9206313094172145 -0.04280706786319724 -0.48599866129700814
Ni 7.694120491179072 3.8470013622685544 3.445610069286492 -0.028381122245854346 0.2155371206724933 0.3571601676643397
Ni 7.5948069761140315 4.0491976275473744 12.698739861133916 0.9071075638991667 -0.3154481326375342 -0.6431010348713764
Ni 8.267662155486091 8.860653433661998 6.642261457462207 -1.0531459663498894 0.09313486958347186 0.001598197725055312
Ni 6.817211957174155 0.7749787876937959 0.3824834056662046 -0.804573512488982 -1.015912793030044 0.9583655907431947
Ni 2.1224810111902483 6.513953795145761 9.27142619852232 -0.4936523211875241 -0.05145960133187267 0.5029825974495145
Ni 0.38875674409387406 4.6642475036602855 1.2374348022256554 -0.7588364154631835 1.076896788912584 0.34952321994437224
Ni 6.374681152565269 1.9684150665846532 7.065055478775262 -0.31257903861985525 -0.222822598590313 -0.40181585870050157
Ni 3.458480151458607 4.593261395473689 0.6540723058761304 0.3834263004497203 -0.1449629099983568 -0.7420985338832122
Ni 6.315082172759294 5.814691711056509 4.608612730202251 -0.08590004239792948 -0.9685535870197901 0.8554425314247075
Ni 5.061184499884392 2.757587452326785 9.598611824505953 0.6931974373071352 0.30713472767583233 -0.7953774478120108
P 0.1857678187249156 5.797153540376411 12.508331130818394 0.1605196267860332 -0.5669364745936559 0.6033931747587932
P 4.169854081725179 6.157102752051528 12.556340967157919 -1.2488578247663396 -0.48835096357926866 0.48780717526065664
P 2.322466887189138 8.589826393035851 1.3686975013581395 0.3531263639145983 -1.2198490962388153 0.9003339926207591
P 6.490219287303892 7.932471115540677 5.636084104162972 -0.5782536993786879 -0.5348964154389755 0.8993726571487544
P 4.654554403129446 0.9094302451317522 12.561565276574866 0.994176944014849 0.931315528603938 -0.44358960020317795
P 4.031940285013497 6.0469728238707665 8.223403639641726 0.6833022896806104 0.4643016359395487 0.28770875774073673
P 4.572842471551715 1.1285577299359355 3.7394233466294162 1.2691122041400014 -1.245871745554822 0.9211506722557942
P 0.19101205788127354 5.626772386372646 3.5609742717539072 0.24513128938984233 -1.9239549529283382 -0.8870444746007046
Ni 1.38614961179988 1.0128565336930553 2.649464086545631 0.8406810568448165 1.005695229067094 -1.3618596084770676
Ni 1.7539620115691739 6.261072578960356 4.937322981250689 0.9973064907827662 1.5412858423596165 -0.31631665128541653
Ni 6.140787542653358 5.680646095584704 9.143665698142382 -0.526799240253138 -0.57483464639481 1.0119208982618315
Ni 8.779584689128837 2.3071572237338875 10.367922413132323 -0.4313902299235087 0.07500602119324501 -0.610715162341503
Ni 2.2839390773221657 5.215966103314226 7.022004523959647 -0.7223084957404786 -0.22620257080613945 0.09054576870005696
Ni 0.6840303277971453 0.0511170638928672 9.307423837381569 0.1603764163399496 -0.572363302036182 0.1832587202547618
Ni 1.4847837039305156 1.1162465863645235 11.561896794987229 0.690871617387436 -1.7559971246967048 -1.4893292467866672
Ni 4.116134375044919 6.898353173486987 1.7407241351152338 0.15900987500972616 -0.23027442688266797 -0.6777358513364263
Ni 5.729926905760187 7.743645893610941 8.08775368014748 -1.3343886567503085 1.3951546230847713 -0.7511714427187579
Ni 5.426514741199994 3.173358052292587 4.738189554560165 -0.010480587816349692 -0.4915003078415277 -0.40708919128429893
Ni 0.9747726134765609 7.414633072882381 7.117467975729728 -0.1795568459231424 0.43205871674544294 -0.6119333510193202
Ni 5.068993334143816 4.332281457910181 7.171218482916347 -0.07998341980317838 0.3139232113525755 0.17638101929832203
Ni 8.108740601642616 7.208088500823372 8.708766171932727 0.45610393062010485 1.5566281291436417 2.7449989522685176
Ni 4.742055018108304 0.4601677180887848 10.259108753649814 -0.8579737824869934 -1.1612582831788 1.26090370018728
Ni 8.43451936920341 7.130507460686821 4.886554687797482 -0.26306807637392116 0.7860044912375431 -0.19339760846097662
Ni 7.229965919311201 6.302309021592488 6.936857430025566 -0.20958964483980677 -1.8676915024499188 -1.7788583455655944
Ni 2.38971163975028 5.215187031682776 2.658360903397348 -1.0628709069471372 -0.2679714272128095 0.4523748025949757
Ni 2.1902058892917022 5.361543790725992 11.636609764443346 0.6465337147020092 -0.4970490055738988 -0.5417707739613057
Ni 1.0735788260839123 3.1736841753011014 3.8135003762189306 -0.184362751952218 0.7868946071519802 0.029082004967620884
Ni 3.6737485139953723 2.6900256357295875 2.782674464756741 0.03832923459750173 1.2431967698258202 -0.4107368153392152
Ni 0.7920540448812532 3.1510548620991976 8.19699311133555 0.627098745905849 1.27039672727938 -0.04379000060175684
Ni 3.7540110099797066 2.404504941775383 6.621392302609035 0.5985160491721498 0.8404033777033977 1.0395466303988998
Ni 4.493458695895877 6.57494785671038 6.129387731711295 -0.22743901431640184 0.5063031771823152 -0.6818329042239354
Ni 0.8468979700436414 7.5521301568609625 11.393988740464696 0.3970593178521226 0.40253808157850673 -0.16028359951582719
P 0.37483129163031664 5.656784762128413 8.142300471013222 -0.3053884344086869 -1.8487285881941709 0.0906036185211859
P 8.579535400322737 1.394049035783891 8.010972547279035 -0.5198906860587627 0.6433301201630469 1.0319693322722745
P 1.7527662272046214 3.3760072661943434 10.503347710109592 0.3313177526799391 -0.22010057167345964 -0.6444413509493546
P 3.7696830323333073 6.157845587793144 3.9677520297599296 1.7049710113578247 0.8159897247457237 0.2570720066914863
P 6.98881607245985 3.9996088123082947 10.460800434162682 -1.3187368091456644 -0.3927126108476527 -0.07479699050623247
P 6.32145063039778 7.824125804934285 10.236409686359979 1.2095878235221234 0.3391647595281836 -0.6150469569476376
P 2.2701513212399815 8.480883190247182 5.648851819946304 -0.13050533981213006 -0.07766634163422753 0.08652019248043163
P 6.691835778345354 3.9171359270440305 1.4161375283300088 -0.03329681437991685 0.19195264848433394 0.6253164571944456
Ni 5.002237766095445 2.8247869100256326 0.36998021187866753 1.0681743214379216 -0.25841386543136136 0.6797395120300165
Ni 1.7302365626997638 1.0993878386188298 7.111686539506566 -1.2024951783414 -0.4972004435500985 -0.11248113532056755
Ni 6.768365977676691 0.7132210547509062 9.183202677541255 1.504530637117454 0.08345183796775306 -0.1732023644600243
Ni 2.752115832961713 1.6134482897618363 9.276982066331257 -0.17649337650647023 -0.09326419607248454 0.457081978262658
Ni 6.332547871659723 1.905826625867298 2.547278877211174 -0.4927058981138547 0.5040938282358222 -0.4080199306286844
Ni 4.295900624515927 6.816768067523678 10.486123885773813 -0.30096690830222356 0.30410005461456663 -0.69039981995734
Ni 8.219169475914516 7.422061430298538 0.4092227746726334 0.20957498955178744 -0.356312989172696 -0.3604966882367404
Ni 7.376358914244253 3.7888608770284353 8.304149884755356 1.062822055987073 -0.10672443534244844 -0.015990204780669235
Ni 3.2274038819813615 8.31525799678425 12.650889462709669 -0.4419116982801228 -0.5282552559733741 -0.9280916223500016
Ni -0.07994180835929536 4.855527707126337 10.417868151886276 1.1646639664262395 -0.011155502396187239 -0.7496496067575927
Ni 8.656129012461285 2.217554927144604 5.9370304164198995 0.14871183551782777 0.8390188386510453 -0.5755041616580089
Ni 3.457447428598312 2.635762390701804 11.818466824757829 -0.3553786502838847 0.3295524332494002 -1.3003269391799088
Ni 0.9994130185643023 3.04894212454441 12.630696107201915 0.34790471050434274 1.9802716252421957 0.7855841158706728
Ni 3.1387799544176205 8.20625138118837 7.776558952347994 0.8442314932002363 0.43110869412734787 0.5726679777607945
Ni 5.511696259229417 7.998547260654643 3.7057203454939627 0.4138653336658679 -0.32022087143582917 -1.0732993013693128
Ni 3.215464156280757 8.371025031240181 3.4894573077812296 -1.6093092615874414 0.10674140462331294 0.6029792271498261
Ni 3.205761996777459 4.130809910428059 8.88021447289213 -0.06407883275777997 -0.6579661249086668 1.4295112461877701
Ni 7.393299192742076 6.340510708450945 11.406677643187637 0.0534069548662306 -0.24546553280080952 -0.49920230447147573
Ni 0.5226202742192589 0.33935726137918176 0.36609210089938127 -0.555151823253902 -0.8132625556225478 0.27591125088517643
Ni 4.609966140687584 0.31690822172920674 1.399842248671248 0.08252186995431594 -0.749066223450297 1.1886276763306884
Ni 6.164621699192272 5.805370028396478 0.11584613980221983 -0.6307908500454557 -1.1471028176140246 1.8224246601923195
Ni 7.88977617834269 8.94463010835441 11.648622867820867 0.32815812400503486 -0.5612368531057174 -1.2974249350417655
Ni -0.07902141675748854 4.885811852055867 5.603003454435434 -0.5662463905051668 -1.608213457420101 1.2726179033004146
Ni 7.956812574537281 8.817016363328303 2.485586368869987 -1.0954925496369003 0.27625372182625973 -0.00887133434770085
P 8.387186238106553 1.7133596970091527 3.445928945117039 -0.5358644357791997 -0.031205993289159156 1.2137650948282646
P 1.9747744652506805 3.2069306042246346 1.6368023207604383 -1.3494810323070565 0.09125873560668153 -0.31998201595214565
P 4.568675344220701 1.0558141810923458 8.077584983562557 0.7556287071591632 -0.5137115538312443 -0.10106440884319368
P 8.322985300291545 1.8189057851257981 12.568578733052416 1.124991587537282 -0.2405392991437857 -0.2897144753168559
P 6.243244521161577 7.629366956044081 1.3612600849695233 0.15362958453441927 1.2977427233925005 0.9286125278504782
P 1.700831138098731 3.204702096999788 6.0642872379311346 -0.37373761240704667 -0.13363051570467308 0.1825339262735953
P 6.884782832743811 3.9896711195210695 6.064168565391924 1.1926013162664557 0.3504161640722868 -0.5117711422754219
P 2.7383552537969043 8.485358322641794 10.295768603395796 -1.994649491230423 0.4353060200381471 0.15248338674511805
