# total energy = -340877.18797435 ev
CRYSTAL
PRIMVEC
9.15098182485852 0.00000000000000 0.00000000000000
0.00000000000000 9.15098182485852 0.00000000000000
0.00000000000000 0.00000000000000 13.39338689609880
PRIMCOORD
 96 1
Ni 5.903847262152394 8.724564119645695 1.8817712437224408 0.582090813736591 -1.4350542874931866 -0.6130890618903183
Ni 2.891719323404146 0.8082092006400617 5.224867307980481 -0.6293687728869484 -0.012295272427585276 -0.28818261205336176
Ni 8.858909679903089 5.997461803493797 10.459323929535902 0.6386481413063453 -0.5626833557442568 -0.5741818433021596
Ni 6.121466754590311 1.7021466267145833 2.3794958759728084 -2.076397459133192 1.2572709885306992 1.150357062885264
Ni 7.751778176072245 8.407491759632183 4.744714390518358 -1.4706380981350673 -1.1030431082906487 -1.344897269591116
Ni 6.636923243806196 7.586172862811702 7.113723241625356 -1.0374920618627166 -2.850285626723175 -1.106228962217798
Ni 8.705200642668334 8.407198928222318 6.945327794087687 1.179900837980652 1.1812149288063851 0.6424880838777257
Ni 5.129161767353007 0.16942310276666545 4.043718089815331 1.305793875831751 0.19635283443455862 1.158914722647288
Ni 6.6365297515991895 0.9244779119271896 9.35820004509808 -0.6095684503315696 0.43791646107780063 0.39249175308609824
Ni 7.667259710399792 8.024742804974755 9.174214985377695 -0.43529830672866326 -1.0262146891766843 0.37624572354088104
Ni 7.524449492200972 5.283319202684117 3.4408010943560012 -0.040248048886769396 -0.1234980552563615 -0.030751936470876075
Ni 2.59650865833341 9.107422886081824 0.49831121016825497 0.7671220525107433 -0.4523778879187693 -0.9884320711112718
Ni 0.8462333592111071 7.832938231512801 11.511401298115706 1.2925992315183479 1.6654225596412415 -1.0959412071385448
Ni 4.308208909794858 4.808364957845265 9.7025304338793 -1.4596623158498538 1.1316990814644445 0.9105546419075028
Ni 3.091347986098446 6.802812237495045 4.83284291841556 0.15015268172941235 1.651523690171962 -1.2790279205918167
Ni 4.410718205210927 6.3483561913467845 11.709530114932601 1.2542316874837434 0.26155961014919465 0.08066450503060302
Ni 6.048917772796114 2.2664419045071114 13.255367910551717 0.7579552984098108 0.12424573205566344 -0.5775073081309666
Ni 0.45325269207334484 8.103349736560546 0.46121587622537696 -0.8713502037938993 0.18008186518867697 1.3716364853581733
Ni 6.290741611455732 0.6376257534118039 7.068105598557234 2.384709237836261 1.8395006418379996 -0.9184970366830311
Ni 7.113277588823467 1.4996537067925355 4.544148667312489 -0.5743355952712044 1.6791252539393147 1.6621323189257438
Ni 0.47970909485654406 6.004672776961737 12.934984725410411 -0.14323050068828236 -1.5079283499450933 -0.23572696535680693
Ni 4.281982196648771 7.124780372642249 0.9713995698673694 -1.5547206277082837 -0.3887286864992402 -1.3621349736256412
Ni 6.677910490205818 6.56716531138728 0.7851917367264714 1.1927211296737719 -0.7333732381950725 -1.7725997662503925
Ni 3.7912059046956204 3.017893057129977 1.0836171416186384 0.9917266827021437 -1.6608843054512556 -1.4408133014641509
P 6.327189971002438 2.1750144477581426 11.032976085971791 -0.37940303822294014 -0.0765078025497521 1.2298676568170819
P 5.754219562692642 7.985567452923676 10.734545190490689 -0.39141214686867426 -0.32497792650484036 -0.8329062979954042
P 2.698404837985073 6.67870662560139 2.310452635213596 -1.083230958660728 0.7643655728115288 2.0518274831033114
P 1.4489938728857907 1.3745140339827924 3.1091942303334412 1.3623710008958472 -0.3155430063441856 -0.8326203913238693
P 5.6489375198644085 3.4475041883474558 4.000256418002345 0.33080790292305606 0.29670736169492123 0.1529947791638978
P 9.075293789830635 4.374095977014612 4.656331465333836 0.09105947511168189 0.6397686280640336 1.0475733573581185
P 2.5836057743362075 7.043903997629999 12.551558598117671 -0.0807210693001513 1.203186805091786 1.5396927868408836
P 4.5676849918804345 0.9850940137693643 0.8295611859100416 -0.6739378177465749 -1.074613906415678 1.3176199219324018
Ni 6.523350411686143 5.8591447172401026 9.861510436491637 -0.28746681693325976 1.1084853623521427 0.8999907503487273
Ni 6.434970231796088 3.5528228351019226 9.437006468081844 -0.6839327241757576 -0.4667907209099897 -1.1771168474776115
Ni 4.815896215667746 2.1704298059974345 5.797916414731677 -0.10736001204391833 0.7273949091244504 -1.0728303321526944
Ni 1.0793216708751725 7.475921836997312 8.6449752877387 -0.35545244094461365 -1.3364468248309178 0.9671811321522955
Ni 3.62752229756232 8.698666841835708 11.151548099317143 -0.07497516795530959 -1.1218936653382485 -0.5157730643459633
Ni 8.589449876937406 2.2768740234835727 9.049187869641118 0.4660366163527845 -1.486591021919898 -1.22807662635493
Ni 2.369509409798237 2.961047159689822 8.912428280448646 -0.5267444757558025 -0.12028237653254123 0.5740635725567403
Ni 7.676483899810558 7.8957505689289675 11.644786005309477 -0.4453590333987749 -0.6763016899930611 0.630485660100211
Ni 5.465679963177906 8.588004021851194 12.84415025226642 -0.01911203823910257 0.2348324785669956 -0.4033852600701504
Ni 0.16268340484897797 6.347157412762647 2.0038242904525694 0.9405015659785801 -2.086136797908143 0.050421389875345425
Ni 4.2020483727370275 1.7629457481879238 9.982948537261047 1.1551048619828945 0.12420305174318609 -0.8453396386627506
Ni 0.21931608441882502 3.3270681200586782 2.7870696134015907 -1.5052767712548591 -1.1770767382682954 -0.9558885899576118
Ni 5.1401063412967325 3.963866624737612 11.769318052943749 0.006439327867440522 0.07219400566574663 0.18537139572239042
Ni 0.3166504997636758 3.609430807021562 7.2418040399079375 0.10628246270902342 0.14121655558204713 -1.2034246321342048
Ni 7.646523586188685 0.3675061646757685 -0.1100304871588353 -0.07147049723616078 0.7187544598406331 2.0413836620621684
Ni 1.3827499173852615 1.4602861841287318 7.178386822610767 0.02136843837344707 -0.37187767638017244 -0.8542734508172706
Ni 1.1776032128113074 8.287723712997161 3.0391196739526083 -0.9248425192850847 -0.8648807940194718 0.4510583977763974
Ni 4.42200136547231 6.52626957480324 7.411122821484837 -0.02986593432149695 -1.9111248910432055 0.22341215254519586
Ni 8.710352645285656 5.789569804452353 7.916160918196598 -0.8141781254582816 0.141494234723466 0.18476101583190116
Ni 3.7092222609148164 1.7405258433700905 12.402798411709643 -0.17993068432279336 -0.2918639175596909 -0.3611165812089265
Ni 1.834671141641874 4.933660197341499 3.570556522263751 -0.10861779571041938 1.1426949183543158 -0.7426274098034887
Ni 2.843548556481258 4.871259654095457 -0.13435745653341824 -0.09057842171020529 -0.11262280310475443 0.6514468357329103
Ni 2.1226159273553207 5.533022036465431 11.086040797832057 -0.11575055010045872 -0.5037739830025582 -2.3415131620647607
Ni 8.218066441375386 3.5396911765657633 11.037262405733697 -0.8405311615305137 1.484023775413354 0.04949347874443734
P 0.26550657893249674 -0.12784561805653244 9.705959306669197 0.47923126066618754 2.0158613494213475 0.4485757405638597
P 0.8499129688956993 7.5625633303912885 5.490458075943313 1.261659861627014 0.4762716638172313 -1.0083853743047473
P 5.544250290837464 7.277473650924032 4.854339489194162 0.3126014072173584 -0.048994684731147875 0.14423914445845482
P 3.0707674285738307 3.3739760515265207 11.13477892561156 -0.3013888263309906 0.8229972664118085 -1.1053681568793994
P 6.445887352795139 5.204941045637283 7.804795302828407 -0.34959366817099147 0.09144128393113285 -0.8713772003770929
P 3.1612797871669693 7.060760105660387 9.294930158604 0.3176765077474206 -0.42603642181076307 -0.2589581679706056
P 8.353089174268092 1.5180746326693924 6.834591766250708 -0.09300091510876886 -0.005841546382441553 -0.6770367683868727
P 4.998156315364394 4.940193998174125 0.4076798888148584 0.11318356070423087 0.5756594562889505 -0.7324707809854611
Ni 5.559019975072559 6.475930025251035 2.7727794406001505 -0.023904574531739477 0.02746889484423011 2.333403645583749
Ni 4.545338294915068 8.641793491450878 6.194160321893129 -0.22786787432370434 -0.6770380539384534 -0.1306521498026395
Ni 4.983285970332157 8.484762647910463 8.686991104465475 -0.6361711405207625 -0.3784985241307997 1.0941231800931996
Ni 1.1082936784887483 3.297492147662255 12.067280418169066 1.1751576668687116 -0.16721503652833783 -0.08005695335359116
Ni 2.5372377507803052 0.23466136539393717 8.832617079689783 0.8083239806703499 -0.12015382137447696 -0.44768845286289993
Ni 3.768950717545836 4.67112768741545 5.073655573612986 0.05593692037693593 -1.988635166715543 0.1806459652222631
Ni 1.526813820057568 2.8157661764702615 4.68323901150786 0.9934773468446632 0.6561722662330376 1.8305436897550278
Ni 2.1511578388356565 5.240867799235167 8.276457024502582 0.2187368585567136 0.38210192521134195 0.9421830674460612
Ni 3.931096959777342 4.725887161060314 2.3558964096321104 0.27500313724861025 2.049421958985612 1.6853807479307232
Ni 1.6042768789485717 2.1452371537674364 0.7370392717667004 -0.37687718647729285 0.4100732136132873 1.3127613082885197
Ni 8.440133310850637 3.964543797372926 13.334696854582457 -2.4205509301252186 -0.3258629002129549 1.10943589919087
Ni 4.567602633046411 3.7141454889931818 7.810473486885332 -0.04715480330893169 -0.8488432809406349 -1.994493425268533
Ni 6.967255376097685 3.2265537386223184 6.783575959161345 -0.08778543234610042 0.12387420764885762 0.11237134921558066
Ni 8.276239231141496 6.261202242985542 5.533865756965106 0.15350720002394208 -0.8594616798864294 0.8002226917194541
Ni 2.4883806602405447 7.886572134425994 6.945341520560025 -0.5449609987638292 0.12757145399478675 -0.9505602357661629
Ni 6.4008370705836315 4.001669329554947 1.7257113193253597 -0.42974678078281464 1.1478263260436103 0.782259165262498
Ni 1.8837753086837083 1.1493724347039538 10.801351016258899 -1.7189742676154522 0.7854326778944731 1.3945763819837982
Ni 8.469242583187587 0.8491516072300488 2.7049953749033597 -0.34752547278805307 -1.0670224672216655 -1.2271222328614608
Ni 8.339692137266743 1.2501521946055045 11.162021397710616 0.5754779364057637 -1.2955919955980848 0.48066799311271413
Ni 0.32930539216064797 0.7567761087916404 4.878916280365285 0.446016978697748 -0.43217595904959766 1.586262664180623
Ni 6.036161304503844 5.223846973536729 5.5444598483151495 0.10567413970106318 0.12077654256014037 0.0042870574111281
Ni 1.5122454574167556 5.4294512271886 6.083610974079938 -0.443755693467397 -0.02270644045858025 -1.055885990988872
Ni 3.2805719827609594 9.172852404223663 2.9012079761819467 -0.0629056383852852 0.07750256236285362 -1.6642431946211595
Ni 3.7716685590686514 2.4575235504259596 3.3355025797609628 -0.3464067858025776 -0.36972643436512453 1.0485418919189748
P 0.9732251906882502 4.374343053516687 1.1243911701479525 2.0983063433911413 0.9009669982190678 -0.8313597794438908
P 7.73587377012392 2.369664976484728 1.341187074245622 1.8548280162236894 -0.33257502212580786 -1.1514762640913718
P 4.292890166666264 1.1834140861008273 7.635435341834494 -0.9555715729378252 0.6714122231112436 1.5878829733928652
P 7.4496036140356425 5.61772352176905 12.082762963867552 0.0356120927766548 -0.06910996742378421 0.3413432552367412
P 0.33716791551553876 4.149430228776805 9.376321733877981 1.0587244888789313 1.5346115156632345 -0.020736718326719125
P 0.5870912879524075 0.7556560286489045 12.819506658929921 0.8888982399799917 0.8998675945073019 -1.1102144292281073
P 7.764690211051004 7.6403192206921595 2.458208958944676 -0.2077531058517003 0.9195578738473777 0.5987057965854528
P 2.63863977742782 3.368018762532068 6.587644293016598 0.10869852834968376 0.38905778770388477 0.5004469755118542
