# total energy = -340871.50376674125 ev
CRYSTAL
PRIMVEC
9.19027317664456 0.00000000000000 0.00000000000000

0.00000000000000 9.19027317664456 0.00000000000000

0.00000000000000 0.00000000000000 13.45089376106780

PRIMCOORD
 96 1
Ni 0.9892226015164155 2.4399255697485382 1.324945111019704 -0.5786288233299196 -0.5136845572480508 -1.3147220315593164
Ni 4.0628818241827656 9.12691522419184 2.054691383668116 0.4008532376769161 0.21873197346070716 0.1408280618943768
Ni 8.976709402835217 8.285582495244611 7.021608412163372 0.510471706737708 0.4774332882255004 -0.9318582884812855
Ni 0.4505218852310254 3.1542211554864776 3.844022825715382 -0.5722175204869371 -2.291316486605712 -0.6087606097182935
Ni 6.940337909297565 7.393271322154873 12.372925149953735 1.3656401585654223 1.0390372948626494 1.4451556375932466
Ni 3.1529896589090316 2.3373896942666574 2.154415954649691 0.6423361316808937 -0.19252497604803614 0.11781951681434548
Ni 6.913346077596364 5.89186561796922 6.2968202917801275 0.770198634553538 -0.4330239088721897 -0.36374681974292195
Ni 2.021244304235584 9.283278528435696 6.140763023626039 -0.13804072895722677 -1.7581262552245656 0.30853212224399124
Ni 8.575526417049563 2.0287803280677204 10.580150112626102 -0.2789623790066744 0.42604747755435657 1.4602490415912595
Ni 3.277729233876815 0.9460650796679876 9.713858440357757 0.23452471751858966 0.56320580390663 0.14160659193161418
Ni 8.89191994445072 9.140231929719603 1.047866652339883 0.538642255634653 -0.07041145984402712 -1.0926676785935956
Ni 6.747369747830051 3.0758189368133646 12.652677059039371 1.7619397154333847 1.4079618021517688 -1.2774986284314838
Ni 2.374573538687173 0.09737002304768085 0.558224532174402 -1.7415421256136394 0.8406813139551328 -0.7991158318085204
Ni 4.274588952227993 4.1212124866980915 12.6944551209156 -0.6605107457073914 -0.04925256637822485 -0.25227407108221067
Ni 8.334180658688924 4.822320030729793 10.327865172354008 0.4363108071535776 0.28330780045956366 0.5981098148726667
Ni 4.57562553350293 6.902676170682816 11.240414245542217 -1.5476274683069282 -0.384315387922893 1.529732076083746
Ni 8.027170399986074 6.1487061765505695 1.14017743011977 0.4412678940485368 -0.572551249677272 0.8027243750953853
Ni 3.717529746665682 6.868175885968378 2.867542537666353 -1.8925764386170567 0.8475929534733017 0.25262194133993265
Ni 8.247635858167916 3.5515717974453 5.884052966920807 -0.6357183692540599 0.45312299361490993 0.5818200765737076
Ni 4.1370565172915095 3.387121052991346 5.564728661470787 -2.255032564573013 -0.04993339449533336 0.35776077736281614
Ni 6.6279513409095925 0.43426521138143337 13.137676253302418 0.07284449476555198 0.5289697655418955 -0.23311086789019853
Ni 5.6351812940282935 4.002207642061104 7.202187166645394 0.5924348759750765 0.7310795570648894 1.9151779780666567
Ni 6.012322525734839 2.196806088705456 5.959054784596493 1.445080047160305 -3.2391330981884665 0.5264251447431708
Ni 6.18931799278741 7.576975688472638 7.77133433823991 2.089847928211143 -0.18213617661454437 -0.796957647814937
P 0.874324889867942 2.799384716268462 9.259850684590722 0.8430518710698384 0.7900948592568329 -0.03909825155304234
P 2.4906191154291024 8.762493330270265 8.235726183431252 0.6450635579143857 0.11031446668655194 -0.6720200318985716
P 6.009960625582572 4.2560337911096 4.993966758916142 1.7278867396137338 0.47405048779619646 0.18891463298895853
P 2.8021234176123353 2.4640684168302713 12.905365452294674 -0.1018154280766053 -0.4905376868179423 1.334554235793895
P 3.4846298491608136 8.645501155412836 4.465764091439835 -0.060071768480915895 -0.5861626698131196 -0.10174755095314736
P 4.164029968446777 5.153261760236158 1.450060568151798 -0.6113260564526246 -0.9302480065713721 -0.891632351081703
P 7.146494112471315 0.2285437081189749 7.35089956864504 -0.14466106248722183 -0.35962714114759353 -0.9834808977535837
P 6.8004068131169495 5.2316823594552035 8.648938317502127 1.6633343096536453 -0.2509615229183742 0.30779678673986344
Ni 6.292019293182679 4.196223494646744 1.4077163854608625 0.4117506013157102 -0.019372748099656955 -0.7244203998771588
Ni 0.4035255863646911 7.182446460314384 13.133869642239892 0.8608505898141561 0.2676703510326229 -1.3780776129978265
Ni 7.8076423496467635 5.045671234622968 3.6483527239958593 -0.04206813281464368 1.2859174486227982 0.12125836729256537
Ni 0.14685964296969625 7.987670606778122 4.369078743728123 0.2213177319100124 -1.1554249643264747 0.16455163076356177
Ni 6.666366681907554 0.01040155094294096 1.9877861964754933 -0.48293287788749084 -1.2702643154665736 0.6847729606888658
Ni 8.712672860521474 6.693606650978836 8.57174370069675 -1.6273398938369072 -1.404330890267401 -0.6730800977319699
Ni 1.4609776934081324 5.4334180413323 0.9011448634646769 -0.47450403039384725 -0.9662251959969295 1.7125588510074121
Ni 5.390269709756837 7.614472002173999 4.801592289082232 1.1956946104797987 0.11108245520082806 -0.3045641387351787
Ni 4.970421279577199 2.0817806322627552 0.10304961174068093 -1.0269744501608442 -0.06432437310968277 2.269228653567737
Ni 5.862364841748297 1.107253277219005 8.748125257515191 -1.328229836237764 0.6110234376105412 -0.2247097883106969
Ni 1.8079380686942699 6.7409273664808715 7.675281281308259 -0.29248689585567045 -0.31782100374508493 -0.6697448627111499
Ni 4.264001757771139 5.604375499046196 4.644257572985867 0.05117806553571186 -1.0916562066099456 0.2895093012845853
Ni 0.3540175858967436 3.836378356662247 12.692424070590109 -0.9311358084929641 -0.86997209249945 -0.1352503106962832
Ni 3.207809637151338 6.947368468116569 0.5100096031127735 0.7756791980521351 0.5097368854542125 -1.6298315499105094
Ni 2.494626074442287 3.2604790915195965 10.874361078169176 0.05619043114863872 -1.4009272639024906 -0.384691283205073
Ni 4.403712287400568 3.2726378226536403 9.35438367037379 -0.767339310727872 1.0377954520357484 -0.5773553559341347
Ni 4.855634770231614 8.26767065323384 9.406075279698465 -1.5412912416762552 0.62393346080399 0.5096728649854965
Ni 4.839083088619813 3.8507427533081358 3.102233619372298 -0.9883919619019559 0.18248276132068572 1.2911612135202408
Ni 2.481162324547068 7.347338337870707 9.991445121132598 0.24961349353091208 -0.2547652129351806 -1.3624491624319504
Ni 6.708522464002686 3.093537783091851 9.595396740853062 0.9614074628933119 1.060526832194993 -0.555671700313114
Ni 4.4555546172018845 8.791727588575174 6.711188562190128 -0.5270337248614471 0.9961271257626846 0.39449027157336575
Ni 2.940712733939911 1.5572733735460855 4.607563570114442 -0.4788306827936592 0.5014286226988333 -0.8896009224739712
Ni 0.16575024905134952 4.3950642405395435 8.0385497959726 -1.8903249235787183 -0.6673586218671603 -2.3561039153947423
Ni 2.1886083652197668 5.141727967663804 12.208313575722876 0.5206517325945034 1.9800119438229058 -1.0098295629504415
P 0.3149791443916857 0.9546579848912158 5.045376226860758 0.468459109751348 0.5983468705841373 0.8459456476778657
P 6.159219848823696 -0.09923013429600319 11.111460011392218 -0.15782973865869593 -0.2537390856635114 -1.570922691389443
P 5.623040943440182 1.983637707258632 2.329976820092266 -1.346219073726333 0.4021663000613848 -1.2201026070105179
P 4.1384350582364124 2.146103352751926 7.49400406608082 0.39255937309924005 0.05733765737920448 -0.3686332013009458
P 0.3170441987271503 7.132001052003902 10.371836033359928 -0.32378724863084885 0.5121478088885503 1.806152148284541
P 9.039653582379485 4.191030990420943 1.9172499324339964 -0.42044427243496624 0.33520088978442913 0.06341420259058757
P 7.903359042587858 5.359445534228809 12.531740419024926 -0.6558498498966124 -0.5105346987651594 -0.6892402524316
P 3.4515724373020413 5.29816479409139 9.97620489147305 1.7980914827635934 -0.6163929294525707 2.2772109004422654
Ni 2.550732690899836 3.9900029595622306 7.589613232828212 1.4611782382737482 -0.14833774000786065 0.45832176420703
Ni 4.023106322785833 0.3034471898739243 12.430387331673773 0.9935133422889211 -0.8773146489074503 -0.8637929602719318
Ni 1.624610503568111 1.0361940866457415 11.66080857793604 -0.3037133606991092 0.050438873376842164 0.033644170417006576
Ni 4.783858738367002 5.878254823706545 8.47273137587004 -1.2413016096856364 0.2270536059525251 -0.5163685318381172
Ni 5.709705217509746 5.804576405337967 13.25034072862015 -0.8120819050508854 -0.04066713870205899 0.5236010450308143
Ni 5.258086013686578 1.9166957589741453 11.014439218717246 0.044673945868606936 -0.479681975050361 1.1624546174797463
Ni 5.9470256363112695 4.890566997775455 10.93163485929341 -1.093400442994562 -1.632974723525181 0.7577652938861917
Ni 8.639830756992803 0.8756326657110066 3.1355915531570595 -1.5693021250668844 0.6294695601308707 0.6452972711917467
Ni 0.8484000488580974 0.699388962987056 9.187955179177548 0.6698209673647239 -1.0750522795046773 -0.30546711016542233
Ni 6.659023653807704 6.86517066670849 10.271599564174148 1.4299213371419954 0.9019396465449822 -3.0810282514915133
Ni 8.686443821476454 8.936685764068201 11.662704531248927 0.5021696146299158 0.17884156502367263 1.0146943472419105
Ni 2.1612673031458582 6.800121914655003 5.079972090414042 0.1606741500860265 1.1027515451921588 0.1364672138225198
Ni 1.3057264121931638 4.540491119953837 5.677824160590625 0.10449708867382648 -0.42329973960589035 3.419238617526227
Ni 8.168746555027605 1.9008517283807276 8.083906550141796 -0.6946974188914294 1.0163691638411723 0.29531922309814296
Ni 5.88103947641525 6.362481116013151 2.130352143915465 0.516416354356917 1.7674508750596012 1.5281850433116004
Ni 7.4697895348699515 0.0736471714404945 5.244126908078491 -1.2115529176682942 0.240761699567237 -0.6009593685063199
Ni 1.604373522496936 0.4341972033614848 2.8231140010667244 1.3428576134532682 -0.7836681297948827 0.05905721117347248
Ni 7.5036740712956655 2.3388233768493567 1.519157635446816 2.6756897243497337 -0.8995130393813605 -1.1628806492735715
Ni 0.8997699986289605 2.1289083520325036 6.870622336631932 0.7737819810294222 0.7415467751448003 -0.5627067527830244
Ni 1.5190418380074442 4.985576039698165 9.669013584392768 -1.6207547844202217 1.311590170798554 0.544314623429082
Ni 7.208611167448642 2.7337294061992177 3.9012433032564133 -1.06681960718224 -0.7552808369014411 -0.6565142229534886
Ni 5.253610350752126 0.7502387433080423 3.902548322017588 0.3979844007695533 -0.16765598072049837 2.492948567161339
Ni 7.857334155574032 8.946905347606416 9.558500551976381 -0.9067427243605805 -0.33014173009396686 -1.1356562663399796
Ni 1.1906917654774967 5.315653883545725 3.4688915067065054 0.1655296784061149 1.3656653553764029 -1.3219296050513492
P 2.452369199344529 3.6958958441036716 4.311724088201788 2.749495811697607 -0.8473911218751405 -3.244560696961941
P -0.10224913896534063 5.943533332584182 5.840149194907538 -1.4879297953359794 2.595541239723601 0.060963169946933723
P 8.491003476581081 1.675735992078078 12.981335924740977 0.952139921548457 0.04535965908172188 -0.4198472622809156
P 7.561398175795235 7.493849669494991 3.175433224519348 -0.29239022237680606 0.29000835240819084 0.20211004863330995
P 2.423006277218096 8.139300920444478 11.879412086814966 -0.39892131076152587 0.017151314968305943 2.1246061576279343
P 5.257663261130141 7.987201902856854 0.6091101545599559 0.7001527855790458 -0.06503296914093315 -0.5481514806766689
P 1.4822807461433658 7.639791204195382 1.693830720520874 -0.6983833523834488 -0.47314674503500453 0.6330940442573355
P 3.5709540831306357 6.036639988002927 6.576438022880459 0.13406734613177557 -0.5302907983461641 0.9709961350230116
