# total energy = -340888.09930566663 ev
CRYSTAL
PRIMVEC
9.08800082631167 0.00000000000000 0.00000000000000
0.00000000000000 9.08800082631167 0.00000000000000
0.00000000000000 0.00000000000000 13.30120783850793
PRIMCOORD
 96 1
Ni 6.553512019763444 1.8883866405515697 11.537388128577836 0.021717079962117435 -0.18086965119729495 -0.2661264035842707
Ni 4.830136213435509 0.3713457178110571 5.910192422315859 -0.6187447175141989 0.3772371409198729 1.6606014841035142
Ni 2.590743710119196 1.4774908511726415 4.7919066284134715 0.4711428272310983 -0.5369543264092688 0.19660711653720978
Ni 3.3361688164432137 4.02708409274722 4.815223712588588 0.5056411181182839 -0.5604248987273832 -0.33295194584925236
Ni 5.3177074672824 4.458600556403476 2.9780743128956084 -1.2881949318030652 -0.3654095521573255 -0.674818163468999
Ni 7.160735894824653 5.96227393846769 2.557104474404112 -0.1502742949089412 0.6922448435858788 -0.22019981625548526
Ni 5.109383220275276 4.543173493743628 11.968732829015122 0.2947019012291182 -1.1579474736380122 -1.4552575019139389
Ni 5.913798541114114 7.8840135427027285 12.447643217905517 -0.7166060460390626 1.0886768122666475 -0.7258756442664467
Ni 1.8317411302956952 6.5355723057822 0.364421569846361 0.7741211095363959 -0.08864700901544732 -0.047422455148021556
Ni 2.8377464893979405 2.031967968408551 0.07385545775652437 -0.2830802578297899 -0.8179005686151914 1.5164384442986336
Ni 0.5802943104871349 9.03537238985767 4.376456841731604 -0.9017229025484859 -0.5603680773475188 0.806142913858631
Ni 8.505587371348733 2.5214113504621984 1.447995743915231 0.6726674356745834 0.2145595872505724 0.2591150052634441
Ni 6.947404159264506 0.4285610457298618 4.563551518394156 -1.4418535698032071 0.508146401038641 0.6177985515508456
Ni 0.6356366013990833 7.284405412482593 2.574901506769599 0.35619677530980587 -1.0522278254109942 0.5096682369998061
Ni 7.636038347316591 3.7627504955544766 3.6683797843322674 0.9145552784264636 0.3634827674482579 0.277085987919568
Ni 7.585836229772318 3.9331596023742916 12.548652713860907 0.5493082199889313 -0.7370290897801048 -0.1629871144899193
Ni 8.252668303416598 8.924671449631967 6.726221299637287 -1.038735190241198 0.21845686542244958 0.28277866742897106
Ni 6.788245997687235 0.843901776399685 0.554339888420754 -0.19154487152295396 -0.9889486057363742 -0.40464432928823213
Ni 1.9486673512089123 6.3594468463310765 9.316538782509411 0.7838910444389661 1.6413212957176637 0.4526308844698398
Ni 9.33255911067868 5.07190430413614 1.4851992936239542 -0.6079103459028562 -1.5974644464337133 -0.6353548152670542
Ni 6.6381213091076114 1.8478087160701835 6.829718181467382 -0.637945715922682 0.07792448039162064 1.2735730681248325
Ni 3.1994307533419963 4.417450087858858 0.5446884313548565 -0.11547055696619468 0.644632126803922 -0.03235939016731201
Ni 6.175469354012782 5.52963056268698 4.932846074378685 -0.8968308645635072 0.1732527580819855 -0.22425804548525896
Ni 5.135583927168855 3.0642103864083916 9.506267161862828 0.31744099469784687 -0.4052313121399537 -1.1009854544306716
P 0.1898210769636537 5.456944730659627 12.565145618082367 -0.9321439380425044 2.005052945951934 1.3987040309989267
P 4.304795227417365 6.366680895129998 12.772604687393942 -1.0026114479354475 -0.23512172767264022 0.43083281475814195
P 2.2467810481322967 8.190779016581606 1.7071700829381908 3.2726525701021503 0.8856671346372037 -0.5126699999406075
P 6.334509371577007 7.855967971605403 5.800630208615916 -0.21435492743893406 -0.6616731414466088 1.421300942462836
P 4.838597142369926 1.0172108643397708 12.753410829274193 -0.2806641921891296 0.25365578192108573 -0.88047324914109
P 3.7351684125083384 6.452417096598619 8.15366725568302 1.5488338299102036 -0.7466553000159593 0.09575045282944801
P 4.607671036866673 1.122740731994386 3.994485433147056 0.32108321943612445 0.28518342021572174 -2.8738526154098376
P -0.08935231706798231 5.577324391954239 3.6406204852665582 1.2809457064398198 -1.3629476993349237 1.6281533908771377
Ni 1.50247376593173 1.1049100740251856 2.6286779351086142 0.34791988001299434 0.37660130710808687 -1.3887878003264793
Ni 1.7012010838789802 6.48572462027707 4.904980445701233 0.025261859890582297 -0.43589763087555894 -0.4215529321181127
Ni 6.092323232830207 5.614612460072298 9.333763270811668 -1.029264788856918 0.9059629087717623 0.14984106402626451
Ni 8.969311710561994 2.54504015307174 10.149406816890542 -1.0771384726097448 0.027778198554532806 0.7081558583891804
Ni 2.5325259756896865 5.132494006827607 6.822388708657922 -0.21787013968104413 0.8074058397314546 0.33595165190752463
Ni 0.8137023490644899 9.242587900742349 9.053986433513387 1.4118341406229813 -1.4322168180443917 0.3257765111467357
Ni 1.6010513128185377 1.0654590616682544 11.683674954333611 -1.2769589538779298 -0.10008353298716312 -1.3388122397393007
Ni 4.122153671246611 6.437640006966652 1.8145911636016696 -0.07982941072381736 0.7963570381164607 -0.6238820387407642
Ni 5.579814504229245 7.851896547155759 8.148187191077808 -0.43179543578172735 0.28542099014782457 -0.30237741549650504
Ni 5.638931950758117 2.889802559146962 4.78774341515369 -0.574724603179507 -0.1707266492260221 0.6070091742448256
Ni 0.7595260486813123 7.348266795535382 7.20559699417907 1.2653416813539757 0.13471860656252926 -0.7521242935503305
Ni 4.9673741165919285 4.4648894530980145 7.422912000579125 0.886791478049634 0.7558891599094014 -1.0154016577215803
Ni 8.08118681247835 7.322765864719084 8.854188549047905 -0.32708417421456576 1.2205908595008461 1.001354435599895
Ni 4.387668708569832 0.2812072886562573 10.209249485899507 0.7866395537183807 0.3224957835129349 1.1940167085567435
Ni 8.022714614020739 7.192434842325454 4.735629182198245 1.1638990632357566 -0.1409851562975314 -0.013170475943686994
Ni 7.052070666823773 6.162219048549432 7.045689981319096 0.30324824813723256 -0.3516731764078395 0.10070676839345882
Ni 2.218471925005865 5.134711479072503 2.8817069678528933 0.006276577037331125 -0.020160276997958828 -0.48020082366830846
Ni 2.863792700274459 5.308110538222525 11.511410986508945 -1.326593586185922 -0.5846770864065286 0.013068660258500073
Ni 1.0290252656445418 3.10159842253749 3.8298835589685867 -0.8437545535638178 1.1805148174155669 -0.20197866526176828
Ni 3.462473854392219 2.771531314085202 2.6388928482367398 0.49136301093271506 -0.5385514956930596 0.6374111835754506
Ni 1.2709842043662498 3.4012116396264798 8.098027787138252 -2.010797304634879 0.34724496543315686 0.45937283117936367
Ni 3.3781190290761542 2.7898709001106075 7.045463690094104 1.5191332175219772 -0.8249469339390116 -0.07700813922493834
Ni 4.221094738173566 7.1452862931184145 6.095850286019731 -0.7578907637204626 -1.0810984856987575 -0.9311733465991189
Ni 0.6381776064797094 7.358254508638416 11.5576062044107 0.8112588949289578 0.9763669124166218 -0.16140177228067043
P 9.292753666282605 5.648129007773831 8.397863660251831 -0.8371236785108614 -1.4445923088906087 -1.1964466581544748
P 8.685420735209354 1.6562427429138251 8.194408764182471 -1.5220717313250112 0.12893593844248116 -1.0774822291024089
P 1.8832973599895144 3.2756881697637907 10.503976993648923 1.222843660090765 0.2247162160686001 0.5508606520777158
P 3.997520825482282 5.8876887142305705 4.078323151206011 0.11474062077870562 1.446660247163231 -0.3197681001691267
P 6.811056880206446 3.898043566496111 10.420219249998802 0.9536609861786739 0.06678928971040757 1.3029800605320399
P 6.432959686449763 8.05874853800029 10.180558666730922 0.09156289711066165 -0.0305588466234635 0.49514870322739235
P 2.188672369714831 8.413525921181556 5.603679594864881 0.44636202074199255 0.9557273817893991 2.7741691460745708
P 6.809666416052885 4.091917891907402 1.4211407009493862 0.20731961785870748 -1.443896825485481 0.4451217205769883
Ni 4.959831075758883 2.9475295415222735 0.7829621856695764 1.235824645731465 -0.12891511250687476 -1.0165897644924105
Ni 1.3556571097174424 1.054435316450803 6.9462636151385455 0.5457881226508149 0.17960338289036165 -0.7442284357420215
Ni 6.592045144019004 1.0374316665729364 9.151883289125019 0.39191274065417664 -0.1459620406868325 -0.052872165408683135
Ni 2.7779928827988107 1.7958344383301952 9.23605271922061 -0.9746818114047149 -0.28872100105533505 0.23832609354255085
Ni 6.287315382364949 2.0451092178598578 2.5270431846841728 -0.19157315365772815 -0.6649368997995452 1.3336435510541675
Ni 4.246177620943695 6.984719491385575 10.478545131640255 0.7243460949957977 -0.2195084466154155 -0.3444419487667229
Ni 8.253777039539045 7.1953975306526505 13.683086067946613 0.9889871722837935 -0.3765018054157451 -0.6712435587438633
Ni 7.659621709921114 4.082766274896706 8.412362657053087 0.9351621560435378 -0.960919724623616 -0.8718988772085177
Ni 3.1272629373718535 8.416243233481653 12.587332154932627 0.7693085186391009 -0.008248613162037406 0.6401339818232523
Ni 0.45350033808413287 5.0519561419330845 10.574513513438907 -0.3173258092762213 -1.491062170317374 -1.777109738305604
Ni 8.577764275319879 2.085905254365332 5.601551185029822 0.9837385222903444 1.2897285948387724 0.28047984409246535
Ni 3.983761591962726 2.513313941567928 11.373397876866914 -0.9469864023719755 -0.15561576172651265 0.3004706853920954
Ni 0.9312383748450535 3.4883473932496667 12.438385271283078 0.5876487674403428 -1.342391986670759 1.3373924765736387
Ni 3.097436118077809 8.692054975942032 8.18702658096719 0.03196832537648043 -0.8784868148386807 -0.7728314441906948
Ni 5.559475557983031 7.676043727734746 3.499215733649956 0.12903749701735195 0.13038141263975608 0.189869283592744
Ni 3.2112542426477715 8.279005330325234 3.7136044037268308 0.21187124178513186 0.08149240024853707 -0.5091925829149682
Ni 3.27538826573067 4.359886689501613 9.153651814120336 0.0010587802818175314 0.6115476855451275 0.46385426398948504
Ni 7.529054399501388 6.302356024026023 11.212732015923134 -0.5420620799494793 0.007334585988200271 0.3250434896354531
Ni 0.6495048909306835 -0.056287443016330034 0.7218762781233086 -1.1140345743051459 1.0661675754205382 -1.8304490731586927
Ni 4.44152420251758 0.41677209082790123 1.4618031438401062 -0.631099639535126 -0.7811003690677063 1.4579057381700633
Ni 6.3914366098639945 5.6988218773723025 0.12304517198898819 -0.6196510313785523 1.8766150301917939 1.129646826921106
Ni 8.367776924129082 9.265035263221414 10.65450700707331 -1.4351514751926833 -0.3220982909642001 1.835822164545148
Ni 9.188150774730365 5.053037614052521 6.164272027976161 -0.6790818238413595 -1.0056255521714228 -0.1824979308293373
Ni 7.925336683266416 8.553717424664168 2.5505202176769526 -0.7873226958283345 1.837955151727751 -0.01959129186836626
P 8.349064730062526 1.5577288120340431 3.5368573250070563 0.9282057793303627 0.714317507115202 -1.669932788806769
P 1.6357311246485422 3.169767518066018 1.5635969342821128 -0.09934176972513213 0.28897065517229586 -0.17200680149002634
P 4.580034425814513 1.3664990949148206 8.153427332456523 1.5665556726699987 -1.1560759676469123 -0.5298012603042553
P 8.483630760923866 1.5783313103093628 12.755020314251942 1.088151535890797 -0.22521218186841216 -1.883575777780343
P 6.433523142511991 7.737751254549664 1.301005506881773 -1.6201703726716614 0.3404055739138202 0.8334642273814032
P 1.6711925045648621 3.1502737559131457 5.9209398923027985 -1.6816781022681555 0.45357370799908336 -0.1697797119317205
P 6.89674764167005 3.9422476033779614 6.235327472623455 0.5131014310510712 0.3516796041657427 0.25111167534299333
P 2.395397128545311 8.237873037782624 10.508579157357183 -0.5012758991710529 1.1878257492546833 -0.4754440257096134
