# total energy = -381165.6736318274 ev
CRYSTAL
PRIMVEC
9.25569319746370 0.00000000000000 0.00000000000000
0.00000000000000 9.25569319746370 0.00000000000000
0.00000000000000 0.00000000000000 13.54664257429621
PRIMCOORD
 96 1
Ni 3.7365140195408144 1.7694108360823722 13.463046002571883 0.5222283330530039 1.0310812732403662 -0.3994733266102539
Ni 2.812101678411312 4.597182402789376 12.47854385116873 -1.3954374444325128 0.8541495236448968 0.31670977295877717
Ni 5.168480799223693 2.030310311143783 7.052056906524048 -1.4746050532026154 0.9384907061961386 -2.282481147702269
Ni 8.75234067366064 0.10232353755849682 9.265957591147082 -0.32938531154391654 2.9018863816186022 0.5409683326646684
Ni 7.748181281405513 8.937463789905257 2.9818057356412853 -1.3581659616755641 -0.4952523186847922 1.3513193710673759
Ni 3.8550424244519976 0.10640252147575112 2.7258145545924 -0.6626334484773492 0.9458980544038033 2.474639741549822
Ni 6.260152769054584 5.680533504588474 4.71603290581792 -1.3951150280960876 2.529049169538638 -0.8137443803549729
Ni 0.9131750042247178 6.093170811144023 7.2552832327613075 1.073545613052164 -2.030730553223696 -1.6364721951554786
Ni 6.619255147138614 3.797823730155501 0.01267011818545357 0.5278721616023425 -1.0482840102718978 2.2170401444896397
Ni 1.211523938845018 5.671499948193556 3.05320970507185 0.9261566101108178 -0.773285758119294 -0.06598787685503474
Ni 9.126492808607512 5.056746072994754 5.097113852565239 0.32244127612591567 -1.0588224479093764 0.5803195807687811
Ni 3.234364905715544 2.3735947098436787 8.471081450646462 0.17629565867336733 1.9639440917267659 3.5358294041397946
Ni 0.11585258405690978 7.260850532117397 12.486780492393972 -0.25518841651552826 -0.9570522712484097 2.7013663031802317
Ni 5.233335440267942 0.939138148736381 4.747257911815761 2.6715355929720443 -2.5190429502555456 0.5136112808079542
Ni 2.3122757435359644 6.234042459023783 0.907350396602462 0.18049427013574723 0.0920776319635511 -1.0992797845934745
Ni 8.629165910849611 2.728198821116304 12.027941542952657 -0.20418981398047414 1.0923750870538411 0.10712372766339616
Ni 3.727100979731766 7.167071850361961 10.620405165016074 0.5450242479015969 0.38678570384025646 -2.602611773417137
Ni 2.8742351457054536 8.68171048016718 12.032289867537012 0.08058377239133864 2.654249552198087 0.3690468917995967
Ni 1.4069764085084142 8.873312581531103 6.6352674960763265 1.0744336720840721 -0.7341988194201614 0.7756372890706063
Ni 3.1369765036793527 0.26124193570343124 9.09646178701023 -0.4770350243458171 -1.7973692598855884 1.7673752846266595
Ni 3.28217981589602 3.5133962834179835 6.586743599809938 2.67881670001449 -1.3565911609892765 -0.5553163738562242
Ni 3.4055489482606274 4.766330192868392 8.656141628178492 1.3337877899415158 1.2515266298477543 -0.9164188139977636
Ni 1.0314636866864866 8.983631186726823 0.21472097140821117 0.31793850315955563 1.7963135649275643 -0.2032742441447402
Ni 5.502287368263348 3.272442826831006 8.931166216369292 0.11044173629303561 -0.8541505520861612 1.0163961604243656
P 6.956912084477741 8.747120462793085 5.3045672538081945 0.1674495211366471 0.6617878126476022 -1.5722694352253244
Ni 7.9578412398662435 9.078502040259513 0.4710129624804929 -0.6730181341457829 0.30380746307481227 1.2770864805947295
P 2.8303353936756444 1.2184009187645095 6.9182427245778175 -0.189389515742848 -1.4563221957330272 -2.6663784742511365
Ni 3.8550609358380528 6.475680836894801 3.808462223721401 -0.5304314376890865 -1.4911470167216965 -0.7634145217521691
P 9.384809945314228 2.041204261837244 0.4546026187425945 -1.0679022987234577 -1.2226449138163975 0.5129895880635552
P 8.889621112645699 5.317562246818916 9.11577934392809 -0.23832352243938953 -0.14364907628293969 -0.6019307312806536
P 1.7014370264878282 1.3449910323027143 10.197208038285357 -0.6827405036398693 0.5251131107999667 0.4124823372754122
Ni 6.048687950453476 5.306224022860132 9.094362595831575 1.2301808171821265 2.4921085877585467 -1.4383177887358065
Ni 5.866832093847594 1.0410618403560863 8.87284794574112 0.7975801118902844 -1.2916047288155628 0.9273897111869706
Ni 8.430307346152066 7.181538498564068 5.486336106899617 0.19027628922317552 1.0601450233755418 0.1603476199845432
Ni 9.000828264372066 5.1551803683430615 11.27320456640474 -0.2461584451027761 -0.1143277016110031 0.13500528456501265
Ni 7.096497191026668 2.175402555044119 4.087184461276719 0.9612498542695251 0.544026659875018 0.11192089194172337
Ni 1.6458288227781306 2.0634179251034346 12.280058290900195 0.6951424768486479 -0.5146980861142297 0.055976001144987464
Ni 1.959587560720048 1.8362739625136062 1.6254755538104833 0.5813680766379535 0.2866286373026805 0.24650657247081417
Ni 3.2893622336854214 8.439988801058913 4.9266156568735004 1.1814144464117007 0.4375835032184141 1.3779454582953365
Ni 5.031959327066895 9.15414881937392 10.700519667154893 1.0483850546261364 -1.4673257459323825 1.2995720632917556
Ni 5.738233494922404 7.747616684130829 3.526069178311345 0.6099415174002721 1.0783643745970461 1.6177211398002205
Ni 2.5692415490606546 7.446205040687704 8.194079846424971 1.06518387135103 -0.8010629282325623 0.34558891788697255
Ni 6.178101050365092 4.529190081808778 2.5652865914299694 0.18617049458491808 -0.3079502815985922 -0.5716827310293896
Ni 4.515686025681539 8.963500054391838 7.369265241257344 -1.6230057852379272 3.1516700821787915 0.8950015246642521
Ni 8.099916127839588 0.5072434472676501 11.879023921124022 0.1258274747204865 -1.465476865649102 -1.5499255203124853
Ni 1.8651332133735992 5.909685952565287 10.031762525417376 -1.6164548714932871 -0.061298184688849275 -2.684510407965157
Ni 4.163571695833332 1.979070794543103 10.720298157585528 -0.9805673236512145 1.3219661147162394 0.5599898680724936
Ni 9.103807104996916 3.6763797819406308 2.359473298991501 -1.4223700071572987 0.09953100291780277 0.3577700333341967
Ni 4.418732641217645 6.96315042157833 12.993329762684555 -0.2230473130066094 0.41260163646209586 -2.1703908200622166
Ni 3.69607589670332 6.211847307143647 6.121185942799901 -0.5536490134561304 -0.8101468928117015 1.292357033600555
Ni 6.844149976322741 7.906990462372722 8.76359374524357 -2.442784030491806 0.10073890718297489 -0.5656154417893872
Ni 5.48044393271826 7.58284683685386 6.244446783556085 3.36586662966299 -2.0626664827003443 -4.705236541677974
Ni 1.559186280346959 6.8508048196095706 5.1001210272299 -0.23424600993590622 1.3967070551735559 -0.4243520921298046
Ni 6.689431811673721 6.018967920141917 13.165995641683352 0.7893304702869826 0.34615584613403616 -1.4922574761770557
Ni 3.277875918638195 8.934677826303956 0.6835403346411677 -0.7633875251689756 -0.7194766827186384 -0.6574380203193387
Ni 0.33184713882571587 1.8201783123386455 7.484248715738964 0.9118116542430555 -2.4243178533668184 -0.1647838013790259
P 6.396285502104224 8.225552904995952 12.723046866031783 -0.36009328215073466 0.4340076129416977 -0.5790021475089383
Ni 5.943256351176318 1.660175146970879 12.430765038191062 0.5996931001993866 -0.07041968737414324 -0.20806163823105459
P 4.851130852387076 2.232963709982636 2.8262499307732702 0.8875106156038457 -0.19668784917647417 -0.6299575555108828
Ni 4.564852267044042 4.986726755241115 0.6887670244938419 -0.028441286059828437 -0.5271995610153501 0.2762020426527179
P 7.236258155743118 4.117200673765159 5.443406351499099 1.7171379857376623 -3.2938376888201986 -0.17498002518573735
P 7.208824281609373 1.8742593266987928 10.334137686504672 0.2871384870595635 0.6254097882392003 0.4129556773674049
P 4.85138075609882 6.929654068511519 8.018988975852947 -0.9609806597685385 -2.150294306422658 2.902418599972989
Ni 6.6829898493265265 4.028734759807555 11.38557330760607 -0.2078001570395518 -0.03137105811211371 -2.429545934534977
Ni 1.0619519395193333 8.169491172327904 10.659365153677065 0.2541108671806333 1.5995205576317937 -2.028629190609977
Ni 4.516556060826132 4.9432805321696565 10.719579915806587 -0.9918845484362465 -1.1701021067226751 0.6033242691940706
Ni 7.165304012993694 1.2203168472212185 6.599273957030675 0.3864946549623989 -0.09777262546579936 0.37282358523320946
Ni 8.945192293583286 0.2626673124296785 5.543841727679968 -0.04245379828883657 0.5786393648528808 -1.8848430745285412
Ni 0.21834735193641683 7.765683796920666 2.000039567097084 0.25839612481954854 -0.8767909151934964 -0.11224048006467122
Ni 2.123922390424722 4.6673035331663195 5.421230636574321 -1.7091945625208693 0.22475889638107743 -2.7135505039512497
Ni 8.019974707160385 7.530394824466566 10.773698878508148 -0.19725811985764738 0.12321986189431036 -0.37498202633710903
Ni -0.034819917169754064 1.2669562843871918 2.843900537376865 -0.49629412968574527 1.8999997276643212 -0.7326890676438542
Ni 9.34778717320391 2.621934209466664 5.173692679967524 -0.6300334030541407 0.12091023992452725 0.36301482667290386
Ni 7.527470025469852 5.733827785041277 7.057515914271714 0.36404378215805044 0.5207039259886774 1.1741037716829006
Ni 6.930505592270057 7.070275812679535 1.600400030260165 1.027874079156978 0.8128298389605032 0.36553656465349305
Ni 0.8753849351624134 4.084056037033397 0.3002250635969906 -0.005346094803261761 1.0041718504440318 -0.6300269752962375
Ni 3.3513661212771764 1.7779816078259105 4.5823010995396345 -4.312910110525146 1.5957811451940194 0.09158629414942937
Ni 1.455448472893848 3.75985687735637 7.8973534347924055 -1.4949085406466578 1.3834697305476755 -0.08509734399097603
Ni 8.979419846399274 7.325408990984763 8.494490023882513 0.4868108727856584 0.6943112391966042 0.32956091788983244
Ni 5.107143321529924 3.5277148405316487 4.592894240209699 -0.6353280757941767 -0.12563464198339008 -0.5578381118368135
Ni 4.694441225123182 7.32928712636332 1.546796609660241 -1.4519934864506863 -1.2468204826213365 1.4703568194492225
Ni 5.587421232731025 0.18542947968383036 1.3300541948948066 1.6171974060862664 0.641486896306721 -1.2248756029191292
Ni 7.983692390492273 3.332253115175225 7.381050515189361 -1.4119729801936909 1.0855511221534724 -0.8068869911135071
Ni 5.546566603707288 4.441862618093565 6.602701340158788 -1.2659037245050329 0.45959651715439553 2.991013415594262
Ni 7.148828879404602 2.0795135752783955 1.6803118327216808 -0.06683505534667844 -0.259052784566941 -0.2696045919408583
Ni 5.923115963148305 6.764560271978584 10.884848644937744 0.5273895655389691 0.6110311509200251 0.9339002586119787
Ni 9.011166873483873 3.2388816839130032 9.400055922869258 -0.6888260477123169 -1.4959943175116688 2.039075582754282
Ni 1.9257117242391069 3.749499756858509 10.40937536398726 0.2788803608158294 -2.298450783657648 -0.02406269737615856
P 2.3956232592493176 7.613214765677348 2.5711528496708493 -0.09469398654047563 0.483448898291961 0.6103906891225488
Ni 8.155292939223596 6.068060115960201 3.3518862912253264 -0.5243338094317808 0.29252032019676716 -1.3104349741481882
P 8.388786307230344 5.483637146812775 1.096922724485437 0.20583274890053582 -0.21383376482814137 0.1131655629821019
Ni 1.4774307438343492 9.317613613934002 3.8525433873345514 0.7092724884921269 -0.7654012131648947 0.07081872258477481
P 2.1108811189488623 6.695623870309172 11.86079020585969 -0.15871008438112022 -0.8461726760870073 3.662130218952274
P 4.651596622098516 3.6615614174034756 12.44654692037239 1.4990354183308376 -1.8791717351753767 0.4462262664950767
P 1.4647504443865655 3.0868476702419825 3.636135103087412 1.7240707083017537 0.28056829004121353 -0.22802368317527827
Ni 3.4956068414189754 4.066025947015673 2.5997223973390793 -0.5042370386819058 -0.6047969970848551 0.527257410836479
