# total energy = -340891.51911538193 ev
CRYSTAL
PRIMVEC
9.08170237167901 0.00000000000000 0.00000000000000

0.00000000000000 9.08170237167901 0.00000000000000

0.00000000000000 0.00000000000000 13.29198941350105

PRIMCOORD
 96 1
Ni 6.447727034456386 2.117380706241311 11.542710004530704 0.9678802151018492 -0.562264265928967 0.021087673908234652
Ni 4.922527802348119 0.30733751708011525 6.041036603397985 -1.167116798842106 -0.00379854781048378 -0.9349333278621834
Ni 2.8144558408693503 1.8131981725080324 4.693959521193309 0.3685974629670039 -0.9078948356871526 -0.12446890381006306
Ni 3.256289734959568 4.251344600713259 4.953725265770838 0.7675439705395104 0.6395729671134599 -0.5271224279205116
Ni 5.3416665226221465 4.659376399187687 2.733656844500699 -0.9100021118381425 -0.735719626940062 0.2069601776367597
Ni 7.3138489739722035 6.164832010697156 2.6568828585503494 -0.5409343941029393 0.22100971375129033 -0.7180479206919118
Ni 5.2928342098531775 4.681790040235448 11.414176673189953 0.05352188317754008 -0.23948874639208434 0.3871011781981462
Ni 5.618267926751676 7.881373626612268 12.596991191229687 0.4972253832507631 -0.2667403830191858 -0.024739154617892875
Ni 1.8955510481243627 6.20848775320793 0.4776929952559741 -0.10743765935938916 0.9638968049740689 -0.26780070596290007
Ni 2.351089230845485 1.5136382251982994 0.23525332214964548 1.0867531128813737 -0.5365799737889856 0.7795654204804188
Ni 0.471699979969338 9.322639766920124 4.793264302149896 0.5110525189418424 -0.3165688765055387 0.2892982137150437
Ni 8.577222731442314 2.3310095872650143 1.1895249878007508 0.8774141505997921 0.2296239377828626 0.4542874462366563
Ni 6.928930107615504 0.5472188746746308 4.73726470999888 -0.13166105068312808 0.5880115500964002 0.5123648099953627
Ni 0.9541508790117473 7.313213254817688 2.552035514736611 -1.0484961262827037 -0.3103869160645429 0.2522355045347914
Ni 7.538630185306543 3.7271487493045043 3.907565845355896 0.18550483597646117 0.51468677326032 -0.06933879560513864
Ni 7.4599009088709485 3.9860953243429282 12.687124361127061 1.6449321529973733 -0.25763019318780145 -0.72075169277632
Ni 7.975587205311409 -0.25210714510606214 7.014833928794912 0.012985356516074412 -0.15361621479798063 -0.8212702564183727
Ni 6.844225071127467 0.7121008109301143 0.4273549362610252 -0.45963431237086644 -0.2084521888012539 -0.691013542281939
Ni 1.9467446034672449 6.689781643389122 9.188805446000938 0.06061658524079238 -0.24637467487864018 0.6203061484640479
Ni 9.154900727150205 4.908832595419421 1.4120348654130301 0.2564665118970035 -0.8956579273013284 0.5041257099150221
Ni 6.73483596803983 1.791229534868431 7.192334890267521 -0.9956941519903239 0.8234312686254335 0.010445106592723947
Ni 2.9123384272602646 3.936336677948809 0.10313362660720905 1.7550782124268614 0.7233479927485865 0.019404629778856902
Ni 6.192858143709065 5.710937616075566 4.949936379609928 -0.6878657406815767 -0.7627900007942927 -1.597171597783643
Ni 5.144947771108545 2.6043960688131387 9.60165417932615 0.5726777479528072 0.7489793201634456 -1.781834911695415
P 0.17880418573936485 5.442273619675269 12.444372277464801 -0.45394780350905045 0.7419242130888771 0.20978607712132905
P 3.9716100093221907 5.94251194066101 12.758408458093063 0.1374185219921956 -0.3313486059178745 0.803639687820803
P 2.1075543044529486 8.421244496030925 1.1450437185593274 1.833974055592816 0.19606461377017845 0.7936753775192396
P 6.232744979803786 7.577763240118053 5.927536213721075 0.2617385589292202 1.41534678176193 -0.15027146669546376
P 4.5846703168299525 0.9973162096033241 12.798231722272332 0.8149108898592482 -0.2653435026716591 1.28384925323986
P 4.067367477396583 6.270951700990145 8.183877861777628 -1.34659651167041 0.6616003792271445 0.11090324931048642
P 4.839457472257407 1.0931281678909606 3.808208390526507 -0.6535970493066937 -0.37387593775712386 -0.3919556780769701
P -0.05714207028870215 5.623662457862847 3.758868410604147 1.1956316184523474 -0.05580322301254905 -0.05120480500858923
Ni 1.2395887793890374 1.1535578143787264 2.5893858314048166 0.9024284132559426 -0.08092367222926064 -0.2899610441100232
Ni 1.8782776505259662 6.470694659338796 4.669887561322485 -1.066293302365125 -0.20153129331170452 0.3905289729327726
Ni 5.8625112259163865 5.473650900801693 9.10999715875614 0.5940035060137769 1.2872035144240734 1.042214149928734
Ni 8.693895359700253 2.4410162461027527 10.175309889126401 0.02654149793395429 0.2843367559447103 -0.16469304143743252
Ni 2.3182861224725047 5.401433204848774 6.932251286112734 0.6641696826162174 -0.1808609094465466 1.1493998411783173
Ni 0.44595062970081323 8.856939159428967 9.510750881081592 0.9318747435415177 1.2138774520364128 -0.5633778107081201
Ni 1.3375531010998176 1.1390815810601966 11.433675995999375 0.4831555354212583 -0.09364291956814196 -0.7700909053310802
Ni 3.9819722315407873 6.920257082007477 1.5672447888176766 0.43645993113693216 -0.9973846523188695 -0.11413769708738405
Ni 5.879766460110368 8.289142055722682 8.0440459847207 -1.281276093196045 -1.0545125076801127 0.19994955064688147
Ni 5.311043022778931 2.9850465351323794 4.913968298017682 -0.022335687382722822 -0.49342143612364053 0.05206766722951678
Ni 0.6820921423263384 7.454261171800179 7.031675037368238 1.275609638938887 1.109898183539269 -1.1900322699876988
Ni 5.242149229833907 4.8680920793172096 6.954741213459039 -1.2665112761820447 -0.736739583564144 -0.629866024238341
Ni 8.228067608378193 7.102554090415792 9.113891392662655 -1.5011668628515438 -0.20902554480622063 0.4452785578698267
Ni 4.700561918698059 0.37797862952983563 10.693884166868802 -0.08799086348868718 -1.0164077303885914 -0.6178939394781295
Ni 8.100061015765469 7.490497163607541 4.640791603790548 0.10449477468098133 -1.0549801913451509 0.4938130151351044
Ni 7.349285775985318 6.102295409297283 7.0150464406265645 0.45975643977102754 0.7630612521778084 0.4046597559071999
Ni 2.622441411099161 5.060324469940375 2.643723472051886 -1.1044798407371752 -1.040302791838634 -1.1077747094383632
Ni 2.1454976562752943 5.397555318006233 11.501651628851235 1.1136951886878563 -1.3959161838411442 -0.31910732665667624
Ni 0.8888025826084757 3.4464696608838703 3.9179071796594154 0.5530286062633121 0.1805842587463922 -0.30886945097875196
Ni 3.901172327001915 2.4943803282731936 2.219894960757978 -0.46280396834809967 0.10745951373626009 0.42963416646435043
Ni 1.1880501193622754 3.406809867344334 8.213199953694525 -0.7258576465443176 0.40626412427984226 0.8600759164316608
Ni 3.6789430739878433 3.088432633060953 7.296039755943573 -0.23349036271680434 0.3136635299332856 -0.2613888888992853
Ni 3.8885305975292717 7.020128561181802 5.900273851864805 0.9823611823268437 -0.14086482866958322 0.00654551442800163
Ni 1.066800313191827 7.5177513519318255 11.650082969728308 -0.425852330824415 0.044290594387259206 -0.26359438119103634
P 0.2955857944237928 5.656329340702717 7.921201431642641 0.26949377739460684 -1.0525247878261228 1.9450768225086175
P 8.755787160243404 1.3539819003929299 8.16376734040965 0.07701688097568672 1.221008406654239 0.123702972178316
P 1.938525662969585 3.1261307789237 10.311951364197881 -0.8379230344837052 0.9352171776511894 1.8144393279939977
P 3.9824535617577776 6.108716172757886 3.8174862575015442 0.9563333908045142 0.6181687904060709 0.2579842340931105
P 6.927504280368948 3.8314157723471918 10.070289992970725 -0.11342910105613369 -0.0737847471916342 1.3452194288172252
P 6.225488699740107 7.796968286297074 10.240866156510222 0.2804533617299041 -0.25337887411061527 0.25442248488378116
P 2.304000604900329 8.611088398973555 5.675626141552913 0.20527327685264002 0.22458457558674225 0.9270330991785002
P 7.162920164988106 3.9287352932012496 1.6937983090772228 -1.4991254069414828 0.533969532749332 -0.8342363296607374
Ni 5.3915523128471685 3.0445770931016174 0.2770264277928342 -0.17737963576616547 -0.30241186827886624 0.9652936853215957
Ni 1.7201379699892256 1.2830992146644937 7.056438114777044 -0.7697162956004808 -0.864469417513666 -0.301907417838622
Ni 6.896372205202122 0.7366867951458764 9.477719821983206 0.626388607212702 0.29533799215122036 0.18993638938525353
Ni 2.898479749691835 1.590914429280716 9.220772129600622 -0.0030439290326463708 -1.338332986110037 -0.069327482751229
Ni 6.52501232024101 1.87736948030523 2.5581765617692276 -1.3364668794355758 0.6583088529600662 -0.33932699613766076
Ni 4.018062916112832 6.795846843468866 10.748766709648311 0.7999061889202997 0.25328322907301537 -1.6957924301823504
Ni 8.365501007882155 7.157888901965229 0.3378129851773494 -0.983249755579384 -1.5216104754178763 0.33356129729847717
Ni 7.7944798998922575 4.032520986026947 8.108312650391076 0.4769095545115464 -0.7765333185223143 0.12138178024430708
Ni 3.2922260305940867 8.224652888348226 12.461957177448909 -1.2239708317166726 0.8228514848625634 1.3466402204241517
Ni 0.2219658836500587 5.1769335262828635 10.175163673720863 -0.8534103314860271 -1.4065955179318612 -0.6734572785657305
Ni 8.596185325651279 2.283730245573504 5.8566635178650674 0.9972774373170437 0.5700783626567473 -0.08401285267754563
Ni 4.044190973363403 2.5854698014130033 11.575873656481317 -2.5924217202580127 0.9444363822566121 0.04623383415655908
Ni 0.7949114043376958 3.2685772780461244 12.445914350499608 0.1746745781301766 0.8499226300477427 -0.41756437978400984
Ni 3.004635766793653 8.335440573575797 7.863554418711209 1.0683658686234374 0.5685740101970789 0.040626515272110676
Ni 5.4697276054481145 7.847408060356746 3.755638049128989 0.1352737077350509 0.12502734741669436 -0.35227018656189013
Ni 2.988924421974922 8.289532568917599 3.613267836305107 0.4404734231716995 1.02813761723101 -0.6117878265803915
Ni 3.4052478145646683 4.500564672687602 9.5374937695716 0.5455654651170475 0.16630049513386844 -0.4702195440858805
Ni 7.281690666455946 6.259581409826532 11.465031481040501 0.058235743713441646 -0.9537041807117833 -0.29964484705669037
Ni 0.3511930570394513 0.0058631469450709005 0.24475641533942583 -0.23599256031336777 1.2080274210135389 0.12471907214765615
Ni 4.620497632037983 0.03951721081488075 1.671361055603722 0.13010219083644045 1.7896968309419954 -0.3946054569949914
Ni 6.094803004976212 5.462026321976273 0.44478363096716766 -1.0970866335968976 1.8854035750177014 0.26036918938551934
Ni 8.009852467739774 8.54246705709475 11.465948732963444 -0.6643689431112171 1.2439565308099803 0.1865394478885626
Ni 9.288220115554234 5.025114710482445 5.8581520088568535 -0.6195047356086749 -1.360962807694411 -0.6901601931427082
Ni 8.037678803303121 -0.1328961810811656 2.5354732144210512 0.15498095635599116 -1.5128612684703364 -0.8538849571296003
P 8.397613906887377 1.6686719635801228 3.531827671760616 1.2512224683437743 1.0212622302674155 1.2121532702564544
P 1.7599430707640797 3.181065995576014 1.6766511471395085 -0.6399835722883173 -0.5756622845024278 0.8433480621540185
P 4.716908982671306 1.32822619293286 7.88702789440657 -0.09061030338940525 -1.0841953794565264 1.1474283192742432
P 8.46245726064792 1.5905784062990438 12.407872916293424 -0.9411620823807146 -0.01559888287952152 -0.9492515442570685
P 6.445865285503877 7.799674633554867 1.3867268858717834 -0.32928015342461997 -0.5531669316133891 0.45315461818379377
P 1.7772982036823428 3.2692402423072613 6.1589497921774505 -0.1842542513988117 -0.10015603809631138 -1.7173927820609458
P 6.980614074877584 3.874344978681377 6.052732927670842 0.13904500185202504 -0.02251720726590961 0.14904376493594979
P 2.493181543581822 8.727252451907882 10.331956537820252 0.6969275937735288 -1.246375424664118 -0.5939551692743448
