# total energy = -340872.268170297 ev
CRYSTAL
PRIMVEC
9.16303562085317 0.00000000000000 0.00000000000000
0.00000000000000 9.16303562085317 0.00000000000000
0.00000000000000 0.00000000000000 13.41102884495628
PRIMCOORD
 96 1
Ni 6.382961495782046 8.580321594517482 3.4132546169011175 0.8190753056495829 -0.6566839157621336 0.6866920320884496
Ni 0.48936841427124156 5.202964086219557 12.31686368757882 -0.9797836514076544 0.22148639627739275 1.3514486975563886
Ni 8.81509689486234 7.7758803655784545 12.612160838629235 -0.37237441351093287 -0.49399967722461374 -0.002152013345996294
Ni 0.24235862867853217 0.6609581694366429 11.182947184480865 1.0290837831943633 -3.2068055897003545 -0.14935692530099437
Ni 4.052957292457112 5.39494800991113 0.6310188666364404 0.32378570596895206 0.506146854110109 -0.4949586987037734
Ni 1.3371984497902771 2.782245829603932 0.625350612761125 -0.2010427837110602 -1.2527571598207456 0.7296543945825885
Ni 7.407911178502941 6.023871290286198 11.428718127648835 -0.24011172468806385 0.4548356054306425 0.22525871883563142
Ni 2.65624492588673 2.4261610998130676 2.8726428418598897 0.32308250925434034 -0.5453775174759575 -0.31392835355889803
Ni 1.187831805073958 6.619807642191924 2.9353656537372066 1.0941918285476058 1.0015724651479718 0.920124287873809
Ni 4.484197240943961 4.6426994322391515 5.198034373020528 -0.5484846956463715 0.1179015350051905 0.9973908229664564
Ni 0.9428213938679182 1.0556825044114984 6.367542855633335 -1.0138183723948604 -0.77390565109148 0.7396927526551971
Ni 1.4935931428777034 8.543696940880826 4.846664941393643 0.792506554022119 -2.837584634216739 0.5285097951863413
Ni 0.024968355940586336 4.79197444659861 4.210795163665072 -0.7489124714812522 0.5760626052646401 -0.03212413422805435
Ni 6.004280719989683 2.668514230670188 8.713547551873038 0.45239305742742086 1.278187169858076 0.6297652369944186
Ni 4.067214975984417 7.076502503814282 4.205631793056051 -0.7775933843557125 -0.6768989572574278 0.31439295190014244
Ni 1.2897522510085397 4.900913777868614 6.5326598423901965 0.5490747638218867 -1.542384217630118 -0.2671756707843915
Ni 6.706160090496114 4.371418597721554 1.2247863279953073 1.0328388793614212 1.1467102101612963 -0.5156283112379829
Ni 8.80685932578069 2.2898609439848827 8.612254773882944 -0.5089318730544139 1.8194313818919503 -0.7866215559962517
Ni 2.0093987477099855 6.275524902364536 8.57336226891402 0.3392416355127061 1.2347954331360025 0.2033061258239402
Ni 6.129832634958274 1.5338280325746148 0.4536454033460811 0.8829358517489697 -0.42732557293583184 0.4788705348926591
Ni 3.8345196847402647 0.8891030971591629 13.216153331510029 0.27453622491452073 1.2169105824357815 1.3948448051538365
Ni 8.179099750937734 4.263716276269151 10.180017192816825 -0.010207536660621129 -1.2308202505383383 -0.43014144511807206
Ni 0.3393108766642035 2.7835561437070195 11.728655439970607 1.5910572573557888 1.7910525736389413 0.595795050696561
Ni 8.919775414538385 8.87959550305559 3.1240325585104727 0.3519971354061615 0.2565819544289452 -1.344077344792982
P 0.6438159622754079 7.803488592100157 1.0150985030549529 -1.391106935377959 1.2515466844524121 2.0870384837868055
P 1.7508178806530856 8.384049370124895 7.333432191840578 -0.12688805477451695 -1.174922410929454 -0.28364950006969863
P 1.943525684163846 1.4583887597723662 12.46915883850036 -0.8629414109049139 -0.4000582525794465 -1.0301957853116193
P 9.03242577526119 4.357289196693852 0.9544337089926952 -0.5805085568511358 -0.2379337432001386 -0.08461577636886718
P 0.5683684427410419 4.385483857499454 8.581167342711293 0.7160864260901668 -0.8778568945641655 -0.6480740626059355
P 4.17151781119734 7.7463753906697645 2.2482515989350813 -1.8062984440544183 -1.6612247195098102 0.03532978564954561
P 6.4102215269476845 5.022204881243248 3.926320474063307 -1.297007902109005 1.9337104896532054 0.03044803207721208
P 1.108085905499323 1.220827896578986 4.12972520543382 0.3468603284002284 1.9406429551069804 -0.5610381068313499
Ni 2.7595948053883164 8.455182016154758 11.984497475660982 -0.6568091284860882 -0.2671774705566044 -1.3115927419017153
Ni 7.485522090762755 1.409925464029491 4.40573783157963 2.5530442469016545 -1.3822438285603742 -1.122936504780466
Ni 0.13852952241057154 2.697515238616152 2.7219292308977394 1.4865023188608335 -1.0030431361562273 -0.19075477152149084
Ni 1.8489081776709493 2.5567435213732335 9.951573550130943 1.3368409749455428 -1.13539324248658 1.1747966839848671
Ni 4.096903211606825 4.876283537944838 2.9617588617269552 0.9453943752945073 0.473421595962946 0.37683142084102195
Ni 7.213984691245952 0.6050773963060084 8.919125755308254 1.4758270985351742 -1.4639663425418465 1.5630633432460241
Ni 5.595957523753341 0.7549837438242286 5.375569105738959 -1.3577435294261648 0.3587246839379822 1.5511635064846447
Ni 3.160303518969652 8.917814524901598 9.089029511907444 0.4588544967820485 -1.250290186337492 0.7122251433625476
Ni 3.3727301752765304 0.5296216300395251 6.6126971264996435 -0.6690586352774025 -1.3667627022056397 -0.6689167103828996
Ni 6.880285257635812 6.126268214076448 6.15450869006048 -1.587938509221149 -0.6656280123292988 -3.709928569382475
Ni 8.324801181379682 6.199490032242702 1.9523240310294747 0.06074411195759216 0.2098261863306451 -0.1504514439167538
Ni 5.857067388659558 5.228455651497811 9.406536028853413 0.9248484328223554 1.3752920798328896 -2.4318185326192374
Ni 8.779553479436624 0.9674882859344375 0.30304266511573025 0.6212595135162527 -0.45940908373393785 0.25045013049959447
Ni 4.70749125757435 0.4782078368057808 2.251068316104936 0.8996356810021539 2.320035194696643 -2.362107184166029
Ni 2.5091965291989506 2.6863180090079473 5.315313899371863 -0.6259836584647993 0.6707301094425545 -0.012124551177675892
Ni 5.221656679018851 3.5575944202401364 13.096634359237052 -0.872817532368045 -0.4672964569018146 -1.5647659277594277
Ni 1.0276802673553012 0.570391641020495 9.007061576178971 0.5504017101634263 -0.967703837424985 -0.3396630393208408
Ni 3.4483068936140677 4.527593377952519 7.799854532147118 1.035245946141017 0.5921394562218447 0.5371692706335524
Ni 9.007740557123299 2.998667569469875 5.910186422834453 -0.2617205612070912 0.42380701825961203 -0.10675991656607421
Ni 3.1666718287713724 6.5668178068202 6.566294597482535 0.49125631015152177 1.377994309255401 -0.98292193992632
Ni 2.098564247969755 4.578943029936461 1.9670224565732723 -2.2900738724478624 0.704705952167367 -0.053732456526449396
Ni 8.908843912965073 6.373129558491046 8.996306004890828 -1.8178324128359467 -0.9027246043401227 0.39049400592977906
Ni 4.32025220645133 2.5988201812430165 6.964199422143976 0.42910451921312553 -0.7695895402146294 -0.39923652800909953
Ni 5.205868768531997 0.5077522127679198 8.085844787851336 -0.7366390534305378 -0.7607932820792381 -1.256174927253043
P 8.20258461140077 7.1569356310653625 4.139086162690565 0.2331628041740565 -1.125895844519106 1.0967891569611368
P 8.042964529751897 7.904795114643782 10.477245911789833 -0.23594190958109043 0.42901093105805466 -0.7826558864802844
P 3.6587634972484717 3.2375112576592846 1.0753876126540873 -1.7563509084916977 0.3045150306647981 -0.698961593484422
P 7.558670604643521 1.2003393487852503 2.097042267742322 -0.9576618798079507 0.37052141946259415 0.5535286858281822
P 4.245683422039245 6.445856572730259 8.73039196037448 -0.45466539840136533 0.9921653129014589 -0.04631173858234605
P 5.6469223282384755 4.315331656287986 6.989654335279485 -0.2403289829051925 1.7276658818521795 2.769110757715057
P 4.528014877594071 2.5277150243202122 4.45848301389854 0.3332177979161294 -0.45089616116692016 -0.27749710731505756
P 6.162333922536263 6.186331912997709 13.211244693293077 1.7212229544403133 -0.7029558022454797 2.308305307854224
Ni 2.599800626061411 3.8309644268941243 12.449310786901073 1.4255790010128997 0.24889666996954551 -0.27377569259941237
Ni 7.073808571322619 8.248546398401386 1.0481312467027248 1.1238703294486452 1.265134707549492 -0.5602968577899511
Ni 7.103066144267789 0.24999968413702786 12.116851112019239 -0.7739005088851575 -0.10730961842195713 -1.3433011287485896
Ni 6.812900293201493 7.1917093514934605 8.020237452340089 -1.0809539897010931 0.3359673356368085 1.1104525133808425
Ni 4.8320810537959185 7.83154580737047 0.24031069020272716 0.10138785362088344 0.5496774304028921 -0.5237990199742335
Ni 7.2684314492917395 3.335812304497925 3.2078917448045217 0.4098767813317651 -0.20508198677744036 0.6845667582153306
Ni 5.999937441074553 6.50335462165946 2.051203265419897 -1.3527424766671479 -1.1234437834341877 1.3723126854895913
Ni 1.704819441509725 4.725359177161911 10.44581028526212 -0.2593435763344824 1.2901245447256102 -1.316374736671391
Ni 0.11197687759988818 6.781599363298362 6.280425293849371 -0.03582832255251894 0.16504425412926416 -1.3927498702980208
Ni 6.602113820282397 3.0209337461866808 5.712937418837746 -0.15874350872221693 0.3363578862070078 -0.5325932212270956
Ni 1.9694295860479658 2.6289115904356053 7.72388105436438 -0.042136267048417754 0.5967689845740561 -0.6258165367593157
Ni 5.735428089928858 7.985603926357984 9.945833824577276 0.2532546898279251 -0.9136579634231748 -0.9386372590763319
Ni 1.0296961352062055 7.270529784463817 10.682956979242494 0.7624501009563708 0.5388266037313172 0.16222195418912064
Ni 2.489807545687526 7.163294777831396 0.4968656100694682 0.6048314498672164 -1.1023504530989983 0.6233199955897072
Ni 7.376023814315911 8.401963104890886 5.8909550435368265 -0.009885634544828137 0.8308810400352593 -0.45313147825534217
Ni 5.194671538923792 1.6893614003075639 11.464377913627764 0.49387395028002684 0.5571272018127179 -1.3847668520925442
Ni 4.724543666985864 6.1596399900445995 11.712065763861231 -0.6185148608915799 -0.12756091247182547 -1.7474546344433326
Ni 2.212708183509365 9.10003065255197 2.181410918820508 -0.57707407724829 -0.5078293840188545 -0.19553033853326326
Ni 3.5876675033613536 0.5125252380567199 4.105799602954293 -1.0573072968164305 -0.38780051825801604 1.7308748757077805
Ni 5.2610210803256 2.7872580101241344 2.3512615298127204 -0.4857119832945247 -0.2973048860696041 0.9088489720703058
Ni 8.765781436800673 8.286472203105443 7.8549601124587225 0.543224989909329 1.9453714709309013 -0.05318943953878581
Ni 7.785739791976513 4.627635401571484 7.454507047573024 0.874057061202101 -1.1625186379484624 1.3742435839637173
Ni 7.51240643746527 3.3993579569798382 12.472176226151737 -0.4899527608487498 -0.06412536972499924 0.6068047715435033
Ni 4.0343288409076195 3.9159882350238546 10.269951471770643 -0.515966411303692 -0.9403053908073742 0.1481161109153578
P 7.565387109801307 1.4452398035630591 6.9216737735255816 0.374278058291549 -0.7806242007622363 -0.8185436015158291
P 2.1318993717951624 5.042281092431117 4.418880373663957 1.2927208446978768 0.26619788025215446 -0.4460313768754512
P 3.9288531371268975 1.8451788221467764 9.329180765289237 -0.20840333784118947 0.3937145697496058 -0.22203584102295953
P 5.024733879092564 7.856744155506773 5.922913879402208 0.6824389132390505 0.656184864638528 1.126397723856189
P 2.5457478785501193 6.1372730199352485 11.890137450470858 -0.2916191485387365 -0.018531483145284213 0.3906472436781917
P 4.917343100853483 8.629490444008175 11.665167514613515 -0.7205768577613525 1.6196944614765074 0.9409111427121731
P 7.818735883481542 1.9193169438816233 10.605709839499413 -1.2581186812429752 1.2744724400106502 0.24555217897734488
P 5.981748815237985 4.1842361047294085 11.115101319351544 0.5072033203990813 -1.0718186030587282 1.5833172083990539
