# total energy = -340893.7152442671 ev
CRYSTAL
PRIMVEC
9.04518215477247 0.00000000000000 0.00000000000000

0.00000000000000 9.04518215477247 0.00000000000000

0.00000000000000 0.00000000000000 13.23853838453696

PRIMCOORD
 96 1
Ni 6.497841736757225 2.100644045879541 11.324615929514977 0.28329263095091206 0.09723269380192931 0.8730633298302642
Ni 4.7493809011497135 0.24045259837339455 6.256334470150891 -0.09998146019166006 0.4791137612517168 -1.579974002958434
Ni 2.736375624643649 1.5546406735541667 4.735756143351462 0.5730101915915614 -0.955335031446987 0.3087064430383264
Ni 3.4128557487713147 4.34864315336124 4.875581995373015 -0.3394720063559573 -0.34226782393353955 0.07434061969510423
Ni 5.0265162355324104 4.674640561451804 2.64098242065526 -0.018060457046136638 -0.3930607382156908 -0.7567782473825742
Ni 7.183964025004215 6.108835590153332 2.5193066310369296 0.9760763777593965 -2.095279126529043 1.1282239784316506
Ni 5.137473484361438 4.336079395423397 11.552742658239776 0.5806497104146903 0.8641583140311504 -0.0898752249955936
Ni 5.5566724488173955 7.935256850286596 12.528528762597112 0.19054265551068475 -0.16808201251432342 -0.12498415288358473
Ni 1.5866606181905696 6.521983327783937 0.579445219588004 -0.24142093041779067 -1.0222724166994845 -1.4917764227755792
Ni 2.6927235758257733 1.5387573337853748 0.23191304195214374 -0.20116619666280194 -0.5627949416214566 0.8587723671288888
Ni 0.47313628984051614 -0.17114569956336348 4.756739156788616 0.6584196675063178 1.183602198091639 -0.42661157758794277
Ni 8.511706305562853 2.2519970779701994 1.3690633859491703 0.3908498466073011 0.4109031657137504 -0.17260972518134787
Ni 6.883727295536384 0.5577431141738454 4.8052982168961105 0.10714789603311224 0.48960026260533746 -0.18168880466448065
Ni 0.5624312320566272 7.481261070289325 2.542143906804723 1.2448487036069464 -0.656522707593921 0.1206302467902632
Ni 7.58166259160686 3.612247742998678 3.9553839621336087 0.5251732746139408 0.4921456547350105 -0.9040595211014624
Ni 7.539114055005267 3.9638158808878616 12.781119995349618 0.0722791091803852 0.12051069049326342 -1.0374236705186264
Ni 7.941000540920526 8.827093715049322 6.991576619795618 0.13830375281062635 0.30644490069765934 0.4748282465024854
Ni 6.703592494001366 0.7130506998789203 0.6108844635335433 0.4371811255736729 -0.30282967254257526 -1.5468867334861618
Ni 1.865523582354497 6.547192250298529 9.124159203672656 -0.2665120690584636 0.4980782181693616 -0.10472977350992285
Ni 9.267150869429447 4.602595686019898 1.5290907476743794 -0.2604092985948354 -0.08794329808020337 -0.015609681512798922
Ni 6.4601866436721 1.846845281316595 6.918962802409578 0.30364831178912866 1.0811403946802862 0.78127546119299
Ni 3.4767328247663087 4.6508879132554215 0.5144971940322901 -0.2627883403499732 -0.832567940819379 -0.5662996123406053
Ni 5.7570955938042365 5.320050485063639 4.789478193402023 1.137540113626254 0.7155758050023354 0.79396025574951
Ni 5.498267707993313 3.2426073312723385 9.362109000158792 -0.3090422291111904 -1.1267440514520144 -0.9555666878418188
P 0.20921053939765005 5.515046520790072 12.25263804527147 -0.43585623611466223 -0.007217343684045634 2.287001918390758
P 4.056999346889054 6.232103331821383 12.25277010493014 0.2168758940885749 -0.5684392843914274 0.7007338548934964
P 2.1893772822871997 8.492530519509415 1.0739091443037108 0.14810916893682236 1.1400893624106687 0.8136831880997342
P 6.55374096213942 7.638764826208446 5.928667321444543 -2.514992691445572 0.708858797993476 -1.0728904959666685
P 4.809223825927804 0.982234414676911 12.589995297562277 0.24782657683381837 0.5593818021748496 0.568138208211241
P 3.926025110071225 6.27510412752801 8.129151182833166 0.025868383126329643 -0.3499253404787973 -0.7530681455208386
P 4.840375433082542 0.8660119653470792 3.731162943039882 -0.2662945537310188 -0.011672294131605703 0.32963985075688385
P 0.27195877666647894 5.3361056832923435 3.5772383656780007 0.14378225942669431 0.36231677216461466 -0.15442302696999213
Ni 1.5722878238325912 1.06403904159545 2.559697891707511 -0.1845131614871532 0.0025091395750989043 -0.6360729243800013
Ni 1.7667501938150842 6.699051812586824 4.509985684563889 0.7985311629496441 -0.24333228850789057 1.181370737657959
Ni 5.970697569111767 5.723103799469885 9.188551855047386 0.07776250089245963 0.15678201412047194 0.2478502309829022
Ni 8.908057140032499 2.1759090061392894 10.217596896131731 -0.6798909500062161 1.762277815499094 -0.8423083080355944
Ni 2.222066570399053 5.378111508967896 6.8667241622235275 0.43174504215976606 -0.3549107095085307 0.2521750836105012
Ni 0.5256616622991579 0.09572425765327354 8.993958329924434 0.08006775198686855 -0.034684952976695105 0.17589688057305192
Ni 1.2733445554051572 0.899324466505669 11.541251658899073 1.4863405964719887 0.36880160855801003 -0.2204116751559752
Ni 3.7178773795704054 6.976467547614643 1.3868163648581726 1.9770438623335176 -0.6223067238338443 -0.5002729118278352
Ni 5.635817792198336 8.063427080653213 8.076885407100814 0.2517338823080245 -0.6182124991598127 0.20002565530045552
Ni 5.3180153190909865 2.706698382171322 4.859205693179735 0.13962427139426278 0.22920407663662462 0.0752163374318382
Ni 0.8413909796690315 7.623975953473835 6.815424411939528 0.7367966620543246 -0.5705146788632175 0.32887031958071106
Ni 5.054176402396287 4.5238664210155894 7.109055444919234 0.14026807562584875 0.1369906904261576 0.08548738034054308
Ni 8.276893378229232 7.185203214952008 9.084549446735574 -0.5876603374045686 0.17380888769577163 0.5369265584951269
Ni 4.7744722362969965 0.44859580628316453 10.431584196196749 0.1189312618212855 -0.4533099128147354 -0.15587107227042835
Ni 8.21223841657358 6.9269904015239305 4.714707100084972 -0.3915291320625128 -0.19746560788276313 -0.20811460295617706
Ni 7.3570164489544005 6.006245134767434 6.970791695846467 -1.438306475881897 0.15568492440155124 -0.7216986300706215
Ni 2.4921737982895236 5.270419570877214 2.5851953555311136 -1.3553922555851687 -0.9778218996955933 0.5858716209352619
Ni 2.2842341069770185 5.124982087880401 11.566775353750769 0.4120833020647806 0.41776646849248694 -0.3595356098750518
Ni 1.0708591088993618 3.0618031862618706 3.9495064028045874 0.11871683181763426 1.3841202196474809 -1.0879021388841523
Ni 3.7988227141893796 2.6419710590588648 2.873384806959051 -0.0949061025512817 -0.013637645388092642 -0.5495380766115504
Ni 1.2680802594225622 3.413217556055342 8.36281084944895 -0.6509711816480724 0.23729045318918487 -0.7793867288107094
Ni 3.7928348036387303 2.4653819689073124 6.759041269314946 0.30742551944337376 0.5151914808108805 0.9111763346519017
Ni 4.12502816146826 6.928130094468616 5.9528812739280585 -0.02568120681618803 0.15976243690503453 0.12847391120439808
Ni 0.8064494412141093 7.453356683508732 11.574321749177367 -0.18856110630428172 0.27071530850653375 -0.5399884852499023
P 0.20440664318397955 5.740262509914873 7.772425482110175 2.1003141178497895 -0.6769205545239826 1.2360434466104906
P 8.616494740199217 1.718412740669057 7.817423454024633 -0.5352663971838846 0.36814674858283053 1.964810039271487
P 1.8513136012743303 3.2524575345799778 10.470174561111087 0.20965160842599379 -0.10496682922139342 0.05586570081936831
P 3.9993724917256297 6.249153500081163 3.8053913254308926 -0.8497542227906785 0.33343402769199354 -0.16724331866311198
P 7.1874283297487755 4.081638422931303 10.35347723972097 -0.5513365632728698 0.34897480364007 1.3581762460882094
P 6.342698773366382 7.75170296991752 10.136259000609588 -0.6056017523743378 0.18861458525003647 -0.4726394663812828
P 2.5255595654231286 8.730798706405496 5.816232994378475 0.2987945832412532 -1.6263065674763864 -0.6406484595658257
P 6.801949804164147 3.9657334594932054 1.541680736640314 0.5081903669026989 0.2241965961197042 0.9674564973008692
Ni 5.14655484719052 2.7990406462371515 0.6333635500901503 -0.6001073049186697 0.179218231636801 -1.0502447335426945
Ni 1.6495879500649921 1.1695330004356665 7.086867613226268 -0.8717430683569438 0.5465188301692524 -0.07382717039379542
Ni 7.036201930207526 0.8227696632783642 9.23337706398372 -0.35979940505939967 0.02124991051771179 -0.7105809228909052
Ni 2.8335751514975436 1.638299562803345 9.251672753818765 -0.271673558654745 0.34887838727152176 0.6603089141092305
Ni 6.342508824542269 1.990265688704958 2.559658092906268 0.28829856880593574 -0.11517796542644033 1.0257418633053237
Ni 4.061132995109065 7.052582754991856 10.171446568017648 0.15070829712256625 0.27239860974622765 0.4070706793415377
Ni 8.239527730971329 6.930282847808577 0.4537208064614091 -0.7702156038344025 -0.20765848925536493 -0.21066976527786296
Ni 7.763226531913785 4.131712551040661 8.274272084456456 0.33365051457817374 -1.5568980949755769 -0.4826755104610462
Ni 3.2284968471952804 8.350313121340443 12.162721699045042 -1.175976306115265 -0.03437436371481177 0.7189328944000264
Ni 0.2021498702498602 5.051544254404988 10.18651222332454 -0.5771321841797351 -0.8237405723357363 -0.8139654952268434
Ni 8.75457849014818 2.140750383313951 5.74634629939579 -0.3209693195660795 0.20055633099294493 -0.54077961369263
Ni 3.627054706097489 2.527097246380244 11.56436662175736 -0.029556116390562003 0.66472272690621 -0.7524582798509815
Ni 0.8641766978988514 3.3457947686768827 12.605365775505959 0.8718009181780728 -0.34332840398757 -0.0002648236256124471
Ni 3.1978969961486836 8.624355003444707 8.047615197823017 -0.02939053734697519 -1.2789651856746813 0.4248984515515779
Ni 5.6353474427291 7.797507772075358 3.7046596549666835 -0.3116871229332051 -0.4400520193635647 0.2742400338303406
Ni 3.215001435501067 8.393567182145889 3.258043839045357 -0.8612131153598975 -0.36063655624871443 1.8461065771902914
Ni 3.542617931187653 4.495419323308955 9.399322688357405 -0.684147668400041 0.010777036010845956 -0.10069982641492335
Ni 7.214265385041489 6.398181920371947 11.533163457064648 0.5757576724297115 -1.7988723267936761 -0.4195909232957354
Ni 0.21255002062922065 9.051694631791278 0.3428739088540107 0.07927173844813444 0.004729030044553145 0.6480059283721614
Ni 4.505522791715413 0.1902011846948635 1.5403302909526828 0.6725648486584481 0.7767575187179784 -0.6414251898308502
Ni 5.76939704146116 5.655472972903111 0.3159590649952309 0.5557097526399011 0.27315322852406504 0.6177003354100845
Ni 7.6124433462954695 8.882812036789502 11.403332531264345 1.2922053385140388 -0.0801687963411071 0.7425101674993342
Ni 0.11588325500105635 4.70894893715968 5.7368018232431535 -0.2492352842558869 -0.3493221596771596 -0.022756576970225328
Ni 7.727235752335184 8.676997963270658 2.61392285388287 -0.3182966578299228 0.245892335925583 0.02768255351693297
P 8.570228633754246 1.417045363438641 3.4328591689869663 -0.21136267757982952 0.7217397677212021 0.9052067473320281
P 2.117115322484877 3.121076264567619 1.6450472686504514 -1.1343349764253947 0.7421383859822122 -0.5128474060587361
P 4.846110078534372 1.3616978941645876 8.421855084647552 0.3520117906941808 -0.704864075011786 -1.0439681565053633
P 8.491843085669764 1.6367528366641289 12.349160087986023 -1.697929016909379 0.6150816668403148 1.1929509862963907
P 6.235296281102923 7.580911841492504 1.446521802868333 -1.1759919898445488 1.2627872903632382 -1.2475864142530835
P 1.8270272873340079 3.1458600635234784 6.135837267760279 0.23010319141212632 1.0898991147095227 -0.9042742082154298
P 6.949476724226217 3.8881710229798845 6.04843638667605 -0.3525908031261024 -0.1261573472560795 0.019181972245089544
P 2.190390342682476 8.562495003058165 10.184447208250955 1.3611900932138687 -0.7223627460171818 -0.5697250930823865
