# total energy = -340860.0381834816 ev
CRYSTAL
PRIMVEC
9.40562223047056 0.00000000000000 0.00000000000000

0.00000000000000 9.40562223047056 0.00000000000000

0.00000000000000 0.00000000000000 13.76607886916079

PRIMCOORD
 96 1
Ni 7.045262467805746 0.556905006977236 6.302482615137681 -0.3806438526085767 -0.9254377296669223 0.4802082798674762
Ni 1.1921155806864703 3.964300439298552 12.174307186742555 -1.4982946835100714 0.5666338557515725 0.06577807483707382
Ni 4.523069640587926 -0.08346737217348121 10.114750577839791 -0.3170437592594282 1.051409186164441 -0.41576357912984524
Ni 2.7028466120475563 7.467085810443537 10.668215008230847 0.8160689147230914 -0.6915100223023832 0.1392296070590054
Ni 1.2989070146926576 1.7391559711421554 8.712922542659841 1.5298901989281652 -0.3813012836869175 1.1229056515425304
Ni 5.39443469436943 4.077149093975867 2.6647547828612206 0.5427297954404653 -0.2689530743997884 0.05881861280010515
Ni 3.7255199095191722 4.975649367689363 10.169828020085117 0.8300040367469448 0.9439645848265161 0.004123792360386446
Ni 9.167575268885372 4.402743516293303 1.3689817214723206 -0.4031240359889638 1.5368815426443336 -0.9409247695589279
Ni 6.250120576009986 9.39584971871188 4.100612359016542 0.05125931239560849 -1.0199504534345272 -0.9118296519651845
Ni 9.375336056780622 -0.08649974475790913 0.6877390923491634 -1.218742750548514 0.5069940326017526 -0.3897892665532706
Ni 5.191846998662255 1.9570278028595518 11.140474118577938 -2.7238184615361605 0.5199161399800595 -0.7084206820147929
Ni 8.971298745647648 1.3517007718775025 7.481575171381227 -0.07747967954471818 -1.886834651037273 -1.093882010616671
Ni 1.5319407093321935 5.876341151366172 8.04672702786847 -0.5754059455172478 -1.0007121740302056 -0.695248406298893
Ni 3.211164056069961 3.5742022602069 13.082028732421849 2.1936731876289253 -1.7323712577476487 0.8287539663899276
Ni 4.89118688069134 5.552166977994915 7.436380216339556 -0.008436817913443534 0.9847098850646782 -0.08848091575122827
Ni 5.251666755600722 7.16425299375363 10.551713209906536 -0.9900145851070433 -1.3114844984586251 -1.5024752972503221
Ni 4.924285265072859 2.61405753885587 6.743589364328183 -0.6107614421984062 -0.8426505218663617 0.011935832205637507
Ni 2.6366780601509983 3.562915513614737 7.9682060723890045 1.5781181806966176 1.2478036724702124 1.1430443312739347
Ni 0.5574702848690601 2.645340638160483 2.539015723013439 1.1245012781644246 -1.3864802352392251 1.1215853900692103
Ni 3.2284704008446115 1.6612492027897467 3.4205266214190817 -0.6825674683971148 5.005458601394373 2.00426156039889
Ni 8.212490772256496 3.1683966921078213 8.817420885983388 0.931931307811066 -0.6734246255555821 1.9176477797633877
Ni 2.137136061604001 0.8805882068717332 1.1829187633382892 0.683625477347984 -0.529620511752017 -0.23803735865753844
Ni 1.6757056440498763 6.124433247084085 2.0359475567186074 -0.5667914643753593 -1.4788759126638273 0.024977752991260208
Ni 2.475898354945629 1.8846609459594634 6.2885378397230625 0.26426209668202233 4.457249528006892 0.8428047880560388
P 0.621579005512549 7.667519618676041 11.546725513167408 -1.4719938408320135 -0.80907577123471 -1.800975746289924
P 6.439427533227049 0.7804418449216823 9.325362105119385 0.4904145309765166 -0.5476205478738633 0.9059955617819105
P 4.273350372236309 2.5055448759943784 8.836349700580662 0.6781037761988064 0.3013057796988811 1.1385479860654777
P 7.710578556925144 4.911672325756116 3.0153634573135397 -0.7850277291465706 0.9249785306423166 0.1783114035518155
P 4.510738869935988 6.582402395683281 5.287096793715739 0.44932393158379386 -0.24913886788733866 -0.8766258503705419
P 3.838011150554402 3.436428706805224 5.064113946916525 -1.0127930164541394 -0.8803799180963354 -1.4648461740436385
P 5.186203625366174 8.419583760978377 1.816434443934267 0.5045134322717441 -0.15607958873680863 0.15398182566751545
P 1.5642678326965818 8.141440702458826 1.7068702325152718 0.08266945127577376 1.720474506310063 0.16268629542004884
Ni 1.4991903329705991 0.08223523567050335 10.594525720855044 0.5447380841197458 0.5853617711783791 0.6113700223166825
Ni 6.683531645149066 5.1394953057189365 10.149440393490805 -0.41541159510706527 -0.14530280983627877 1.1527993537781696
Ni 2.970361317526152 5.115153555568504 6.115842151803018 -0.9810206091385492 -0.7154338801078324 -1.0705793313349885
Ni 8.618926517040304 3.6081377449606715 4.766408134866108 -0.37605031970062336 0.9141109918001935 0.3085107820877525
Ni 7.222821802944798 8.033529999415583 1.548257582655598 1.104819483464781 0.2901387073384681 -0.5934628030189586
Ni 7.240560806338816 2.265184201692096 11.37294253532565 1.9658364236534724 1.0428132169653137 -0.7432213346337457
Ni 3.024782247344701 2.8622154739289054 10.62183776648365 -1.3999674710923826 -1.143560865899037 -0.0613794315487459
Ni 8.257120449406342 2.182574622259619 0.4027082967217461 -3.2967970285588386 0.5713181486011193 1.8281577060213547
Ni 8.238760674949758 7.839830616649737 7.662405781907574 -3.010914525393563 1.5151549496005197 -0.38628588138570247
Ni 6.367399278724725 2.443185601072675 4.904110205539367 -0.5258947261609975 -0.3024694609896791 -1.05297524509998
Ni 4.967372420188443 8.030821180233465 8.288198506147864 0.9436997612009038 -0.5519222605730107 -0.9481981632918896
Ni 0.5462973463050343 3.5351971451088153 7.234955055531374 -1.096211430080796 0.3881748708782992 -0.9400169130326778
Ni 8.717572682255813 0.35016472908636087 9.623975559708256 -1.525524722870618 0.1514534028187069 -0.041052289955619624
Ni 3.5487036185307708 0.6558596765995975 7.9614735280467785 0.5987374211543366 -0.681336424203491 0.2068501344214567
Ni 3.7123332272506615 5.546645877786915 2.995361461227794 0.17211401649185198 0.6889093514547426 0.9133545732501431
Ni 5.245957542949519 1.2745370476757443 1.9862661199065512 0.8208264840127347 -0.058350672024751124 0.11919274301278827
Ni 0.39640182706337473 7.643742205855216 9.081812924904819 2.909356207633086 0.8677632577735894 2.0512957789695574
Ni 1.8490512604611875 7.5218829651484915 4.016377488074793 0.5232099802399828 -0.04579906061198564 -0.32152390651796886
Ni 2.984977654363004 7.3494496940867124 6.666306188724992 0.5817239173154756 1.082426974702194 0.2962119101157415
Ni 1.5078623166022447 4.292904660707232 4.1959834865958925 0.7443680466436793 -0.043389936949860756 -0.16473417908801308
Ni 8.25770359798027 1.309300227179608 4.243586280910558 2.1034020127464936 -0.6260785321714507 0.680964128465737
Ni 9.147240313775157 8.775718238449775 3.0433085013135206 0.583838135445001 -0.639893326567356 0.19006700142584687
Ni 2.2090326373960827 -0.046498574273065627 5.611205127731875 0.2524162530870298 -3.1772828976508896 -1.29684617972016
Ni 7.393637306995033 2.8421344706170144 2.505219441467638 -0.15014728241277367 1.1663709218150171 0.5040426632829125
P 8.483193983647377 8.494490135861701 5.1182141450194125 -1.987602354575654 0.3746585815594193 -0.3275731980358423
P 6.740887129081576 6.488816455189925 8.284343141624426 -0.9366904197626061 -0.015979663257707964 1.2692451301734398
P 7.635295957155414 2.7129012221367423 6.657854296651894 -1.156325621763873 0.9438280592486521 -0.2125027047215437
P 7.651483032893009 0.8157430260131058 2.220743577547668 0.2834767219372602 -1.8005939374704731 -1.1380016266437045
P 0.45831903774355176 5.236956362542268 5.913797160494482 1.6128524988540096 1.0365785489095116 -0.7897968684004397
P 4.337957590854285 6.914825299688975 12.49432689680568 0.7464385560194629 1.4598338084307116 -0.3955030291085963
P 3.381556307122989 6.603122981302061 8.73570578121834 0.5736005168773928 -0.05479715034553789 0.6196808561752231
P 8.29765868091653 0.9824078290040723 12.578575876180668 0.42068055681548844 -2.685235716166956 -1.1826503757013311
Ni 6.4661771226504765 6.802070701233262 3.504251707639751 -0.6014738462488931 -0.9726400983843378 -0.5545442715768901
Ni 6.469008214920677 6.497638928776133 12.424202340228568 -1.5504950196627105 -0.8266541464381054 -1.8472283494995605
Ni 0.7141350303793699 6.395032996631206 13.392205458894392 -2.3267576010221407 -1.3446599567693291 1.1261817511906411
Ni 6.671859268048336 7.002485698221447 5.802402615003124 -0.43231659839251996 1.2724818919431828 0.4850509526717582
Ni 7.732954532044109 4.288164227138523 12.891918535072312 -0.4372605726613566 0.1590309580556487 0.6391091401031639
Ni 9.166954497822802 6.395202297830089 3.939438558242663 -0.7051461250285791 -0.8271909927781818 0.6246680249771693
Ni 2.6910331506144254 5.718439566541804 12.634906147297723 0.3330709879256199 0.17241792088551597 -0.6108100360481545
Ni 1.2028756124376663 5.500285566159603 10.617460389930322 -0.5022794007349026 1.3090949151805262 -1.0975198644795743
Ni 7.943226621056115 5.339007362979747 6.891120310158785 -0.4947236998748318 -1.7224766243417562 -1.6295749538150128
Ni 8.733872625459329 5.52206898708248 8.94185256435091 0.3924120488880984 -0.20035861315984202 1.957231969813913
Ni 6.147429993265619 3.812822894409557 8.253672348322436 -0.39518498364754523 -0.2121350369694798 -0.09262579115753725
Ni 5.4749374144380365 1.1149706677290327 13.288864007096542 0.34788876966474275 0.034546884736934055 0.49168825548261774
Ni 3.5312467838015578 9.434309307724677 12.231615642564266 0.7317444443423978 0.9113362572685337 0.230816415429067
Ni 3.4764590347187645 9.176548232426143 2.8448837339744224 0.3487912268743541 -5.005616467128476 -0.7485568879140463
Ni 6.18550395176985 8.789046005050688 11.783625859076976 0.8483167190132035 1.9358650741023629 0.6800135916270096
Ni 3.723638785087145 7.36312546870755 0.694130212606976 -1.424819754249372 0.2974511818394812 1.0214512063497698
Ni 5.7430070516240805 6.153148611538981 1.0073882208991782 0.5243857457156389 -0.504419587006357 0.5159427571546082
Ni 0.5228312595777104 7.628617965421717 6.3100814172808555 1.907772686741521 -1.2919798527667943 -0.5170439606385869
Ni 0.2635229594338337 2.1571794424272515 10.991538913358829 -0.35409952646114495 -0.29140497564540135 -0.23499060141141467
Ni 5.586149490859487 4.575600040352287 5.072634500031392 0.549625494119034 2.088186995568952 0.012337181409114236
Ni 1.801317727998496 8.322169732265845 13.149399322830472 0.6532365806434814 1.2035722134556626 0.5772967347820573
Ni 6.017848736765422 3.213731790919678 0.4708727216406856 -0.9016372848132149 0.3934163217828966 -0.09083476069538549
Ni 7.724047407858459 7.536499301985343 10.428121453597914 0.7012403622162697 -0.2783761674859012 -0.380294696799274
Ni 0.8746034094912385 2.474431077888647 0.08922831574656467 1.7653104316778307 0.7859463843060981 1.6132474202995828
P 5.2671295984319855 4.117104176912125 12.256146445720118 0.5219475685877915 -0.547971760565695 -0.388650267852821
P 2.0687759997441306 4.186216688544807 1.0665241891066028 -0.9145015423703928 0.3947108722246041 0.39207703414618283
P 8.615531087440495 4.241860349244172 11.002634725821142 1.2508249757950394 -0.11125677599516323 -2.072733380018043
P 4.359223702558353 0.19763375451543116 5.011609882894212 -0.6155236394737399 0.36848510575885574 0.11761897076776519
P 1.283961481080201 1.5972251327456992 4.562202672147389 -1.921580539158891 1.0306254166498703 -1.9207055927531052
P 2.009859182533037 1.7722919780123156 12.364030813021312 1.7618929213558492 -2.0334803480546917 -2.160273272012241
P 1.6314615974085953 9.087759159234455 7.754652361805327 -1.0992957254330744 0.05575642893501365 0.4568099555481939
P 7.968038652314555 6.339426958420481 13.660244998089523 1.982909062865043 0.37034889844047186 3.141107990392229
