# total energy = -381163.58442272805 ev
CRYSTAL
PRIMVEC
9.30848821979815 0.00000000000000 0.00000000000000

0.00000000000000 9.30848821979815 0.00000000000000

0.00000000000000 0.00000000000000 13.62391342609134

PRIMCOORD
 96 1
Ni 5.318404606974489 0.6350985870030535 12.82290854673697 0.6880475176750794 -0.05690005562115362 -0.16096956983925825
Ni 6.591638209759444 7.99753638322542 12.264096742119492 2.0268762124746127 1.1509720707614435 0.4897252182189759
Ni 8.534934011246511 6.313528514401823 12.199519106763079 -0.043359597932557586 -0.13105349900611624 -1.1996098863738052
Ni 5.634790804903001 2.86331882789739 0.8078846025724626 -0.8582730588949671 0.7578653097991657 -0.89118626468322
Ni 6.727644527625033 4.261351329020854 11.299442308394807 1.1817944554589388 0.22125602543414155 -1.4929161928069772
Ni 2.128450935883374 7.884605807060521 8.160273886021171 -0.5759579613659758 -0.7432465314447264 -0.16030262567922068
Ni 0.8325977073087129 8.174611750055691 11.908021943993626 -0.7996539637001776 -0.4270530360007355 -0.23400509756969376
Ni 8.071780883348335 5.8092970290509856 9.74055261904741 0.16442076161265232 1.1133642877109986 1.1483755136788611
Ni 3.155530882543654 0.7984402106686624 7.947536770893393 -1.0155222424598447 -0.004739314457198289 -1.0419642387014572
Ni 4.34267958849602 2.8661113742911803 7.5807264935809995 0.09621093740563431 -0.615923703125636 -2.0893897576278015
Ni 1.2651631437069006 7.941759923253438 3.644900435986737 -0.4406760261008088 1.0425959587481852 -0.0051524907352169325
Ni 1.6941355037450772 9.070814355726977 5.878241276118487 -0.6780320424206064 -0.12398785040858648 1.265392332086253
Ni 4.31104934634235 4.939428135873146 10.33910608224372 0.15461046039044987 -0.6284133509522145 1.319180324440986
Ni 0.5918587986415976 4.156584296813804 4.441667911365519 0.3403950323908589 2.9379152502177015 -0.014466569047291215
Ni 8.94548487357365 6.521796624450737 4.775863108496034 -0.2574957244924662 0.5144790281248882 2.1505370185610833
Ni 3.2665811441367327 6.730986274809603 3.588143792230536 0.7626149086690093 -0.2470706725044003 -0.02243107531000653
Ni 4.660331740789719 6.853765231256602 6.486345247981563 -1.086142218770252 1.889568247918352 -1.2884016484972327
Ni 3.221714232076495 4.648100387584915 6.102191395866132 0.40780010130839445 -0.5511977237021605 -0.1649216125084708
Ni 6.661554262971985 0.34573399882965794 5.132305591897081 0.5435546053346059 -0.10577209873150817 -1.5350907692924982
Ni 3.6091521187510236 5.898006919493738 8.285273847700033 0.22916448164794082 -0.29085553089983457 -0.6801107793265061
Ni 8.756987991992773 6.734253554090338 2.620900667998808 0.5901023711871578 -0.1435292628756238 -1.3762202480741137
Ni 0.7152130196457186 0.8918024834034706 2.129022477045303 0.25340947023823457 -1.7707570566146986 0.4697899127476296
Ni 5.072595364905046 5.422799299662366 4.620264285131609 0.009390182965648345 -0.25779371534885925 -1.1554874421332937
Ni 3.754057351124826 1.192380076196734 1.4786849643713331 0.5867378255902991 0.40388868206913026 0.5499255418579562
P 8.94828672845542 9.194728947707452 4.664037449854279 -0.7547429621201002 -0.37295728259759636 -0.0911083260717463
Ni 5.394147773662072 2.709384362183664 5.230670246071966 -0.8852758127360559 0.34658650591355145 -1.2265018256686426
P 1.0121212064775411 6.580402864768426 9.852705005617238 -0.6302213506952308 1.192563521049985 0.2773608388475094
Ni 7.484536302198078 2.4665445277796203 12.771219443836701 -1.5555816901569985 -2.9207726770001443 -1.3505464974570933
P 3.0325936818010057 4.00571232364527 11.978703154918065 0.3826351720069926 -0.02164534618391756 -0.24774995795961205
P 1.3601934974875998 4.532554126297833 7.316613971597855 -0.41768882117701617 0.2457838353721767 0.410420569650377
P 0.9595003239305441 0.5315528284188884 8.057318285574894 0.020068488615100924 0.2648146267513826 -0.04723784994104123
Ni 4.03666304617645 4.086277287106133 2.8223437946612977 -0.06442927411866324 -0.35539767644727827 0.357674645406913
Ni 8.536330284443407 1.1923614592207756 6.662216096467314 0.10512238096265122 -2.9849409841479364 -1.1249877308825398
Ni 1.8963903305593621 2.490755905013786 6.461372436430691 1.2275408084561181 0.13867810543090955 1.43214585559714
Ni 7.349684236841924 4.786908560332274 5.333557894555995 1.3406613771328975 -0.18052486626336653 -2.0253044971121184
Ni 8.957530057018866 8.165256719636492 7.568301523826227 0.37214892776368813 0.5525575801641646 0.3632760507540905
Ni 8.453084476444506 2.353027516872026 1.3188507789763255 -0.49367674666755623 -1.2623016089760712 0.2096348962554454
Ni 1.216163262983852 4.6078970280023075 10.748886201766174 -0.4367044430475705 0.7901336829145682 -1.3055167109109644
Ni 5.464184837218345 0.6745749536744776 7.0164785319836085 -0.745303156863439 0.0025034831481440755 0.12048189413785702
Ni 2.8911698239314627 3.7021346051762767 8.949793772659268 -1.0637083152467681 0.49140749101740533 0.44852611827284694
Ni 5.185283920382483 9.004575155266261 10.824158358962006 -1.7508618603526684 0.28785839594472357 -1.014685348380846
Ni 7.458640088639659 7.032329956163563 0.7124874943653788 -0.6406178634382064 -0.8110287811960226 1.1116974415315373
Ni 8.913910482347855 8.62223832000439 0.6555651595231461 0.5084330790411244 1.4283177401003013 -0.4254831204104543
Ni 3.3621979326601283 1.566711611796405 12.835551335110457 -0.6423420452181647 1.9456576347127523 -0.8431313181575222
Ni 6.703926500253771 1.4231747271555606 10.674049681807773 0.6405253037244001 0.3868872624151273 1.4443673373639965
Ni 9.058434066714506 4.389482666055954 1.8697047572202976 1.60913468368279 2.280598843077892 1.2735064765529551
Ni 2.5401839761838825 0.9360057002707846 4.114449425975491 1.4640506747255366 0.7203171763420627 -0.6114980632541146
Ni 3.1021746294462917 8.83696652071094 12.11625002754423 -0.26312052687841136 -0.9810483770526911 -0.473091723427353
Ni 5.192544541006339 8.598715770880693 2.992396838159984 -1.5765948020735556 1.463503543972815 1.9137106494925105
Ni 5.730463444354272 3.0122360185902712 9.295650643530253 1.1711608870044927 1.8742830396245076 0.1190875848934917
Ni 6.554646278529695 0.0314571042772549 8.915611143101673 0.6097723388122595 -0.4647690624942706 -0.7343564280439483
Ni 3.575985976080769 6.419161235990948 0.9503100537485787 -0.6042095000125014 -0.9449071512454436 1.2487120432170946
Ni 8.807635475088158 3.3585955478121385 6.632011914672073 0.24608619710394392 1.7664100924999129 -0.17718808858064966
Ni 7.856503481851006 2.0356266937537693 8.61016334939764 -1.6310777636127844 -1.6302203007084957 0.17688289863540504
Ni 6.418518950320376 6.649406686158996 3.1218927995328483 -0.11846923458320241 -1.015705047894612 -0.3642826376417339
Ni 3.116397999078666 7.1120199217543725 10.246313488973247 -0.14703856158046288 0.6065430332416845 1.045057275804484
P 4.288625198800211 9.10747118138947 5.342059336627492 0.17735341051392034 -0.40845830371768366 -0.06780256146627031
Ni 5.67765639204769 4.812534827739294 6.68984555048748 -0.27679133949728457 -0.5402851905547147 3.483205607296491
P 5.512225943679526 5.229080356325102 1.04480423862167 -1.3355713642044997 -0.07802501052522692 1.0324095051334865
Ni 8.459386322806493 4.0053772180780145 8.86275010156481 0.25952329644545624 0.8951056543422843 0.3399669437145048
P 1.6025865244686373 5.821668009575479 2.4987211781776755 -0.603458994999722 -0.13154483682023796 -0.5198156098464531
P 2.5904777367360534 3.3153017702204024 4.463575437824807 1.0536905259994498 -1.0093899043098615 -0.7140660532260282
P 6.048357617335433 5.549162023981397 8.942437274609224 -0.06824453409969537 -2.2530535864697714 -2.115633521815679
Ni 6.597456014746508 0.773554898904795 0.9094644084953992 1.4423582773537675 -0.9791318767562684 1.373761502120976
Ni 1.7644145879888111 2.9267747904522947 2.288462913398786 0.18883107213621672 1.276223618373802 1.4948298648899223
Ni 0.12861165501483104 1.1419653053008318 12.44143926255477 0.845908623792343 0.08703518444363721 0.7654847740176365
Ni 4.478313566842437 6.962739700030297 12.454722474901233 -1.631016828467862 0.35267256420663134 -0.9909838909988481
Ni 0.5778876890334624 6.356068304467236 0.4157803708739093 -0.7606444152061997 -0.13045288930763985 2.3015229948250684
Ni 5.722914260603058 6.898343580189483 10.381708239178597 0.1447551648629249 -0.025013491325202083 0.5505505770364647
Ni 5.251169398299987 7.993515116418361 0.8148762078937167 0.46868279572637994 0.6711222026746507 -0.41889261167713016
Ni 2.16573143024048 6.2482573966909545 12.615838439090991 1.3487855489019285 -0.7220578131822533 -1.9911689888809903
Ni 0.9287152924853949 3.8989346580346904 12.940727940788596 -0.33401561122707635 -0.6393886190167956 1.0458013530593604
Ni 0.5123847899719087 1.9624619782364516 4.821270843707869 -1.6214381836404914 -1.4235385735441033 -2.045266542056342
Ni 7.427214633221533 8.761632927494444 2.8786238438329588 1.9045261547797654 0.684639263324479 -0.23755733369732634
Ni 8.853405310482389 0.5599986368348389 10.067281477969727 0.5271003164333244 1.0542579684671458 0.20065788956781572
Ni 4.06496084963353 1.5768578636938448 9.825321295679727 -0.5047062650088405 -0.3550696036838981 1.0569008054066316
Ni 6.284188160291062 5.838972488729002 12.879339393413895 0.17955118949618754 -1.3487593236496838 -1.0803124994623523
Ni 7.925795866368935 7.903101772675395 9.98526532123289 0.4011561136293156 0.5127468759251298 1.0700273154862605
Ni 6.465489580663936 4.141793109414693 2.598707370958555 0.5167716808138069 0.9687268793728606 1.2810904595478
Ni 3.098721180405971 3.981156532355869 0.5692140399343485 0.6737912648663815 -0.1494811095836845 -0.6524210267207216
Ni 1.9740882797226005 6.612340287025413 5.896457056245184 -0.5751974290508673 0.18491322513904926 0.11541733513075605
Ni 1.837737547801777 2.286127413764779 11.053149024950441 0.28204821702084976 0.0064120741739308925 0.42358538916710914
Ni 5.043310861722161 2.7682605486527527 11.724630768069398 -0.8427811339069549 0.7722030665780765 0.3231946093521724
Ni 8.638835354071487 5.9123140655179265 7.256491378588339 0.5494959105197053 -1.0296103451217946 -0.40428000397027797
Ni 4.535430449083437 8.306764353897849 8.518351870760181 -0.259648766279727 -0.9540476800941312 0.1073309585781958
Ni 2.035468449458121 8.36587325256642 0.6954473762704677 0.01798718060603999 0.28197005548474663 -0.5067369222856241
Ni 7.959958017252975 4.29958128915185 -0.043841116684918954 -0.3111317646503674 2.857952142129497 0.5344323313183634
Ni 6.0699067670075175 1.866817264249118 3.0100131516608135 0.4849468229937261 -0.7595725222982597 0.2139353234030122
P 8.238607604913396 3.2848164720881865 3.5015906784525876 -0.7969262803563695 -1.5102567409679537 0.24864804429384918
Ni 1.7852935265263867 0.10555825368529044 10.08770336974752 1.4918237310737468 -0.23336746398569483 -0.10494368929294184
P 3.04081307668673 8.803390804569595 2.528067117381224 0.02089329850924144 -1.1285312252594242 0.32085927635077643
Ni 6.904682660503388 7.717146108312869 6.61539067853623 -0.3381905685403724 -0.0835863066630883 -0.058563816476821726
P 6.562781897023607 2.5909245441590603 6.921751634911034 0.7654832313557397 0.441372280836885 0.6242227099096346
P 8.775884222590758 2.948938300331014 11.026936322800726 0.3916857122450351 -0.22522015228821213 -0.22451798401486495
P 1.7571260419010173 1.9233011693075257 0.4125130915931741 -1.9718247800264235 -0.13652763474681004 0.3152409017227345
Ni 0.8687704915962824 2.606832750115688 8.931170280759078 0.5387474137539495 -1.5657809992875034 -0.8602864897805701
