# total energy = -381163.37262577895 ev
CRYSTAL
PRIMVEC
9.28778044537098 0.00000000000000 0.00000000000000

0.00000000000000 9.28778044537098 0.00000000000000

0.00000000000000 0.00000000000000 13.59360550504326

PRIMCOORD
 96 1
Ni 3.8806853446387177 1.8504880426120702 8.398128826825948 -2.013632974311461 1.7105806442351186 0.3931327291042068
Ni 5.362782872732218 1.930325801355556 6.879424441786009 -0.16417907791549147 0.33331575694657434 -2.043680685626461
Ni 4.42483781197973 8.468728030587798 11.01412314512963 -1.0913502453337527 2.6670832136276457 0.6314102287970093
Ni 2.475499924520415 1.6540607788072796 13.030164012549852 -1.117995615835423 1.1522493948119703 0.38326277828866245
Ni 9.072415169118404 7.20009155521667 9.603691986744886 -0.20874889410606629 -0.012518701292301022 -0.6093658474024601
Ni 4.227518921274128 6.879997497825386 4.163163892152023 -0.06363428902119364 1.5010431927894858 -1.3011957149381075
Ni 8.756890699593775 4.774476298240609 13.334171634605665 -1.473598980535604 0.3764511546834678 -0.11330285989091454
Ni 1.532047210099372 2.345471001485422 8.917472704429906 -1.2256944992759988 -0.1557340324719318 -1.2435335843399486
Ni 8.778986328729507 0.3900626208764155 5.771123845075268 1.6113340053269543 -2.5186485430306043 0.7008824646562187
Ni 0.4230249528657863 5.902356464426356 3.5301366559165928 -0.18061794019780505 0.45774223755447624 0.5614767370306653
Ni 5.012484954075948 5.318563751120104 5.583478177465447 0.4534163564856126 -0.13435942345089763 -0.03423475281315395
Ni 7.402927387371044 8.198778698586935 7.335897477546505 0.9063871407933746 0.5463478518090268 0.9414618730093204
Ni 7.275229697170463 7.307170373335987 3.5990426973449225 0.9257395771780573 -0.10988175002450754 -0.6653557325045186
Ni 3.2861931085227294 4.849103612282478 11.674255839149724 0.9402444556624516 0.8074474916026676 0.5193767225368217
Ni 5.449614329978944 7.449041216147382 12.764259508833401 0.24743088405729644 0.40465461370087724 0.6507153568835246
Ni 9.273086948482264 5.232168819543569 8.18140683446946 -0.18281031986343352 -0.5702632249740437 0.20868667340956318
Ni 1.1886408243639557 5.2739916938597515 1.2550744586985767 -0.7470054842665264 -0.8045963953071176 -0.8410543810238353
Ni 0.2536938590654449 9.094947323924325 8.450560203705743 0.6410852899929282 1.299573348843336 -0.893483545357829
Ni 3.6466982976372475 8.390088395492278 1.0125825913525965 1.2034961088020886 -0.7277805745986434 0.5726906034686137
Ni 2.5510745921443965 2.807175843842032 10.783304159960105 0.7101073256885964 -1.5358962959129292 0.31686069671434464
Ni 5.798797715009201 7.031908431051123 1.5923546246030018 -0.0699589456876408 -1.190526178904982 -0.05344706407554666
Ni 6.234478197198379 1.2662866669762798 8.979649749091173 -0.0450189879128515 0.23087092281608626 0.2127780698701174
Ni 6.392026813015707 4.2268966399996035 1.1871594234193783 -0.7161039095916635 -1.3722676911842688 -1.0732609919322098
Ni 2.7819966716743267 0.18354139753202278 9.53625341459081 -1.8085443026658015 1.5076750962837067 0.7859052466555175
P 2.4159559655506047 2.401671359577189 6.5810990836668255 1.6453242462294697 0.10483724562206462 0.13068763102626524
Ni 2.2764256433538406 9.306448655020958 6.953686746065359 -0.29063158781448656 1.3248791745979764 -0.3213956084702207
P 6.484653845117705 7.708105269734172 5.484720281642349 -1.3749141276681804 0.06956530979364793 0.4109504740119181
Ni 8.030233350992933 5.613766557530406 1.857838391875634 -0.7158995068903412 1.8103885549633918 0.43620513481364875
P 7.181618160365485 3.894208352634357 8.827809402995083 -0.7995392924991843 2.31275460187483 0.29744115453715225
P 6.321411820027489 1.7490747704249923 0.35868385541400666 -0.32351162637195896 -0.12711611162492303 -0.16402352617423363
P 0.47768168188552396 1.2847693496076826 10.768010901055145 1.886258466818829 1.0164334414202043 -0.7724984863313084
Ni 1.6456739132715226 9.04722670917048 11.924935813534823 -0.46588826370037834 0.4964003162463063 -2.216813887411447
Ni 8.553070362736424 2.342294580651281 4.529742360750297 1.9084532577483133 0.7513524483813124 -0.7106619126404857
Ni 2.7082052578519686 4.94712684469043 2.8063185817280227 -0.5410657774744811 -0.6622120446692144 3.164905349922143
Ni 6.3606619792236225 8.397806540852425 9.805312048468881 -0.9217129725171674 -1.9410574169365797 -0.7102219968895898
Ni 3.4193798768314294 7.296220080460398 6.35596236243393 0.38317484656054657 -0.5896352017427523 1.2390704063622726
Ni 3.74038413668396 4.692753120113116 9.547156339787293 -1.3728690722136936 -0.7364917292193961 -2.397065959629401
Ni 2.2815617858137225 7.005493984114587 10.94494590051897 1.731064366010767 0.24561979899048667 -1.4346105150875486
Ni 3.6457509440551354 3.519669327612276 0.5787912436595128 -0.5096026738691933 0.21323058402650372 -0.16090734914275515
Ni 4.971999520110981 6.4225185954674116 10.474416738178391 0.10260192853364265 -0.6709260275034445 -0.04475930649356163
Ni 5.607710924829062 4.133963111150451 10.483646934157834 3.170646623281294 0.0193218402570635 -0.38137018925163996
Ni 0.6255895818378286 7.409605301346912 6.718299101807197 1.1632550018938548 0.08606613566214855 0.5732984122559416
Ni 2.423766988712921 6.0160574698402405 8.223968087312878 -1.106334891668043 0.44850683499913724 -0.417962643663693
Ni 6.242902213855003 1.0611196019874944 11.662456643162322 0.7036230035158334 -0.6439659539748329 -0.07811114248112999
Ni 4.314211061817601 0.46237356253221856 12.958892373500307 1.5433131572022907 0.04564736552546977 -0.5823486953836681
Ni 3.5935907703576695 3.6738743425515614 4.635636986891974 0.7629604649338859 -2.5544305857262204 -0.09551236867671292
Ni 6.660462236841233 2.912294940335607 3.2519026239623585 -0.5696196778527738 -0.4018850213755401 -1.2198352122817444
Ni 8.507420922970924 4.263118982845065 10.798977289075928 -0.3160078617957461 -0.009808244339673432 -0.8578280009377484
Ni 2.119638625514289 2.5594893210208034 2.6342234445351655 1.2033603545551728 -1.0588846686058795 -0.7099512597267064
Ni 4.523288282277653 0.2659314382790811 5.214765376973356 -0.2807140715904585 -0.8729316893484063 0.7720855671636058
Ni 4.578847783534463 2.9418579447656343 11.994005319894969 0.09336421198545856 -1.3214454663260788 2.3237396401314236
Ni 6.90358845957602 5.102957221167652 7.0405358500944955 1.3345202972321661 -2.5064381170073413 -0.23326359141797895
Ni 6.937572447389236 6.111675167172045 9.175900545071846 0.7599000808410075 -0.898364527599214 -0.3129009407356482
Ni 8.397054230654867 0.5592423238592233 2.8086702476789123 -0.6343618552261655 0.38226133360734166 0.6832781213108942
Ni 0.4361225805274968 2.1312855019061376 6.862962780129779 -1.4772995693156428 0.2942601857060093 0.16467555793593575
Ni 5.3122109094518235 5.068629585486414 3.0364855647263287 0.08565475915634281 -0.23618770704330938 0.8893003605144169
P 7.380460247026639 6.551080049228153 13.572141281764095 0.012658055083642716 0.7199088851600505 0.024010503981984455
Ni 8.9168169871466 7.9059535639121306 1.360597573631582 0.7025961049132158 -0.6834640120694551 -0.3272474392653074
P 0.9608765901077316 3.749727643582046 3.82290234879801 0.5441683276592049 0.7623937937971386 1.6183950259387936
Ni 6.694334771291849 3.1131153241829366 5.566295784064395 -0.7090889117264111 -1.8358748721599543 2.2251033811137484
P 1.3947273795942028 4.632289670901844 10.081071815773365 -0.09453766346826944 0.5874129972804528 -0.6439243021036201
P 4.610361221810015 1.6439370983709836 10.350592052328212 -0.7653477342191399 -0.8836081952256458 0.6837558322782611
P 4.844153225426932 1.8670760180792487 3.7396281113743135 -0.03685830647893006 0.17610591126006445 0.24842153010533988
Ni 3.8828586852094453 5.653258199012177 1.3042263203838258 1.7706992067935698 2.126186100520545 -2.265597741683369
Ni 5.651604974133589 8.99433280083589 2.972772321217204 -0.5540310793858974 0.11645528947696719 -0.011266059832122532
Ni 7.385094849354815 6.5642315460151215 11.3593740840161 -0.579841355580782 0.3032899000084454 0.9466925252806405
Ni 4.608633694689693 9.059449427935771 7.536103939121505 0.5309762544489629 -1.4208525420715077 1.0242182275719458
Ni 0.1826878505301002 4.283059846970504 5.682562074374156 0.054458021838564276 -0.14369432769857834 0.9721911837723773
Ni 1.3666132688779937 0.7628648309979574 4.335285963907508 -1.1585223723048756 3.2877009797948413 1.2046289368549512
Ni 8.20200155832216 0.035196043131507586 10.351978717914577 0.2330393912223148 0.3392825160529705 0.9668654006840895
Ni 2.434540813764392 6.273124650680423 13.183771823221198 -0.1998068544214301 1.3747197522691872 0.44892155393905264
Ni 6.9111580004527 8.953522294563335 1.0163357833381996 -1.2591255252409346 1.4542635134317856 -0.2553650513027086
Ni 3.6744501849250018 4.150764705562615 7.0988528932976696 -0.33835023404668824 -0.38258606393661204 0.15334059253909074
Ni 5.25241618041616 5.132752420103099 12.795429299240931 0.9007785363573453 -0.10273896833213919 0.6016353115274219
Ni 8.096538813960564 8.745866104476452 12.66981114303089 0.5512604586192957 -0.9093259117067243 -0.6111157402140314
Ni 3.348514113777358 0.3548424295163443 3.2580065531208295 0.3999986029861047 -1.1763311183515224 0.5536600691997239
Ni 1.4659553660767286 0.23349572342800207 2.12818802720384 -1.4467975440720438 1.8170585107843997 -2.798799028808109
Ni 8.286195285987317 2.286809381636206 9.220597058587103 2.244062695825071 -1.7123284801641607 -0.028857033441008366
Ni 1.9302700746742554 7.375769918017163 2.185919940253355 0.49087424422175463 -2.576015768096163 1.2302841755292102
Ni 6.8812699237150845 0.6921309544229647 4.7325317540035865 -2.10273146904203 0.12626121982379546 -0.13456202638000697
Ni 7.206370094643217 3.1776003822280767 12.58423910878156 -0.5052114867800331 -0.11034326304195835 -0.006233382504221522
Ni 2.397129635051181 5.487852121131448 5.105160282635074 -0.9623068347791298 1.160238326554718 1.0628709069471372
Ni 8.333804447378558 6.261886436618112 5.632129427797013 0.47023908446990625 2.77544698434573 0.8722444334733946
Ni 5.586897009363246 6.741888206001788 7.423522111223743 -2.465476844103631 1.5874497425101888 0.15006192178781896
Ni 8.69935290115079 1.3588022457156776 0.5980652451653855 -0.7120096849176318 0.06372556318341929 -0.3974789218880445
Ni 1.3485578241365634 4.001250019632807 12.3131288042536 -0.9041605654557009 -0.5975431437359193 1.4124481200578964
Ni 4.285103158618196 1.4203337896518797 1.5247265817325022 1.4040403556101755 0.9731350357428854 -0.5278914448760522
Ni 2.0732368755512303 8.088272689567624 4.697827963223568 0.5166739788936779 -2.324510199748861 0.303073156011949
P 3.464081963014817 7.613295609281228 9.245473449119741 1.4267856197264912 -1.779962891483683 -1.9402809437818713
Ni 8.913399084026823 3.608934183275799 2.239342323282282 -0.42638634895101407 -1.7280656883937593 -0.8839288117898583
P 1.668094614714842 8.292826761062102 0.18253460215652326 -0.9079112907473846 -0.6279929755853443 1.469112148408844
Ni 7.186531396100164 4.826896529784146 4.602400665386208 0.11656404714068959 1.523401505880028 -3.4639025360925055
P 1.0808932860690301 2.6765060639720804 0.7163126189953866 0.24804332083031475 1.2207039880399428 -0.42792206886925005
P 7.315538663311312 1.2067519957866866 7.08621036686658 1.0394885234674551 -0.00493600384903666 -0.00099887357815957
P 0.2068360790937418 8.213518405790973 3.6454918149870874 -0.3668444848316392 -0.7135441192842873 -0.21647454488509812
Ni 0.3794912694336706 6.229119148013294 11.533888687955429 -0.4699084406033649 -1.033728481055226 1.4995907766136756
