# total energy = -381167.02430954657 ev
CRYSTAL
PRIMVEC
9.23616229042701 0.00000000000000 0.00000000000000

0.00000000000000 9.23616229042701 0.00000000000000

0.00000000000000 0.00000000000000 13.51805711762874

PRIMCOORD
 96 1
Ni 5.569174875515792 2.4250374993002204 1.7165906118146483 -0.4943789149409034 -0.9387863830596864 0.04447622803550405
Ni 6.880211148794061 8.33764059223183 6.200408371000329 -0.6687920118795773 0.0056872801927643985 0.5584127533933608
Ni 2.333627202450468 6.382723746629945 11.379635251173335 0.9174804224930585 -2.5190887158918165 0.6790851662754691
Ni 6.383905975385807 3.2761128972508455 3.868881471823946 0.7109110525368144 -0.4855122085788929 2.2192235252942036
Ni 6.614108080941355 9.14130676983995 2.1775831664550256 -0.2072190877251012 0.824386176339535 0.5932296039622299
Ni 4.414442174389524 8.339487824662866 4.824243300284852 2.420290734485296 2.4429856049796506 0.4073725268526726
Ni 5.832525567046256 5.714459706216671 5.278112003054944 4.208839567865777 0.4847591324629522 0.30508607267691973
Ni 2.409622344663236 7.715095554486666 1.9390574315652367 -0.3722533145520363 0.8688978855986649 -0.9300919406094821
Ni 0.7696420034608905 3.2259235920996323 3.0115522684780536 1.146330458224374 1.819525998488286 1.2967186530033603
Ni 2.769897321850092 3.5076080655081165 5.229839201550929 -1.9146344468583605 0.5131078588089745 -0.750381856937927
Ni 0.6698877577201537 0.611499511423793 10.55986028315038 -0.13943195287779855 1.438114157365433 0.6334743104148897
Ni 5.401621657858787 1.5698150645419229 10.612256107440464 0.9403143896684386 0.13177520766348919 -0.39056368282544995
Ni 0.44538528783056497 7.90706918488195 0.11048481893261743 2.557865322439382 -2.8196609598587825 -0.10859748399544523
Ni 5.241965358844457 8.781659851679647 0.23923045406222856 0.4155535200015682 2.0567218350811354 -1.4363732634149262
Ni 7.113036324401675 1.6857473719136618 7.8099629468311 -0.2840611336858204 -0.25991976055292654 3.0956058921953717
Ni 8.209193285139833 6.123095228448016 5.096469943646438 -0.8641521433835634 1.2602485831017847 2.1298751193363574
Ni 1.0526176923386676 1.3544554715697403 4.621026489698076 -1.1720826274878136 1.1743305429817261 -0.19444199056509096
Ni 2.022423954794049 7.754533966889257 9.174677947322808 -1.834672110101105 0.9867657391524426 0.3436140535487889
Ni 8.420128756439686 0.35323517439218266 0.19245391082735194 -2.0835147869042636 2.048697422114762 0.6105863500731226
Ni 7.329753633210669 1.624631686932878 5.742538562784615 -0.054612030917925304 0.47864119249067244 -2.5850331411034255
Ni 1.7208170796168558 1.412218429688196 1.9106830178083278 -0.7759784744601087 -1.2489213310144232 0.6125298469527386
Ni 0.64558372062503 3.2139719982708375 0.668120879899869 0.19501508945974155 0.9374342399071662 3.891304727902543
Ni 1.1609116936080779 5.793862992264699 4.662648330834151 1.5326276524639864 -1.8692796728726453 0.21994039194651155
Ni 8.543505410508494 7.826086515105386 11.505610037656396 0.2834713226206215 0.07380763000976967 -1.0413654287751934
P 2.5052073868071276 4.932295314105797 3.1768647931962124 0.8280872793402061 -0.9527567291968494 -0.5415419457799512
Ni 8.258615988832165 4.9870195748752 9.362335519142977 -0.3005866421446694 -0.3163374772210229 0.2725035107552081
P 5.007505382535375 0.3908623753961443 6.862833309699101 0.5843114755369937 0.49054977100280034 0.21518333687750038
Ni 0.11993341281736002 0.5383758920250682 8.44782615951062 -0.9039119397800045 0.2636560876669072 -0.18606122270056344
P 5.499238655676817 1.222479950534465 4.034314990266338 1.5281806724362261 -0.9015149003027377 -0.5673262538329068
P 7.791173822158831 8.880523731388624 9.592453575622912 -0.6064335042470137 2.2453495329572943 1.8726655586257426
P 9.044678041372524 0.053167043830041213 2.270722472860227 0.22052223259191053 0.0638191513384901 0.6170426472214277
Ni 8.687571067804893 3.7310308280417654 5.140754570331849 -0.8376181016487768 -0.6878148328389831 -0.23693924049735324
Ni 0.3589514351500196 9.172183259924696 6.383091345883721 -1.0600666047291227 -1.2098778439587163 -2.3296092115383233
Ni 7.634805596871742 2.9156162521722657 0.022025475891442443 -0.04374500629643434 -0.6014455641141189 -0.9016933348621309
Ni 5.938704487182131 5.829643884453841 9.708952059734763 -0.5224080531639776 1.1697899747988951 0.6275322338988418
Ni 0.5260927199749028 4.781145520436381 6.983266398889056 -0.35041796384449975 0.3339677887082764 1.1281424744614377
Ni 4.15987507306863 9.012453071613123 8.929771871616225 -0.9128609214431761 -0.5649646955792658 2.0152982778290256
Ni 3.9071829126652355 2.4728069299667785 3.5069763120167026 -1.261293736536847 0.8797497407115042 -0.31474930679829666
Ni 4.476342933153497 7.579166956048977 7.0231980223507335 -0.042160692528449964 -1.9942298871945008 0.46665162422896406
Ni 3.7476282114346122 0.3140045756380829 11.730252897210743 -0.5523398077264037 -0.029747663576077804 -0.3187237180650124
Ni 2.309954918846758 0.04452753775009184 7.551497261464507 0.4500646664045604 0.5412359845037582 0.1396255569458434
Ni 6.345834514982182 3.719679584753057 9.276766171240157 0.10317811275208683 -1.942927894486415 -1.2348473694198605
Ni 1.5399176076456258 3.4597832178686274 11.088469857312566 0.5431110900392839 -0.762310490054713 -1.0086946780150499
Ni 8.751041974135246 7.21087499011143 8.935828023141372 1.1605010932978013 -0.7945408108433285 -1.4677312089009176
Ni 1.2555731195364521 5.517535492906216 9.5528055023394 0.2841027855570333 -1.1861406482427765 -1.3119902344504502
Ni 5.469978493969227 4.503709681619277 0.26673943942519757 -0.004231778693160454 -0.7811772450522289 0.3772978189544792
Ni 6.307883124686574 3.818866730137466 11.633071846246438 -0.6586564661074722 -1.8946389775730403 -0.9595310718062053
Ni 1.746909237705221 4.810793600954488 13.173495595578167 0.8954422117460966 0.9267621049053006 -0.8807846097339218
Ni 6.174060371220264 8.049093650342053 8.621275743087487 0.45754606238327006 -0.15756105837834156 0.2788687908516036
Ni 8.506967153022629 5.219826278158505 0.4650444589778519 -0.8693038627878319 0.26703605988273366 -0.43869704799756704
Ni 0.7820119954353144 2.7605872703976773 8.70756181717355 0.6135125225809821 0.5430054176993552 -0.8229497010033247
Ni 3.038087762349867 3.3913063116501703 1.0890469631111033 0.9508042334561688 -1.1985256521706906 0.6370959663278769
Ni 0.4218607828213378 7.66506326409209 3.7087061004964954 -0.657262671083739 0.4380964382990907 -0.6275052373156483
Ni 5.648679759347525 1.8977911826721365 12.934995721942414 -0.22663528746818387 -1.1844177520143988 0.7673400820588205
Ni 5.540044020078374 7.076045494970206 1.5346234394982803 -0.1525975437254791 -1.4054601187758375 0.05913897225400138
Ni 3.9039872005595457 6.773838269252925 3.4686794892564907 -0.19249078037599107 -0.23004019938467477 -2.7642768266615234
P 0.6581439775398505 6.961009095327519 6.609573125323164 -1.1719903248843235 -0.28261077439253907 0.587471104211898
Ni 4.954037239819075 6.516675806366428 12.712772736872722 0.10627294962732665 2.8410533094916297 1.214373932056857
P 4.077571632103878 5.024250544522705 11.840749723154163 -1.3214043286754984 -3.3558660668068527 -1.6767176729390865
Ni 1.5003129443242416 0.7890878192623929 12.82148513628776 1.7396783329320231 -2.1321523454063085 0.7730358468920171
P 3.09488092344203 1.6785985824055571 10.036062749471037 0.13541151886449582 0.6953134552088734 -0.2242091945251945
P 0.36291929041188214 2.3718187329621103 12.508893693459418 -3.4619289573059024 0.1555435137276805 -4.574359934569355
P 0.8289012198484842 2.6185905134240386 6.460874609089731 0.4492966778902842 -0.5755509557355443 -0.032426495959821576
Ni 6.868859905505352 6.119114442559137 7.477878583774266 0.8283976114917733 -0.9052630544912602 -0.2645870841216088
Ni 3.6304952029827007 6.3758982227972725 9.351980857750814 2.4441328312102164 -0.9219124901224831 -0.14586151055322621
Ni 3.0949271042528053 1.2569954885083487 5.802815604241708 -0.06018901078507054 -1.185867854197364 -0.5786568483543776
Ni 4.92501721832752 2.587390757663862 5.962922627969212 0.9224665628537403 0.26771046024193895 0.12089969840156597
Ni 2.468484406078157 7.630464600658811 5.7452955571879345 -0.6448049049363604 -0.1255086579284871 0.32131179050716274
Ni 2.6932556482864616 5.731962233500726 7.306604116384942 -1.3749951174177608 1.1991272903104315 -0.13695058121684156
Ni 4.7489205506769805 4.85746392832458 7.443515442475942 0.6906152784022558 -0.6724542912225128 0.8180859451531202
Ni 3.8982330715368727 5.4496035202549145 5.169237047185973 -4.768897827282361 -0.5290235015979663 1.0626667613561311
Ni 3.796505981559791 2.7639122887735392 12.014402502298442 -0.9651725863626991 1.439294293716463 0.30573810443862187
Ni 7.545103990020696 1.1184715285050553 11.67623520284621 0.10781201197967238 -0.6120230825196492 -0.5895814656866815
Ni 2.6748664494355108 3.3952409167282744 7.55011830245474 0.7034345416541112 -0.4304690036608199 0.1476484272503199
Ni 3.9794281730430034 0.29002657506703666 2.5244832572249747 1.9941537825409268 -0.4719753504347226 -0.6042025580339659
Ni 9.216747742323408 5.104993074083232 11.639074428031085 -0.5366504220156048 0.3552467526917108 -0.5295289804794752
Ni 6.939100918695447 5.834326618666514 11.97814779499074 1.7090788628786113 1.3306531009672762 -0.56488139183684
Ni 2.3309117707768467 8.84093754039155 3.8420208650442706 -0.2817417415240245 1.2083344107309963 1.0966366905436726
Ni 7.952658881279886 9.168682754467884 4.341405374915058 0.1205772820651407 0.048701064750129024 -1.1932587473447966
Ni 3.131779391251948 7.88184522603617 13.234637141812986 -1.59844557940006 -0.20906951067027862 0.19481557185442575
Ni 8.194507787313107 7.237253469226605 1.8465932886135785 -0.873672938389805 0.6426037835199836 -1.1608494777761555
Ni 5.451321446415776 4.986927213253649 2.8192313583857365 -0.990757633920655 0.8055176215698063 -0.9637561656311467
Ni 3.8894587174894575 3.8671072050739377 9.624653607744495 -0.28518907664267656 0.47735795490287464 1.0923156945708155
Ni 8.017071876150066 1.9655846128911107 2.692472421735703 0.3102938421301043 -0.3233887276408495 -0.2038493999219199
Ni 1.0662133230310833 5.939932896748769 1.7440995971776172 0.047022905716757726 -0.8819251510962682 0.7433108090237586
Ni 6.560427506495485 7.053814052662703 3.5429336149030086 0.1943723136694201 0.5989333392152266 1.1697776335037209
Ni 5.730696879285467 8.239838871170699 11.1364997477519 0.909805165335988 0.19035805030370442 -0.2225076384530555
Ni 8.386444473059768 5.230512517772041 3.0191231505966494 -0.46660354459984804 -1.0393095746874295 -0.15124051547695241
P 6.529190806086688 4.00502157837499 6.456831940914412 1.4467404655818632 -0.27739374896797386 -0.0617409286532227
Ni 3.38675288370767 5.695054529528652 1.1604267950949312 1.0000778828803165 0.44362739541964885 0.30173618236808036
P 3.28220876427326 0.8696179170933515 0.5951801365118168 1.8197124034674792 0.2343506538345706 -1.307086883611562
Ni 8.431406110431153 2.6820337112679256 10.198332882375281 -1.209163077279879 0.49866571524171543 1.0426923751167332
P 7.186473049697461 7.59582899257691 13.17091316463958 -0.44858731052808554 0.503077728266482 1.4676088243904402
P 1.7138991941626307 8.232902513392162 11.297094440841198 -0.1576944986324123 1.7012621950476698 1.4370528059804542
P 7.123445479150557 3.898778005104028 1.8158673479719627 0.3317563828792544 1.1408388389821835 0.4844161473012367
Ni 4.718505868699994 1.9166606619551565 8.472955909502417 -0.32048158129638354 1.3828876327919601 -1.9597621924349347
