# total energy = -381168.80721152655 ev
CRYSTAL
PRIMVEC
9.23734981226521 0.00000000000000 0.00000000000000
0.00000000000000 9.23734981226521 0.00000000000000
0.00000000000000 0.00000000000000 13.51979517587746
PRIMCOORD
 96 1
Ni 8.666555320564516 0.05544164873726953 9.442008652265613 -0.32519441339102056 -1.012261826541018 1.62620269490867
Ni 1.3543063037818956 8.123814843122661 7.697170299550893 0.32282257072473436 1.2047119834870608 -0.7436699921353902
Ni 7.940111671054137 6.625138001991795 4.0993371622573465 -0.9269945326310809 -1.5519188965934305 -2.24668470682895
Ni 3.1242748661618447 7.377455467812525 11.696029114955612 -0.1535056573620453 -0.38583311011900007 0.5037742401128743
Ni 3.5639911831933686 7.464111044680571 9.412670829844451 -1.746112004372509 -0.027014066694998635 1.5094658696355423
Ni 7.681438169398035 5.92144594461722 1.4067883056980885 -0.5565109083849576 0.5376793775007515 1.2246562878194716
Ni 3.1437471991794164 8.41295312385464 4.047813073497663 -0.32681086594852105 -0.2289055715595993 -0.33203509046193785
Ni 5.524904999750844 4.992768999682885 2.2756792763647167 -0.9854521625473415 1.0929777536348466 -0.2480453777128438
Ni 2.173668453208668 3.841194808204902 2.587580234052058 0.5672213528239263 0.4690540630228696 -0.7974317592378782
Ni 2.706524966547676 3.639367956164614 8.425252654885428 -0.8136078547771085 0.5831380240541828 1.154448202235502
Ni 4.467394739543228 4.6050404863624115 12.169437741023328 0.43338746285919555 0.3968911677053745 -3.0521928153170594
Ni 7.780444082719824 2.0485577898358063 0.38962309372934656 0.03328678707758784 0.16061604315458144 -0.08102780190729271
Ni 9.13940601071465 1.2761029018242283 11.6998820134858 -0.8910988471757363 -0.7341126874642583 -0.1922915198809914
Ni 1.582579687809521 5.134747063477989 12.352427789700508 0.5317925797026712 -0.3072612259513676 -2.369600150108964
Ni 1.8424170955188555 1.4957486012985275 8.094084433342275 -1.246449729545479 -0.8879201923374386 0.24359042726528374
Ni 4.350680826982972 0.8994859963722732 5.081374581057577 1.9298204105701795 0.25116541139906423 -0.3416484451819858
Ni 8.331516649526884 4.434038670033527 5.086119807561906 -0.05135418610225995 -0.2855330902456566 0.6230495155371398
Ni 7.013919573169955 5.984814163070989 8.795207583785071 1.3476216105008145 -0.07528935676161873 1.2187625480428559
Ni 5.315706742706751 7.225759712207893 5.473407699305084 2.113710079540721 0.9167923952870985 -1.1445759374271127
Ni 6.664599959606153 8.374682784342403 1.5961336509199022 1.0196547765709796 -0.9399636911972392 -1.6027737744617687
Ni 1.9737167831430327 2.342268558634057 11.60741983864107 2.0081943197943932 0.7417524633977032 0.5030327339611594
Ni 2.6024107988811434 1.325310263297001 3.259974303414233 0.17620438451114168 -0.4275505444624443 -0.9399559778877554
Ni 5.023723358289091 6.420826302901352 0.27506148363260774 -0.32261533980993473 -0.11884178743127276 0.9454761363750364
Ni 6.242416132170147 2.7950187759918594 11.733830197106709 0.46164928591836624 -0.028646460092099053 0.7547511896502163
P 5.743525353416343 9.195061042228346 6.786869214233187 -0.6031350360014 -0.6798469841421583 -0.430475174308407
Ni 0.5362355358332338 3.0069697632253436 9.953476082539066 -0.46118211647396057 -0.3402245682512657 -0.6688938275647642
P 5.012324468847115 3.7348544392778207 7.929764915734885 0.986418640225669 0.9417179548841846 1.8099278132768895
Ni 3.939286223913438 4.094473697677768 0.5690687713539441 -0.8892155141100945 0.5237591678752335 3.259309058915709
P 1.3521817133672651 4.831475637813899 0.7420713976124332 2.5222223764247915 1.6389260560126095 2.1018323542665285
P 7.566248419526534 6.937388131495106 13.004812836031677 -1.535806307302284 0.4376601220926204 -0.5723406763283627
P 0.6670105419984934 4.691566740335653 8.568372455094654 0.3601750432312636 -0.2262174832044749 0.26634494735298
Ni 5.15982646772026 5.941361670416977 10.34188631226215 -1.23531428175395 0.20756695798282315 -1.3775551648354534
Ni 6.221391924414932 2.763353141464233 4.698791271480361 -1.1035961525806413 0.7696810714871712 -1.088980973770628
Ni 4.267563155022768 2.9040472136609297 2.765001084638016 2.145537765574279 -0.2279840881865945 1.4149528887576213
Ni 8.385952350889575 1.8988018776532285 8.20162103904629 0.1359961877233722 1.0321775916283384 -1.7492749754815229
Ni 6.998918117372737 9.162407011290435 3.754324924825467 -1.7307596902861548 -0.1299471533158149 -0.1305307937334268
Ni 8.400150157269083 8.19174631229307 5.390463689517902 1.4998121485958622 2.258736752897478 1.7229553637503874
Ni 0.639938641441284 5.747737584847089 2.7456543795753965 -1.6397336395155695 -0.03832794904592109 -1.6698829094054404
Ni 1.4382738119079526 8.914836803888186 10.328244594330293 1.7104605737174863 0.9193496144913134 -0.10592842180371434
Ni 7.4675658134417535 6.433379861046931 6.560007297228847 -0.13314920519288034 -0.4541326658263469 -0.20703242563559185
Ni 4.4880217412644035 2.9759322684724774 10.084226147860328 -1.8367554749926949 0.8426572067345811 0.1124849919753095
Ni 2.6457986300877536 5.95057130799692 8.009937720633419 -1.091164868795824 0.8635890717912419 0.9158567708467066
Ni 5.9409552270333075 8.208447440421994 9.437709589748357 0.37725590997295033 1.187824720813419 0.9460440930633642
Ni 5.810754784014962 1.3448657324612323 9.141287658834043 -0.03733447478440022 -0.7208221410029393 -1.170505769918997
Ni 0.8447112842782052 3.163653687629543 6.53580728867124 -0.42975166587882113 -0.2445911006156562 0.2723523298893245
Ni 6.815492065793077 3.643219930959836 9.389795457223618 -1.5693342638564003 0.4850900334398097 2.499712368247734
Ni 7.690065853951361 8.568916534987792 7.560985901442991 -0.8216986022050429 -0.2762264681327501 0.16707465429573162
Ni 8.670037801374585 3.586973709069895 12.360215799172574 0.5519641695545398 0.48159204758888025 -0.10228851105828189
Ni 9.038765086508556 1.3438496240020612 2.4217199265265794 -0.44613756343601235 -0.18659318394463348 -0.39462654004091396
Ni 6.558444337671649 4.349904889614151 0.23902011658580516 -0.22974606518302368 -1.5725149755772274 -0.0035437514872003486
Ni 0.9466066405638934 0.045114291852238565 4.106435141712138 -1.4349200759081675 -0.0332361363453105 0.5200516371166592
Ni 3.369480312059114 4.743988699479258 6.295424663015183 -1.3733778935293122 -0.5597134744826553 -0.7788668517514974
Ni 2.8576387691256917 5.053975678323507 10.434347563371913 -0.2676860347619067 0.3592903266334651 -0.6702223165682005
Ni 9.085459888882289 9.260073508916044 0.3581246552300021 -1.9159598505380036 -0.814436778436307 -0.7149957641291492
Ni 3.1238407107292896 2.019275391512418 1.026410875212237 -1.7947007119144895 -1.5129800534363878 -1.4304851800652656
Ni 2.579280475410555 2.811849227015586 4.883539187791905 0.9284592901020656 1.2015083889480986 0.673162373033131
P 4.155541816073957 2.387919540499731 12.551169366964766 -0.0037206433846968174 0.6601376786386889 0.37179900062343707
Ni 6.124723060549235 2.093783853618554 6.726368269104207 1.5843929579617357 -0.5278125120090007 1.470454007148719
P 8.556085856353349 8.156284127067995 2.5386934086114055 1.6615191108217773 -0.02605298833330997 0.1900988831050468
Ni 0.7675932709019252 6.950699152310249 11.100251470884873 0.2745552510779143 -0.14467417511334438 1.7835963744712122
P 0.8942401055180612 2.001807563364302 0.23332898547948352 -0.2870171309903508 -0.6862544303303988 -0.375661826012953
P 3.0825959446365676 7.7338601285416395 0.30251396299452504 -1.1748254803402733 -0.9119661775430489 0.6837591747123708
P 5.049347766159463 0.4203104929312798 2.506624101904999 0.04699308092008681 0.9749762027166823 3.187063374076421
Ni 6.752862835309615 0.5586462697677361 12.397949448671378 0.27837385349305604 -1.1891935761364874 0.0007096244725149068
Ni 3.8723062017547982 2.3967873961434067 6.960342021587783 -1.7425759661947924 -2.2509131430880007 -1.643159891588299
Ni 1.270985410129857 6.893242837618931 4.569447130772607 0.3195739818804496 2.488567664484824 1.3950466367519974
Ni 4.614213174543838 7.325818683387371 2.813631111758987 3.1509905396132636 1.4454816534740977 -0.4327570283640483
Ni 6.753269278693284 5.229448371872744 11.652129534579567 1.1509383893100307 0.16048594533462038 0.5292160772247467
Ni 3.9961698229277682 -0.008292368761799906 8.163143782902363 0.09342360446848426 0.1448857769035182 -2.360713389142296
Ni 7.684357171880745 4.029137923753059 7.535460333213648 1.6947940708248233 1.3965188504221497 -3.2099261376072072
Ni 4.728857920787237 8.980505122399531 0.6367351285900061 -1.4045455773813682 -0.8919370268063155 -3.046393692136779
Ni 5.5795901095535125 1.8102249320623862 0.8388197026849379 -0.10614053781452043 1.5460351841191438 -0.014038223260620986
Ni 7.591845115348021 7.437895446433954 10.860532086932166 1.353307090921366 -0.4020577995079785 -0.1520730386805768
Ni 0.42681635827486414 3.0489165678898567 3.853817646472697 -0.2527571813662163 -0.40072442540853564 0.1418395338780267
Ni 8.137837139859224 1.479610951496963 4.830325587785111 1.1990756111368897 0.8862644019015704 1.17478254291748
Ni 5.5657895092080425 7.653513661470084 11.927216882791134 -0.0409774708536262 0.6894114879021417 0.08680815603449565
Ni 5.135966393628994 6.779761997428766 8.008517939995468 -1.02363484426465 -0.7679448055223549 -3.105233387982807
Ni 4.5547431176334365 0.6860579569331392 11.286946620498176 -0.22648076416819057 -0.721091592614242 0.13828472664723282
Ni 1.989863670294226 0.2220381730281657 12.815927510821378 0.6889805710123103 -0.6126566023385901 0.1382261054951555
Ni 4.003956908664871 5.421659142949421 4.091306210490042 -0.2473473232045547 -0.3809259026253698 0.7124195187615409
Ni 6.920982598554305 3.2029216609016955 2.570735003268925 1.3268638091281728 -0.6208795044690146 -0.741358056172762
Ni 0.27959886977028864 6.7267950346570595 0.22811265414408374 1.8110138472522166 0.9543927221383757 -0.13614479748609457
Ni 2.3352112235176317 0.4059593465479309 6.045958027734135 -0.8564748293439636 0.09278494244322086 -0.11268579513220593
Ni 9.11006818829349 3.7071793397898487 1.3589693178745286 -1.80306271072594 -1.3728824419501322 1.1676497885274406
Ni 1.5158121246923442 8.845390409378648 1.8211970559515092 1.2066832482808185 -1.309980403109273 0.2290824634570958
Ni 2.8973408978303996 6.288676779111323 2.1412518221562182 -1.5575249299262983 -0.6221457727759478 -1.8028325969930048
Ni 8.769025239997118 5.071757576359003 10.472473800229944 -0.04304566623656458 0.05660412164728961 -0.1541216936794894
Ni 0.08110577721104549 6.868523690012185 8.997099097272761 -0.6474919648502203 -0.6491708952145401 -0.8299328171893772
P 1.5122187956867297 4.909346495184929 4.525832060765127 0.9079526855082815 -2.808216208356951 1.360218987549851
Ni 0.45027737886216435 5.621546151567654 6.707007708017144 0.6537600572471193 0.6996254523206661 -0.8608531609173175
P -0.01893749047406259 0.7159324693677355 6.587844974070286 1.5791407084238611 -0.31232835606162984 -0.20978376312848385
Ni 5.594092748470774 4.979587301762545 6.318584546004582 1.1910296009039616 -0.531635999520149 -0.6529067081078885
P 6.509338587044793 4.884793619871501 4.139139054338045 -1.1578081198466705 0.422753123073801 0.17678931048033425
P 7.544706920192105 1.807158131985615 10.162505296084952 1.5288375892939345 -0.7701618677783316 2.7473283717326424
P 3.092572282235703 1.0233597786298347 9.73582103190978 -0.46479528774651563 0.9852511022801291 1.0452657922708644
Ni 3.2728022108437878 7.2792439665588144 6.065290876772312 -1.899475479729735 -0.16962827395552077 1.479229439348504
