# total energy = -340859.4902346475 ev
CRYSTAL
PRIMVEC
9.36295398175695 0.00000000000000 0.00000000000000
0.00000000000000 9.36295398175695 0.00000000000000
0.00000000000000 0.00000000000000 13.70362957419584
PRIMCOORD
 96 1
Ni 6.104262174250499 8.254782917472928 14.0236097717075 0.43700757611028607 -0.34517702716053456 -1.2092396961540852
Ni 5.697816337956785 3.724236700799285 0.7302495584651892 2.0125582531900434 -0.29301062956962437 0.22484965632267082
Ni 9.478867444068907 9.323629665544379 10.629590416619454 0.8293412063519652 -0.33933830899157047 1.9240454557596154
Ni 9.231217308847327 0.9565381139700189 4.597266627395343 0.05583381914016836 0.2076541183799908 -0.12895007950986823
Ni 4.6570116373329205 8.796111470137232 2.1431109013693344 -1.1223001567480477 2.0064369707836542 -0.14308574758030196
Ni 7.388934376650592 4.493281659464498 6.85396607868784 -0.9517879375256769 0.23915501720174942 0.43835560549774827
Ni 4.941430093197794 3.003869740357778 4.0376643972674495 -0.4439876069725451 -0.8983547574072013 -1.7078491042365682
Ni 8.402642688188209 8.931958570777304 6.241002500709102 0.648317031854677 -0.7446061307964144 0.2564785960818615
Ni 8.279707101214322 9.169356271289333 0.8685619249125895 1.3187964587390062 -1.2299874702243978 1.3401507560450663
Ni 2.4723535635616107 7.593561737908348 2.1699011218574067 0.8026261589546241 -0.8578591112859999 -1.4221224099228669
Ni 2.318950924035321 3.7136378367890464 7.914435791750489 -0.43855795131654146 -2.4053567388832833 0.6432231622715374
Ni 7.043169845701719 6.117969539012858 8.986169138562538 3.1385661978069814 -0.07295890885622919 -0.3175813769304531
Ni 5.571051302767183 5.591200379931524 10.587341958957438 -0.8772927945305795 -0.5386697664384789 1.18839910525965
Ni 3.944378476955421 2.8707472593528474 13.29038279384721 -2.471608668032982 0.8186451600906998 0.12515924500886833
Ni 7.466525177050639 0.99230459852754 10.097999336190707 -0.9848518099591813 1.9895972735184957 0.7721989528130184
Ni 7.230307208751765 8.135395890092575 10.211615974976088 0.2758947958249442 -1.4245402753357401 2.311579350619806
Ni 8.940684843973013 3.5829497238430044 8.429651065506174 -0.8429654820036192 0.45896582554893217 0.7678247350047227
Ni 1.229065618162628 3.77319558764517 12.263981125473302 0.49192916784883023 -2.1353294575827095 1.7895986148012342
Ni 4.066199872394663 3.0949900093928027 9.935817054630492 -1.2500844980845889 2.820092390969246 -0.4274091337885736
Ni 0.4170999417329829 2.282875461993403 6.589897067204462 -0.32325631582804326 -1.9708994399986768 0.33215310409704085
Ni 6.983143947141963 3.3894174631613394 4.926810776708758 1.4153218420612659 -0.8458456317648918 0.33707830931280014
Ni 0.6037373230355491 7.280436464856731 0.6377070567065288 0.8640809238259959 0.6862765418175858 2.264250997847488
Ni 3.719087076059328 9.497874240836387 7.449403142937985 1.7414943030948393 -1.6624943302508528 1.669324722909125
Ni 4.250181919922226 4.506932846502421 2.3081020691513423 -1.344299488106117 0.1255639366464547 0.19181817978899868
P 0.35176712080484923 0.801543772251379 13.048184706782134 0.9337267091485919 -0.5734357091647544 -0.35438800423584127
P 7.182293980267218 4.142283237189013 10.077266010692233 -0.20613048264661274 -1.293440753583037 -0.3152887242415344
P 7.11929066231236 8.349976071529555 2.491169356066007 -1.8544590629200446 1.3823986089706837 -2.116863537568038
P 2.0378375909580924 8.007142145205421 4.205822116116828 0.08030866435308105 0.048124880531684865 1.0766713031653394
P 1.9319613063045717 5.624008171002089 8.532318665798998 -0.7678800137226905 2.4663368781110813 -0.877967709110417
P 2.195032226883805 4.514179772954652 0.5546211385612444 0.8991412578642386 0.8712018511414932 -0.3115850501377021
P 4.203601223410795 1.802256303536158 1.5012466930545492 -0.394378685696166 -0.503729760028184 0.5809677558757413
P 7.521822783803707 5.997739845765966 13.364135719372877 0.2697647716678064 0.22146299923862503 0.4360220722685652
Ni 4.406693060200635 0.5842717415185108 12.951478499347365 -0.09612172012593767 -0.6380745281910624 1.3883679391802413
Ni 6.314226419329664 1.1838800018080216 1.7885152321391378 0.039663637138209105 0.21187664110177057 -1.304106203716683
Ni 3.9783753631932113 0.5743769716545348 4.334649810088634 1.737458956683201 -0.11424696897173874 0.24507883888535215
Ni 0.4457047027203344 4.384605851543255 5.931369609526582 -0.1604898019893623 1.8367544465514303 -0.030845524625946873
Ni 6.609122020801833 9.042984480170782 8.274635188993168 -1.2030050280982831 0.9182394121462703 -2.096002377848313
Ni 0.011602572686827267 4.877190865305346 0.6710475998638264 -0.13204723037795324 0.44566910844002594 1.1126258668830775
Ni 0.3673143060424837 6.57465698686041 3.082110329770466 2.1243043101167998 -0.0930929606019429 0.8067712914712493
Ni 9.067206442356726 4.934623225586978 10.792224928861378 -0.191214998987361 2.3657671495161194 -0.9126320932618217
Ni 8.754661672457614 7.7500167004623215 12.592758448848167 -1.651217471785453 0.6015864605673575 -1.1614814549331998
Ni 6.692386771369906 0.7997245502750631 4.042899224889468 0.019375576313134375 0.10862602324053551 0.9350456850703317
Ni 1.7353486337330049 8.62410464086859 8.94429051758639 0.6151611139279987 -0.12861815009174624 -0.231048328934215
Ni 0.6253076966281191 8.866745595661301 2.727433202839838 -1.03745529508751 0.5803216376513103 -0.3032078818176004
Ni 1.7209577733233425 4.6018451119368695 2.676798347214949 -0.648057093325071 -0.5161759562113368 -0.062255149285479885
Ni 3.855739390749648 5.752655159960293 13.62144935949284 -0.06954731207151893 0.14156853960482715 -0.25741422052225343
Ni 0.6624720702286867 1.6565125604412958 9.205111520301966 2.402537524266933 -0.9797535695006675 -3.0719232038664512
Ni 1.5289516741555191 7.431517091773002 6.800617838972698 -0.7068831623243439 -0.7443330796406858 -0.1368726767910546
Ni 6.861912417809297 1.3739292435746613 6.432949613266267 0.4290037319692031 0.5070559961879397 0.05893559799394367
Ni 8.158812638228271 3.0034484074245085 1.405280158991521 0.2925475738902768 -0.5183971322323717 0.5711523124472164
Ni 3.718478484044606 6.46687065957607 3.8282048154128 -0.05274849534662528 -0.7129247405327335 1.060587253119283
Ni 2.3253739105291586 1.001358575115792 11.894476824473225 -0.5775787847988504 0.5794801155866214 -0.1850870317127522
Ni 5.2843763749708 5.0786629110406185 8.178203316112729 -1.3354685200780485 -2.203980483092204 -1.2535009799653056
Ni 7.882034352886679 6.241354547782233 1.8672426951636036 -1.7999074529264099 0.949860638595977 -0.8163584209390522
Ni 3.646664626307384 3.089980828963935 5.837856169430588 -2.482577765449976 -2.1534436506849173 2.318201483922014
Ni 5.726654236500544 2.6709511823965797 11.827274221616783 1.3602017611586703 0.4063939649894872 -0.4379306021451877
P 4.184472708240372 4.490856654359682 11.759660585076553 -0.08833950507735754 -0.3085673463573009 -0.0932567398733168
P 3.050085281660376 4.2687392948942176 4.287605647350606 0.29653226956963774 1.2756705740838095 -1.254952881920484
P 9.351147387563895 7.18529948852454 10.59119294196752 0.08525135307033706 -0.495261831766489 -0.5597384141833198
P 9.041767296141337 6.3997476418292445 5.536375602359125 0.46624410437790026 0.13443424255289108 0.8265101646610733
P 3.439687163577394 8.612185600334106 10.22845805676197 -0.016546334394455374 -0.23143322307745948 -0.07643298344775869
P 6.359140510016164 0.2963740119202402 12.182389534798013 1.7804501155327466 1.4034659711639441 -0.5873122100365306
P 6.732666199790444 3.1212530955665847 2.8418999978550143 -1.0167023788108749 0.6690612063805639 0.4089900078514376
P 5.014442409056315 6.037841378059124 5.734749446591757 0.9444433242351477 -0.601237561868371 -1.6619263735625251
Ni 5.175166878667416 6.628390980283346 1.802082152590407 0.6640041035726306 -1.0648344584314113 0.1328715260514615
Ni 8.618720942276815 4.549646642981848 3.50538888489599 -0.4550592914056744 0.1659235714104239 -0.1629889142621322
Ni 2.1628611166901814 0.18876277187705764 5.728281517918371 -1.5721755899599377 0.281546851904399 -0.572977024360781
Ni 5.5678959872447 8.06604448927646 4.202505757784295 -0.5067189245634951 -1.1958367924846178 0.5419744053316795
Ni 5.2484413572399715 8.132811714768524 11.431389797517017 -1.6017854424065703 -1.8353765923672973 -0.06762232713466418
Ni 9.00353835466271 5.833092298398425 7.7946789276842665 2.037012529577666 0.6110103249844187 -0.654735276676195
Ni 1.0316851833571037 5.868540442517475 12.606969540539636 0.6403039317422133 2.037784374746684 -0.96369883003065
Ni 2.3617396241473294 0.49079668953421446 0.6977357641525066 -0.6980406243320494 0.48352397450427054 0.5748017362743456
Ni 6.003488699566573 2.3591273599610605 8.592011243193767 0.37405437231651706 0.7153199802377874 0.6978357074100949
Ni 2.2315664736752834 5.003113234628409 10.592494392583617 0.9575541505854928 -0.12064413074733416 -0.443931556923629
Ni 1.047302590750283 2.763195005920322 0.677000566063217 0.11463906220383482 -2.38598373367331 0.23601441469023868
Ni 7.718379278650838 1.5111995132337754 13.381607927967847 -1.0401341274712539 1.4345359530958712 -2.145025601824551
Ni 4.480847656456019 1.1169629690507954 10.492238689259908 0.874158619776972 -2.7166535683566053 0.1851055436555135
Ni 2.031976381708614 8.004735866008751 12.110486728997099 0.018644611684380794 -0.1421670924207745 -0.6723537610889067
Ni 8.747115131475057 8.01356513169926 8.478654894531607 1.0826761145985224 0.23527188009725933 0.21737520232249657
Ni 9.10224261649658 2.7164364132815106 10.888273856920245 -3.6524003932590197 -0.9362265927523102 1.8499994844867946
Ni 4.308297775851162 7.083879970009599 7.319698140169571 -3.0730871422675654 0.9370048656792315 -3.413160272542631
Ni 2.175716452631929 1.2655436872296706 3.2229703560210345 0.17484658493166663 1.090689214710986 -0.7407245363538211
Ni 2.7729980188343863 5.277635048038492 6.338655302800615 1.014101450852918 1.3148441589594775 -0.8471229558154184
Ni 7.861314135523906 7.45907226560881 4.1098827346206095 0.8507430690665091 0.20724274187418504 1.9560325501891733
Ni 6.3499273632086775 5.63853947572284 3.794329647577954 -1.20411497333301 -0.7260576783702657 0.5350385974437947
Ni 7.792318526962552 3.8315736062881394 12.987327377900726 -0.14276693078830252 0.8839573510349487 -1.814513889985675
Ni 5.170850556839924 7.343823663928567 9.062114867932019 0.11630590838329648 1.8911381635086335 4.455997400767345
Ni 6.941272816529074 7.0399489895007274 6.475403119622475 -0.33495252121904895 -0.25896253884597986 0.2976339872742487
P 3.3203937657377667 8.015400270697498 13.864647410052873 1.4647636416321612 -0.7535841659253086 -0.15900421858277133
P 1.7647857613374147 2.6478434117452805 10.596605665716918 3.6880037442849254 1.128653095549269 -0.4461542756065606
P 2.357910175931616 1.6021793379577107 7.365152473306063 -1.3163397696683976 1.2134712177369296 0.45841766635494596
P 5.527710188364889 3.152515999215161 6.604903073696698 1.62918131792102 0.5099214906611927 0.7270074438780447
P 5.291108338949035 9.262714286347721 5.989445204753006 0.7568571802496256 -0.12843483043634657 0.3307012021418627
P 0.4794225729267598 3.02826023571703 4.303843818598803 0.6371952109099027 -0.1592541298100483 0.693682861583986
P 8.521130871977588 0.9598057849413736 8.03293052960772 -2.085021967577409 -1.0199355410361919 -1.5755439922115382
P 9.537947684267326 1.6612221263398386 2.545928592959898 -0.680582319646286 -0.6010575846470809 -1.786731063445452
