# total energy = -381169.2335279237 ev
CRYSTAL
PRIMVEC
9.23681695368787 0.00000000000000 0.00000000000000

0.00000000000000 9.23681695368787 0.00000000000000

0.00000000000000 0.00000000000000 13.51901528348549

PRIMCOORD
 96 1
Ni 0.1221624435741531 0.7123904153233815 3.258082973988289 1.1131948520126698 0.3921886200233826 0.2234787441170732
Ni 1.6252179067015664 3.391953082789747 0.33125256955790233 -1.3874821941411781 -2.8465202461434718 1.8823035959361392
Ni 9.192526211076627 1.8629828065958831 8.701256875550458 1.2805854948869235 -0.011414926705160986 1.5795232885742603
Ni 3.8943158352295195 5.630781962836535 9.402704434073218 -0.40979502025123615 0.8434925581516828 -0.7690742911411078
Ni 5.595931453248668 8.592761226035728 11.423608172917387 -0.2816918621226955 0.9301243365093143 0.05896799389377586
Ni 6.184067286004616 2.6293707289427757 1.9392890734276667 -0.46405866669080725 0.4118629585238584 -0.5703763535131403
Ni 3.5481846012549374 1.7226755602031762 9.667149879142341 1.1195601321090654 -1.0734468826907706 2.4008585939026132
Ni 6.866474070484325 8.899072543012354 1.5295143247002843 0.7256159628471568 -1.2320278976931942 0.782141408737711
Ni 6.038153291846249 2.7810946808352446 6.62368157123441 -0.7089708980913081 -0.3434757281987117 -0.8183481976755712
Ni 0.27412470533870453 3.5467067105753567 2.8587310492786506 -1.137410272916609 -1.5222581363042043 -1.0167471160058812
Ni 1.0338491880840366 1.0187469927020698 6.069483650571688 -0.23039244051777094 0.5004207502596091 -0.8946464553176786
Ni 3.606755256250076 7.178216635708412 11.692785639206196 0.8555965405040684 -0.23701251693744987 -0.7437568954222417
Ni 7.019685149873123 7.246190370152384 4.886164293881543 0.4526357695658462 0.667357850536212 -0.07933087382084401
Ni 1.571431922781571 6.592029771286162 8.62580778531283 -0.0880667110319451 -0.13916635792123774 0.3955696206804736
Ni 1.2631716374712474 6.899634242607422 2.1325168140111397 -0.9574281665305898 -0.15597674461035715 -0.36264330226609803
Ni 2.8071147936126146 0.35559435273227363 3.222933191537808 -0.4744464376830345 -0.6008801785289523 -0.06843736683679182
Ni 9.017156008310863 6.2817558599249095 10.262892230489756 0.5217423945555207 -0.025893065716677988 0.08402262286955851
Ni 4.24637710555592 8.285526227384365 13.56862978944113 0.26323108431434666 1.7062385652163388 0.8018666550807803
Ni 2.419057648421673 4.825941172370299 7.051423775898797 -0.3448628383542254 -0.4413365425029432 0.3146696026002968
Ni 7.428654448180134 2.705186520805273 12.883539709696306 -1.0767517786942877 0.770212775620925 -0.36875789980426815
Ni 7.674270642309724 3.405845255177807 7.987196443759149 0.052498069898716034 1.763557453542466 -0.27233870304256974
Ni 4.877473373003934 4.590485476662827 3.20011271208173 0.33155866504615156 1.5366550284558245 -0.20536583656644633
Ni 7.662410569606088 0.04216606845179113 12.671805083077782 0.6057300504220859 -0.2307930183902993 -0.3782452704694131
Ni 1.5416986096717535 7.3094256176049495 6.187531092284883 -0.08305177431585696 0.13943503820159212 0.158729624765146
P 0.17324665859553995 5.505327517773615 3.6010866218122084 0.6387604985144935 0.8928536250833138 -0.6494940828819138
Ni 3.111421721355059 0.3100272883540971 11.975346329280281 -0.782145522502769 0.49600668035231354 -1.18175254647741
P 6.745194666591222 1.6081667429859026 8.945491241894638 -0.30150221198040333 0.3894349685376454 0.3623185719368276
Ni 5.8795756219272235 7.37246689190582 7.183977638313753 -0.21716257209105827 1.2359058925913617 -1.2500796129885825
P 5.284890886097384 4.6184360841403995 12.497585787678743 -0.31208641525415287 -1.1450521057325829 1.3050066040437653
P 1.470131753513051 1.8244652807593071 10.6540243119759 4.8792912268359645 -1.1382289121631624 -1.1341745395881306
P 3.1429746873641102 8.156321634722008 4.71693287952609 -0.7439805813972735 -1.1997901207054114 1.6310903620182746
Ni 6.673535442265046 6.03617661306231 8.72377992950727 -0.1267785257798462 -1.4018747154174245 2.255060589597471
Ni 0.26037570361022894 7.627689375452685 4.1598817061701014 -0.028915397482769552 0.32454983782848623 0.5379868814388412
Ni 8.129424024353636 2.975123253430715 5.09885862576012 0.38840524172155044 -1.5786254593503393 0.6031509768409999
Ni 8.451253193465861 6.054326957970912 7.321154527510773 0.43270123542544836 0.9937506551107077 0.45530328909568035
Ni 3.88038671557447 1.7543301311964485 5.395979310073103 -0.3711621383703866 -0.794998210095721 0.24419695050103102
Ni 3.117120837288193 1.2648157908522812 0.8350544180469174 -0.8914552020738906 0.3927342081142075 -0.8913513295061746
Ni 0.8748872665883202 8.902850401062032 8.117979608403632 -0.3747506270525933 -0.6947704382212099 -1.298735683433389
Ni 3.097326338998557 -0.0027377924839235256 6.6917227344406385 -0.09032619649008315 -1.8912003842051366 -0.2738212011253671
Ni 8.229708143779945 0.2321793968071758 5.192220674715942 -1.2474352333872 -1.5041043482133127 -1.8847032065165668
Ni 2.299708739228772 4.591021212034175 2.624446581934747 0.7619523353843457 -0.8006255835848276 -0.8596853658614614
Ni 8.886713682204359 2.0469432489367096 11.09633944242263 -5.415683510094176 -2.521724096632134 0.6047149788940102
Ni 0.6799128439579175 0.7251917196535759 12.789826661704085 1.262737153851593 0.4432512430271528 1.590005933273139
Ni 7.544751997877958 5.268089116433899 12.030003345019555 0.265067366192137 -0.18778206204641207 0.9247579299910783
Ni 3.8164402332323566 2.532873704382893 3.115781498859823 -1.0706811470201754 0.15537022137460985 -0.3044918907363466
Ni 0.5274102284136444 4.50920148928588 8.674678859041546 -1.3224409974701288 -0.5178289184337276 -0.4808389714729396
Ni 6.222206102354549 1.6151035923631851 11.090594142405758 0.007653917000831979 -0.13465741430729067 -0.6936180697843216
Ni 7.889045105319812 6.653694759891673 2.4646782863369845 -0.6583759587525758 0.4951232493060957 -0.09389077391288991
Ni 8.06119165904074 8.617137185432064 9.139881897706607 -1.5887283521122961 0.07097093189192294 0.5695991090274836
Ni 3.6487365883669196 6.974840404564592 7.505257216829508 -0.9721166217807 0.452239305458376 0.24348835446978068
Ni 7.864438225504791 1.1111243969926201 7.0739329746304875 -1.4005158873966848 -0.06737472990023234 1.180073101892458
Ni 7.397905085228105 4.43723745000704 3.3719535271683188 -0.8268089268484148 0.3228922476204052 -0.4631076156314476
Ni 5.654151109207407 0.8522570655572385 0.09127729941593754 0.6088621682931643 1.8523337890469258 -3.1620010317911547
Ni 0.5287828193823051 8.927743622196223 10.762041494383116 -1.444692581913899 1.090157253466916 -2.3843222868104874
Ni 2.264128521117863 3.758996469880398 9.812601108781665 0.5928012581755596 -0.6221316317085609 -0.44079558239780864
Ni 8.635814028895268 1.9559606039750135 1.1339143949534318 0.42830207791648817 -0.5488665044658225 0.7118880717381031
P 0.640177905674037 3.169216483743418 6.840080790310361 -0.007781443717631761 -0.5657118581579353 0.5659759104525995
Ni 4.881500625105791 0.563252772120179 2.0327462615959857 -0.37616396246035216 0.3438256553389627 2.093071063134131
P 5.664653369849178 6.571616406274451 2.421850861806081 0.09839997463715311 -0.7766862991604108 -1.015961129769476
Ni 4.325989229101592 3.312193170176118 8.08779092022817 -1.0455349867718509 0.18986208450389236 0.10561474721803747
P 2.1795008060783645 5.9352921005474215 10.831799781822681 -1.9147527176037797 -0.63779376372585 -0.8315474699746647
P 7.335048547262182 1.2442823472228548 3.011712131930438 -0.2852921778794441 0.02433806252473228 0.9332399993201604
P 1.6511548881282103 1.944220609889093 2.29944918467817 -0.1262445076532471 1.2292531631615344 -0.4330668462949832
Ni 1.4453216637295874 7.699182337077409 12.193300104614817 -0.09911911219136478 -1.8296602587088102 2.2762253966005446
Ni 3.260836469060683 6.644300917259587 2.92609607749897 2.3594473779456786 0.7882552349449329 0.13979242154101085
Ni 6.57810988844786 5.080452421027616 5.51058049545785 -0.22377724919409844 -1.3387273933349781 1.1026345599983203
Ni 4.817360169611982 8.074040071136343 9.296972440129304 0.325869070860542 -0.12625659183810514 -0.19135563833028335
Ni 5.000396930278071 0.8364778115076887 7.668093059269076 0.415137258399756 0.8008197018735047 1.8122315217094014
Ni 4.251919195604349 2.2552611770403774 12.293069733348297 0.11736391733416562 1.1723392235833099 0.49411820508034904
Ni 6.341748984699145 7.264978055416555 13.222921601673578 -0.9912607988093186 -0.7537685140219729 0.6144458330285288
Ni 5.614802269863566 0.10662149939668572 5.638699762152389 0.6584014126738725 -0.2804824151956266 -0.6515445376530392
Ni 0.3215677671982741 3.967887080622404 11.444130532366717 0.5684922491165499 3.235615057732879 0.5102914724061017
Ni -0.020174131457953347 4.939323097944391 5.599022092132342 0.42811284472381755 0.7647322121223282 0.3682961296765012
Ni 4.685966451380498 3.8064367606949436 10.43002781112523 0.9637628504993662 -0.7733891164663778 1.292405113229671
Ni 2.6432351908805933 4.147358430024004 12.067721886207483 1.9137049930655559 0.8585887903631729 -0.3338523461763347
Ni 3.974685377748476 3.7828459307221345 0.9732362729060522 0.6001206746551084 -0.2150180149442297 -1.0608261086029667
Ni 4.185109300070547 6.190782451779961 0.6017342743714401 0.5712140189230872 -1.7736526329949391 0.35767361696564853
Ni 6.70835824140267 4.764174578780567 0.9447711747356503 -0.3163852997398228 0.785768463967337 -0.34632348206015195
Ni 4.045171526347735 3.9551310366942722 5.437496953989228 0.2569910169419058 0.7376248143825748 0.000744591475508395
Ni 7.166836877475639 3.7485681037726057 10.3161572579452 0.2886554379247222 -0.17597761321231628 -0.4475411286517583
Ni 5.61704681633318 6.1770750157268495 11.109128738891053 -0.15828430969761126 0.016864379855506442 -1.607773284558889
Ni 4.983188740677701 8.200270408806045 3.607562554033797 1.0768949891403712 -0.04282660824722302 0.9264098637722045
Ni 2.1684720468819925 1.6453726408443503 7.99463208124079 0.2583015082232132 1.5260178604569525 -0.537414553875139
Ni 4.461142331749261 6.2927846191212815 5.424126661747395 0.4392536918319854 0.971434765222327 -1.1315342737518062
Ni 2.32936815780461 5.539152740702523 4.720948123766176 -0.91876674540465 0.2540087943851303 0.5191656349672802
Ni 5.876176473364188 2.7273271705487434 4.349188418044312 0.5608928395027373 -1.0006013594839542 -0.7415290345329875
Ni 2.547209243974827 8.56426564637006 9.554753521915194 1.2913365627558406 0.22780796762004635 0.6900547779130954
Ni 1.707444049386746 5.584071380545033 0.31288700681908604 -0.12611235295075698 1.3621450009279703 -0.764467902717348
P 2.279101401065366 8.396903763724275 0.7640583971632028 -1.5806417184494197 -0.27872069530951354 -0.277717965076612
Ni 8.463750606525066 6.847787990204376 0.08036861883728137 1.7398863351777711 -1.4663842079547196 -0.5095373678488967
P 7.859505765361689 8.080080949289131 7.056749724435336 0.8414765561629185 0.8208311119984251 -1.6199664841909716
Ni 9.093017984257099 8.496088701957646 1.364554938090494 1.1726266729167418 2.2126008777713637 -0.25033854462239463
P 5.16001836048955 5.134617114434254 7.316936996983919 -0.039970369745350516 0.16135497820313502 -0.38712791767102356
P 7.474053402493508 7.4992329649468665 11.057594690894067 -0.03137465765653951 0.28823814788164553 0.9127115403495055
P 8.78995802677555 4.22871631193493 0.3119901119129154 0.22880889808073496 0.4374045544383886 -0.6049342939936678
Ni 1.5304666405069391 3.2387327665842016 4.84159203466706 1.309980403109273 -0.8333562410486294 0.12341577995520034
