# total energy = -381176.37928059296 ev
CRYSTAL
PRIMVEC
9.18893396359644 0.00000000000000 0.00000000000000
0.00000000000000 9.18893396359644 0.00000000000000
0.00000000000000 0.00000000000000 13.44893368740358
PRIMCOORD
 96 1
Ni 3.9064091891690618 7.070825445290027 5.31442227890119 1.0177912409996794 0.5640059312104222 -0.3307821918914432
Ni 6.841440865162333 4.593799448774562 9.755525572159062 -1.6511596219643243 -0.5550122123522442 1.4819159850417316
Ni 4.9703334505769865 7.723932658412956 3.3860455272898577 0.7318238914300815 1.4496177871296583 -1.824373299278258
Ni 0.15232269383512642 3.1518510182633874 2.2076938944493434 -0.7377716243730843 0.07113368272203234 -0.11939226061810405
Ni 8.37092282675163 0.1328944076865238 0.9769362051504134 0.8200962907149296 -0.19751523017377595 -1.1744860947229836
Ni 1.2262145187441291 1.3061408377371733 0.9503459173942628 -0.08479909602426686 0.3120661035391787 0.8166895790262257
Ni 8.473459215037447 2.329674206441858 12.882663729494066 0.163566384032157 -0.18395651765273482 0.880575064826277
Ni 6.6958092064791845 0.6765083588840402 8.631026009972578 0.46920164434432743 1.3989889092291972 -1.6518985570128777
Ni 1.7243995239627126 9.148716569273882 9.22125828142061 0.47093611053693085 -0.8894440851811327 0.26914462158530417
Ni 4.323600842018702 2.2592592021960582 5.410239116487913 -0.05580322301254905 0.40845239018041274 -0.7875273556399728
Ni 5.2418014591076245 3.0172208416283097 3.277937569040399 -0.6060565805235691 2.3561327117501487 -0.3439377554367948
Ni 5.057167890822623 2.936990970036949 10.148375986049166 0.3389359313468292 -0.5528499145936028 -0.3357253948293315
Ni 4.479387714900068 5.162721407964432 11.347474059200064 -0.5583474473730643 -1.7608451968176255 -0.9283806143453303
Ni 2.4301409179209723 0.8727348768556494 7.134569651223736 0.20023005800177773 -0.5672583767094489 -1.1658957819508116
Ni 5.941103858556145 7.5465199625424475 8.446824774176088 -0.8374522654948737 2.4707815441459964 1.3903903689269088
Ni 5.564615849571648 9.191977413815748 6.334044418369387 -0.888878956706282 -0.5007531938983634 0.13454634265072313
Ni -0.08532219639220617 6.7710074637893625 2.987297914285189 0.4501176311296829 -0.26747186186857164 -0.8391160263505419
Ni 8.939246879308453 0.08359654586359586 11.83913084384213 -0.06731019521088408 0.5795130257070858 1.0347152704485276
Ni 6.807075031607491 4.185732771001582 1.0072105176224937 -0.1681257212680653 -0.33060401444236615 1.1590916145447845
Ni 4.614588202477437 5.589571552578683 8.829430747801196 -0.44074236056236993 -0.378165052050781 -0.01801469140986575
Ni 6.235209532070312 4.020241413537679 7.575524873239751 -0.7120443948103091 0.005573380322719433 -0.5610807871438273
Ni 0.2486877658115367 3.50136883881566 5.407613846440657 0.15729032121545813 1.8751998950118223 -0.8892497097821396
Ni 0.09351811654674665 0.8540636324901205 3.023311210578165 0.7083034397106381 0.11717545547244335 1.152624775873518
Ni 0.6189557060996255 7.361270090497228 7.730658648106558 0.9909579228569192 -0.19888999903411553 -0.5993889386954064
P 2.100317222004919 8.15964101975989 5.714476087934977 -0.7095630231493522 1.6383804679217848 0.7632486855982662
Ni 2.838124808621684 3.146727418346351 1.7514322626273184 -0.10153877737645092 -0.4176939633833387 -0.9642282201715588
P 7.917047302323643 7.206669832318371 0.4798881423909781 -0.4500816356854248 1.0928155170253697 0.8113272862730477
Ni 4.259689222227739 5.18141288916985 0.23227476880620948 -0.618585052007883 -1.6744813274094 -0.42772435103614725
P 1.748766518900286 8.721756041896606 11.573949133665714 0.7369882092398404 -0.8430459575325675 -0.5900722892801709
P 0.13298179404058458 4.887141641511146 6.970388169214386 0.5153601451782609 1.4442765774224031 1.3343714303591279
P 9.07247887427856 0.5322583244514105 7.820673031783647 0.48977278362745974 -0.1268705712730202 0.1686538258573934
Ni 1.776536982364436 6.062754861972303 5.5320796103139305 -1.5076051622777198 -1.145492535704111 0.18723441707305816
Ni 0.423851412885428 4.229858280520473 9.633900324720942 -0.36309993018754244 0.8980544525579631 0.010094922342156809
Ni 4.010803687299117 5.051639554107832 2.4156311037214526 1.3898977455612063 0.6297197284684638 0.0002002889362641712
Ni 5.944378547192527 1.2111288744641668 12.503800651391833 -0.4219550526525378 0.9157968641430485 1.3967906160262977
Ni 1.4275802741908694 7.960142572720975 1.1593078466497793 -0.6596357993016059 0.8174390555977405 0.23208602617010998
Ni 0.7562497867490189 2.586544094562557 7.871859358710646 -0.45967236469765355 -0.015408364135270239 -0.8813679930412176
Ni 1.6744053308763742 4.589586506652475 11.857184864591082 1.9103116511132907 0.186246342128176 -0.1030403016226419
Ni 0.16404718298100443 1.4320875703476874 10.036875597549432 -1.735189443922734 -0.31456290181910346 -0.13295920066926134
Ni 8.986564290391456 5.482288705482829 0.90997526153091 -1.2490989942428683 -0.024667163729376874 1.1034573130099319
Ni 5.9497137140720255 9.176045501685934 10.569136681569919 -0.7522279090077303 -0.7053734105480368 0.1971010254544928
Ni 6.110633385434014 6.2951749680831615 1.8563768348597778 0.6941983677678238 0.6726021296542868 -0.08683052463199885
Ni 3.020651905845642 6.75833184316876 12.000942775871895 -0.7216513217724538 1.1684177770417168 0.8125925261387166
Ni 7.436781098969307 7.570206263774705 11.916368422699177 0.40481350787624476 1.251199842635955 -0.5443840432144367
Ni 6.443639784350596 3.6106201785187766 12.330342418006664 -0.967749860171572 0.09573322643826739 -1.775908004688019
Ni 6.6059300416868 3.962106491678312 5.111306036804159 0.08846831734573796 -2.0753142533713422 1.5935864515355458
Ni 3.4068627965398472 0.8161563519549226 11.143724955928361 1.1584920332875726 -0.5482419835079462 -1.0682224010670378
Ni 2.19103345608357 2.139760662658869 3.9819054799394045 0.4683025295688257 0.3288852319790465 -0.6372854566308637
Ni 2.3013610277261725 5.298243845267288 7.817603471115218 -1.0815093479839308 0.14057377979172564 0.19866477039718686
Ni 7.656065656280296 4.8981983149407275 3.2912386919848045 1.4254612444881127 -1.3679698351398635 -2.2954027408599433
Ni 4.030129869391923 5.037777318784721 6.153855596008822 0.8595089881845972 -1.7406995751076861 0.4301216476237302
Ni 1.6893254010118004 6.3794982004700005 9.883962355932129 -0.07322836046753195 0.6714243072961017 0.4545075326672624
Ni 3.764898486972147 7.702775962166667 7.5283638377376985 -1.0635648476903685 0.016732482263332474 -0.4645255790248968
Ni 7.087300072671376 1.9358101108446475 2.084278606537515 0.19722032464117648 -0.1933130191669703 -0.2804577326052783
Ni 7.485919825642209 8.609358793447301 3.083908587909328 -0.7814592950690219 -0.2251602455845542 -0.6034417686085414
Ni 7.601876918199041 6.069975734386798 8.069523612170645 3.135412482669348 -0.8613596682400907 0.24822561204444993
P 8.065217764556346 6.109952691728698 10.276625119125091 2.1240495137935165 1.4424143274026837 1.060037037042768
Ni 8.6472660739825 4.601195093897178 11.960136108094597 -1.3286692377680278 0.3540596743621451 -0.238918218600595
P 6.667008503893475 7.8334691535872185 4.880428529806563 -0.10725871057936368 -0.6199562213237968 0.582724590665848
Ni 7.780614207225838 2.8139969763373296 8.958608015942882 -0.5843153321917356 -1.3711567175082773 -0.44618435751354774
P 2.667169504388087 9.410498490349152 2.2895086785464582 -0.11849314584260238 0.006731405186562601 0.25183338400036626
P 1.0011900577558868 3.9002369530032968 0.33884564708055764 0.9900449241243465 -2.3630440941580013 -0.5064319894506956
P 8.06400355416308 2.3185255473764226 4.374635392646542 -0.6009830226554037 -0.5959626866226768 -1.6898701511606444
Ni 5.773220874560052 5.780782093827204 4.1719367653362855 -1.0021288518720741 0.29086530109184744 0.43956582375576553
Ni 3.7517721367358625 7.846641496641429 9.760506594340525 0.5630548801510625 -0.09643153805687263 1.5963668424941604
Ni 6.213454929190976 8.754328155552306 0.8637524795145622 -0.9787310417734241 -0.7812559208089641 0.6004829430905336
Ni 3.808334104222136 0.09587662825002856 4.566901009138303 -1.6648121797507522 0.8224334234885384 -0.22445062111203926
Ni 2.711285815343391 6.6305086035868355 3.3057788614441557 -0.2327380579318121 2.9231105811047016 -0.3844352013302089
Ni 1.4165236007612874 4.855654958358517 3.2579720867784125 -1.0744400998419754 -1.5367468168386824 -0.031008532566372402
Ni 6.215359031853142 1.1734791537093585 4.253684399919227 0.24798469967823744 -0.6038842554625986 0.6308433005499458
Ni 4.764304023392477 8.347098547065592 12.54768975782658 0.40769597163036236 -0.8031882021056813 -1.5235619427172922
Ni 5.89779702119635 6.658361854123254 10.612285303636044 -0.4444028401330927 1.006267556630796 -0.6155784039710753
Ni 4.325431356172184 0.8707415481267057 8.667874535839102 -0.5827014507373964 -0.2581199883400264 0.3049400340173587
Ni 6.0432447086077925 6.163065197870468 12.986113535143907 0.8190624501337765 0.1001256990790082 -0.3128559464303257
Ni 0.5328773877807041 6.830080639134434 12.202524697562891 0.34191995367581757 0.46509404993385706 0.3101287773071497
Ni 3.6109789224986053 3.3384898734099937 8.190583147948267 1.6102873092299947 -0.7999768942572352 0.1702957323361906
Ni 9.0986855819332 8.088591314626703 4.8340613303419255 1.3155519836597798 0.6634479739588445 0.5611170396984013
Ni 4.705699974790258 1.042942337869758 2.315304210408835 -0.5146718608619846 -0.9789218176279914 -1.124014054115361
Ni 3.8764862618259412 7.600598317860679 1.069691760775935 -0.05572866102087177 -0.16573305266617264 0.8634016383707841
Ni 2.114289840091055 5.793457714447807 0.8976087126467751 0.489369377541454 -0.8471489239573475 -0.08629599228476752
Ni 1.7137475873308856 2.015156920331815 12.312867906763588 -1.0418549668171024 0.7542871055296042 -0.9596668260531214
Ni 7.490712277270172 1.727499439890973 6.504433091086127 0.43745571939129824 0.3474221144409694 0.11458249793428653
Ni 2.4444906771141075 3.2229283190873317 6.307038355539178 -1.2888346222695932 0.40449134865013564 -1.6499296062119646
Ni 8.113041096636543 8.302789066274995 9.480597064007616 1.0228879387962966 -1.1249622769612433 0.4490984458365491
Ni 7.758740023019893 8.252380937827317 6.829403624854552 -0.45887506560733876 0.1582668261961145 0.23708013695059169
Ni 5.970815218936802 6.320783769104756 6.639601383690946 -1.1952343830139287 0.0799458816970236 -2.6705565168882264
Ni 3.9956812487648143 2.959233096786308 12.230487411005974 -0.6392461799016603 -0.017350318352989474 0.6196482031650749
Ni 3.344855279411051 0.8344127411027527 0.02471562049745771 0.9700980486887743 -0.4056185202760434 1.4997632976357977
P 5.072925030244315 2.7899427325616584 0.6293537623764971 0.0448292404995486 -0.18203487514998973 1.0464294735616624
Ni 0.5224600145203034 1.2898869758818723 5.499337323231903 0.3768193366561639 -1.8835320690266013 0.630587732895714
P 3.3129086680791553 4.353440982289554 4.215583949548737 -0.45938362981264114 -1.440953940807073 1.5681592697116928
Ni 2.084219735730569 2.412718838490333 9.821911605554481 1.9707449166986832 -0.06856257956074643 0.4959051217774427
P 7.384735626203438 1.8007016089031316 10.990825512156432 -0.2901811305406293 0.472855953267463 -0.30466929685447525
P 2.7913041199722888 4.3844769358265 9.95773943516837 0.865947030500457 1.4584657244385915 -0.2731516858621683
P 5.422139298198271 2.0867677378437093 7.144788335510694 0.07825846669227167 -0.1927430055961132 1.6638390172042055
Ni 8.10601339405734 5.915945787150232 5.236780883102745 0.5200716917213173 0.4724808293162314 1.5078928687214674
