# total energy = -340857.92388929595 ev
CRYSTAL
PRIMVEC
9.45917598308851 0.00000000000000 0.00000000000000
0.00000000000000 9.45917598308851 0.00000000000000
0.00000000000000 0.00000000000000 13.84446019941277
PRIMCOORD
 96 1
Ni 5.812256877923351 2.73920709052513 2.7026322407892196 -1.3081577480782374 -1.3876428880887586 -0.7866542090064
Ni 9.2391933560369 2.9819863005085474 0.021626513979002854 0.11812984896591269 0.3606422126756692 0.24584939850278947
Ni 0.5776151203314659 2.1102286447744345 7.409125638690497 0.43957456550651397 -1.1163753066231805 -0.25490765205031585
Ni 4.087801805998356 1.7921638533892392 8.75585973425397 1.0232255246413733 -0.5258818706451912 -0.4473130718013522
Ni 2.861693959927268 2.654206935420673 5.344902642076094 -0.03606229294019596 -0.2166846040133752 0.1333952597654154
Ni 1.6906763546004884 7.857529361435566 4.150569113945289 -3.3387713161080947 -0.6424194354233195 0.13549019462123119
Ni 6.3247550310014145 5.482670810228649 13.519696548611316 -0.529294752981482 1.3170051711665383 0.48532117561400934
Ni 5.363229795483048 4.684883910438989 11.600384343910806 0.8348425957861687 1.1299877552002928 -2.3450350591750904
Ni 6.2643014374923345 7.72945211904581 9.096087374894646 -0.33962241589089254 -1.5635060872103974 -1.0685540733748438
Ni 0.31815559947433386 5.932747861199622 8.628199641523697 0.1602074948622531 -0.08276098254831553 0.21712760508806475
Ni 4.376779631331225 0.8635310104086797 12.519614765995103 -3.1599451777033902 0.8399223243019212 -0.869802142580489
Ni 1.2047963226512863 3.5927085366719296 2.053382780973439 -1.065837959995261 -0.047059158271331857 0.4222188478368858
Ni 6.606392535795549 7.230887332145008 1.7105387322644474 -0.877255770645057 0.4039452463386785 -0.9715936593976944
Ni -0.08228158793585892 7.368537260598163 1.510998361475108 -0.1592271332268548 0.9454213718777008 1.0244503981874098
Ni 3.591932884243868 3.2353408692062744 11.00977893724449 -0.10325087497155121 0.07453036710840713 0.911884673572836
Ni 4.453077344559864 4.362146286133518 0.8904177721345764 -0.5626676720149729 -0.30724811332524504 0.5755748669949442
Ni 1.7553771181120044 0.5170177473479168 12.700602854989832 0.6221588854020705 1.8155952959753119 -0.49724800895858234
Ni 2.07555130573449 4.839758998300693 4.411107926778541 1.0197403943062502 -0.381426239300556 1.4013535528066319
Ni 1.0371608064303666 7.703306956714549 13.178929734941379 -0.18491271091841704 -0.26049800165389975 -0.06093720180500473
Ni 7.879048986726311 4.05713515756205 11.856755443819617 0.17089891313782826 -0.5627543181915082 0.021755132288904466
Ni 7.893124240542852 6.679682231071459 3.5095018413279675 -0.11106240059617 2.3976313452145677 1.4774913736114748
Ni 7.04066330375077 8.862245194350654 7.067403448249411 -1.4397056702222688 0.6588580405953168 0.6288113577215815
Ni 4.761976194447594 9.258319809811796 9.939533717004494 -2.14929466151355 0.12804530830741173 -0.8697327227951344
Ni 1.9102332876218047 5.910424205952959 1.0497121870010435 -0.2907215764251316 -1.187503075807942 -1.0662477938391701
P 2.9797160982800732 1.217566210186454 10.60621360034698 -0.8198445797154396 -0.8119626058642017 0.2745483090993788
P 4.383561860488792 9.247980930496286 7.581890866030173 0.9562156342797274 -0.5035765222797715 -0.22389320594667247
P 4.11869547465751 3.8521642738586808 8.392428735003097 -2.694035059626141 1.574789630544017 -1.9322189927093434
P 2.9735865522631926 8.636974919054344 13.739145647026781 1.722034908818647 -1.075683228220457 -1.144176645106165
P 8.829374557917538 3.35145225401678 4.293305241307822 -1.3995077578471444 -0.29616408759694157 -0.48320721459480004
P 1.2030842118039786 4.23793784670812 7.044739262668476 -0.9317667572087437 -1.474254868952048 0.06851501415226266
P 5.1326434633017275 3.2663007520970915 13.053374308860421 0.5868530110119248 -2.0964590057697574 0.6553117180049554
P 2.4352743080121875 4.643112189435063 12.687409196372014 -0.9088669697924348 -0.6049579481427517 0.36353958882812226
Ni 4.780658066952747 6.969208688609542 7.188016454895462 1.0462109297929532 0.3612860169072552 0.25867740350539326
Ni 2.061249031695102 8.312165735215391 1.7607660106518452 0.14203288083575538 -0.10755927253891799 0.2873189785014858
Ni 3.8432726484638233 0.6947575553207374 1.2253085457031463 0.10447677695885232 0.7819046101365565 0.07995153812397843
Ni 9.380040485961825 5.372821399898351 4.731843043534979 -1.6194229529826756 -0.6484072775756381 1.4544884849583983
Ni 0.36687035562701054 0.7544941432926565 9.95815410486596 1.6912729450454422 2.632359179882899 -2.558929502037838
Ni 4.672341043126669 8.375173306231504 2.6365665181878333 1.3568377297824439 -0.15748289684223843 0.34834385492429043
Ni 3.2475810428881315 3.4597503594909544 3.061840663895129 1.8407702525790426 -0.8126583463796455 -0.5898051516617133
Ni 2.2335006257805863 8.120712013947395 10.886868296759706 1.3811642223429506 -0.11945499553523943 -1.4283671052809983
Ni 6.0950862388874345 2.123916072376944 11.044971801373817 0.12356618949013558 0.7810995977367581 -0.07629080144293958
Ni 8.2755871018091 4.776637917173157 2.5293136516563526 1.1939326334833695 -2.3407616286107173 0.5758414903927696
Ni 7.750621754826333 7.676887478280679 13.413080284621405 0.34264963275299054 0.9382014570904939 -0.3169889947620928
Ni 4.781216158333913 5.018556342144945 5.395781657686583 -3.3933527508984005 -0.06334503991554896 -1.0722250944685277
Ni 0.9528890078742118 6.34963266375511 6.515368777444873 1.6792309262792435 1.054638491735016 -0.4871078352007869
Ni 2.133554972672007 3.3313893418226392 9.137441000321495 -1.1341999935094271 0.4309883664993997 -0.4824446253971627
Ni 2.3451756570696154 0.1781314178572323 8.450824957742622 -0.15004443828632225 0.4638501502244269 0.7902928342002519
Ni 3.180392516101245 6.956344209314855 5.470223480593445 1.5761438305790663 -2.6053456274085325 -0.10270168733630054
Ni 6.71152181732581 8.610943266834507 4.307537517445165 -1.4798102515526386 -0.37332546457029253 1.9524746576345855
Ni 6.877747916329886 1.9417512618937887 8.629764189226153 0.4634261753131309 -0.4140663939330804 0.07199191695726957
Ni 8.348980848020481 7.289732865742251 6.074935356356941 0.19209945847484333 -0.12599151110217657 -1.0432508187233647
Ni 7.755985107591103 4.7513535398535245 9.4431539997486 -0.2713843095491003 0.8919475683292767 0.4353229893190116
Ni 1.0171546492919372 2.9582153913412315 11.709035276647988 0.40115868473247684 0.37862013731032856 -0.30815596985149507
Ni 5.019890085954173 1.4013674581093007 6.1955341742390635 0.028450542031209065 -0.25713808404273136 0.5847045972103543
Ni 6.4066714947455266 1.263774284711857 13.3516665847532 1.987599783472493 1.5236694148294339 -0.4000893629276981
Ni 0.5814318978280882 1.723272674930998 4.642684634682033 0.7518836382944342 -1.294024651110965 -0.08939211471158799
P 6.027746365285317 9.36867055646755 11.5017837856226 2.292782272517961 -0.757484015200347 1.6251372297586335
P 1.883671921548656 7.593060260994267 8.458273112887209 -1.2493095675917774 -0.5407569879848106 -0.2514443760920637
P 5.550057979710527 6.666628568257733 3.873776599073756 -0.50032639077359 1.7408906080725697 1.115350464903092
P 9.816165252403632 8.832723106204536 11.370095029854378 -1.9075443727807986 -2.424241491602928 1.900290776542179
P 5.84920441919177 3.7442256170706822 9.380563578391968 2.184746317452941 -0.6208291108470534 2.4219562951131772
P 4.769628667792743 1.195857401376669 4.0166101559485945 0.6084862730109842 0.8802657611159743 0.07939875094430197
P 0.7387020490408325 5.7815618519591885 2.8501452520075006 1.6074207863154768 0.16121048220547074 -0.5350951617133429
P 4.806396484718073 6.66996765736878 10.703830404336182 -0.1998629044703461 1.04354135338059 -0.7353871833013078
Ni 9.259265727406994 0.7656039454482524 0.6589990324694822 0.44570047589859374 -1.002136565181558 1.3388248381447911
Ni 2.7563944132298706 8.924401439531088 6.037984031418141 -0.33011499062108957 2.7129167270219923 1.4009192934826906
Ni 6.680987597352831 2.4466536966824144 4.767616701067757 1.2562682582977975 -0.06626195645202783 1.2751512112452297
Ni 4.011021674796167 6.779400863957191 0.8525753928211011 0.7945696071987347 -0.4105259848799897 1.30272037911275
Ni 2.5086112991678577 2.7473230634919252 13.970445201074881 0.06295191824218836 0.19510482096007042 -0.07062537562704611
Ni 7.134148339684149 3.693344709625003 0.9512487867641393 -0.9019828410780918 -1.1559247867810285 -1.5057861067911098
Ni 3.2416690579181457 6.065214161231094 9.164035473510475 0.20187427847342007 0.1648881881673741 1.1420236033189042
Ni 8.490887405652026 3.8617653374499366 7.408544845287046 0.5080774954739186 0.6146682334519802 -0.6726751489840673
Ni 3.022802644741324 0.018317694231001633 3.6833879810179524 -0.39742004362565103 2.7942162945334332 -0.013609877473950755
Ni 7.723142848685842 9.216141344241935 10.112713256250867 -0.23532150238827215 0.16920429904422474 0.5044589248847248
Ni 0.19006322240305487 5.351944998572341 12.99373231264802 -0.27793702306595364 -0.05203989931537489 0.23300133889552777
Ni 3.0760388869990454 5.178009671167404 7.007761452037011 0.41991745339721875 -0.5729528559910649 -0.22556056634676638
Ni 8.107128637280358 1.9753691732271115 2.661292804126299 0.6470903585364275 1.994357671021617 -0.25361978647682776
Ni 6.9666168743987 6.890224569410543 11.238434651614014 0.028421745675802662 -0.498942880162502 0.23452214641542835
Ni 5.215799079095549 8.251135131973241 13.47619758207856 1.3631970963415685 0.503683480171281 -0.9884590676944653
Ni 7.942548434891926 9.248974143971244 2.664768105371054 1.189604181311345 -0.8275769153626908 -1.7059174344314945
Ni 6.829619629086232 5.136181195107767 5.37714708106119 4.086972620454935 1.3091213975430873 -1.5287954232020897
Ni 6.231780790569441 3.865681436294054 7.050097885845271 -1.704321550699284 -1.0710146191001941 1.1193583005109047
Ni 5.886133042108284 4.993905729614095 2.791043374741959 -0.34262957814833245 -0.2272461815793054 -0.5167423702377681
Ni 3.431363372459074 6.62324878734197 12.429570032355457 0.048454238846645584 -0.48917243103929947 -0.39680297886694244
Ni 1.3365531844863607 5.444124668224347 10.87793883466104 1.3642342793568312 -0.39020295705192154 -0.0994312441151449
Ni 9.451164029944731 8.99319802622981 7.838498445337785 -0.014577383593542636 -0.24256275733171775 -0.39210711605316984
Ni 3.0790847416555818 6.523416644344815 3.1506528669082328 1.9608785654275644 -1.4969952479723574 -0.947159180504414
Ni 8.95800989168846 1.1144895698377708 12.227260960764973 -1.8442893214758944 0.9096411289542979 -0.40116999758638655
P 8.159144645840275 5.902525794033059 0.7077866242769891 -0.7328405056200541 -1.3225047608285287 -1.6577922967894934
P 9.029029384735896 6.557602106235256 10.522371248379045 -1.3788394308645158 -0.16069214780815552 0.8775162233952951
P 1.6949708204826852 0.974191072118062 2.018175728080184 -0.46621042292648746 1.7272344507417157 -0.5019515850818388
P 9.233442177058098 8.578101007929245 4.5168794863559425 -1.8185937164820034 0.8656228143918189 -0.43826433133552256
P 6.191002283040472 9.614401029347983 1.1814463468138332 0.36930091679193167 -1.76027441191582 2.359348647584285
P 7.892131027067894 1.3182023831395273 6.772349994202588 0.6204997525320928 0.935804417613227 -0.30267386369100135
P 8.726184407457431 2.61517837544282 10.25400969703351 -0.6203190039798542 0.6330459646282194 0.5826320309520417
P 7.131291668546652 6.187719948985137 7.429186659049448 -0.637771652238663 -0.6856389082335869 0.7236835217111343
