# total energy = -340867.64976606244 ev
CRYSTAL
PRIMVEC
9.27659351510352 0.00000000000000 0.00000000000000

0.00000000000000 9.27659351510352 0.00000000000000

0.00000000000000 0.00000000000000 13.57723230179716

PRIMCOORD
 96 1
Ni 1.8869704188370946 5.016021035793149 13.36495232235569 -1.1326506467444364 0.9439301320441551 1.1579461880864315
Ni 4.23374446666402 8.812661697543078 4.714856430717999 0.8868228455082018 -0.8440875114232044 -0.7629306401372151
Ni 1.958641379527395 0.9361567006241728 1.210232725281027 0.623381702065578 1.9481202373206319 -0.3001634385643218
Ni 3.7508142903015615 0.07844101856135677 10.749977116478844 0.17380374548944905 1.4957199808043593 0.4943411197244325
Ni 6.577438685478625 5.198871968509498 10.338777271004513 -1.524421205393794 -0.030779961495334084 1.1448029658362542
Ni 3.027750216912296 7.050006907001443 10.961103105910702 1.2691407433850916 0.2587555650414963 -1.0734602524272092
Ni 8.106434641194053 5.336694316810791 5.046820253575684 -0.618238981522374 -0.45153430897155145 -2.62238458516869
Ni 0.35406716197712257 5.946454078282981 6.345332752389352 2.109169254247574 0.2472691616684516 2.1111274064152092
Ni 7.4517854442079665 9.188734794408827 1.9899879163211553 -2.5897660278027206 2.5465743229065954 1.5869753739769312
Ni 4.245414421174555 1.5298586789026127 8.1147724433515 -0.534387337013041 -0.5363786564114569 0.02198087514646537
Ni 4.488563211059808 3.1128629614545567 11.247012353122118 1.3939888849114443 -1.7554229973607898 0.2619614735733037
Ni 1.9069243712632964 8.073929457883308 0.9546978278739402 0.012026335036914772 -1.3339855077746186 -0.01171677421629595
Ni 3.857188986940919 7.167893856063355 2.806210323717696 -1.0104193740156404 1.2926938481146835 1.4619048320271275
Ni 9.267066349167939 5.6696961904711225 1.8264638383164518 0.08239048658277423 0.0393083106813194 0.13644047434964243
Ni 8.754710818507055 3.6906834118140486 7.420052073468984 0.7838715040549403 0.21491259971461696 -0.8260946743902096
Ni 6.540675545792414 6.680900531787054 -0.606768987756612 1.4165073777289348 -0.9884958344696717 0.9274084802400478
Ni -0.0689260167001037 1.6090344036620892 8.789913635181602 -0.15734020061678708 -1.0645894323001408 0.865431010095987
Ni 8.64451416538253 7.869130105157478 0.8015941472473643 2.122809470738828 -2.518517930990011 -0.6662350497856784
Ni 5.958736287958617 4.404396679045428 4.436903717674856 -2.0953020093471784 0.07567913600086966 1.5413892007067003
Ni 4.710932431705316 3.188847538080786 2.917190848985417 1.849952947519575 -0.1533573047096391 -0.5165827047314523
Ni 2.6092181520062274 2.4879545229428564 3.1212295210515775 -1.9191850423435206 -1.576299382320324 0.1343645656572202
Ni 1.3053372885858459 7.426692259032291 12.340753328990187 -1.1985775884545486 -0.24544804929931277 0.7903077465985874
Ni 5.500620998969515 8.438286217271468 6.759940818282735 0.9915752447259439 0.3210690783687374 0.990592054877068
Ni 8.003353135215459 8.816094037105 12.525309299575406 0.015262839696341457 1.1816625578667648 -2.0548562426273063
P 4.652183765635981 6.483800751592022 4.7935636875102405 -1.2692780402939043 -0.026327067930303046 -0.5374322944869518
P 4.25768735425678 1.8442145998076362 0.3210332128419737 -0.3487364623770187 -0.07470340235116167 -0.4549189091730681
P 2.75057488239696 0.1605416532231955 3.2357806071230377 -0.7632119188230598 0.007640547264393293 0.3793199915908306
P 8.265658090493602 0.7016694660063976 10.531913162835194 -1.269849082306026 -2.103057484922881 0.06562226598549989
P 5.751543574132851 4.962457985440341 1.4556691231013341 -1.1109124837363964 -1.0572376199207596 -0.5205967109868518
P 8.32524164996989 7.496433688293187 3.0124753782024007 -0.37354863632469215 -1.7876679734374246 1.0293843451539175
P 8.848506454481639 6.080074129769273 12.712525797150782 -1.1291431478118104 0.7412467274058783 2.317897836638666
P 1.4689114601949664 0.2593364453867511 12.641272283163959 0.44441132477352496 0.9525888361604176 -0.03386219996508362
Ni 3.324137376380986 1.3676759963050822 5.738593449731653 -0.8231206793635502 1.0115768846588513 0.001572486693442453
Ni 0.41396798094805287 2.0740885845223196 11.004048167445736 2.26671540022758 0.267534596785707 1.3350663995436234
Ni 2.2094433589763933 0.3524354091961979 8.983769390660948 0.2870664961710475 0.2403888896088505 1.0778318991323437
Ni 0.7882840910218345 2.989437886126515 1.194630422823738 0.11684532582653423 2.4011599271931163 0.36535221655682887
Ni 2.994595672062809 4.795831814599133 3.2852693776499104 0.8121585239250916 0.36162334564201587 -0.02901669894732422
Ni 3.3423009462789417 3.6518144854236314 1.029943060005345 0.07381354354704062 0.25416820278113 -0.24523567617819056
Ni 6.041650479862565 1.27234972241775 10.508397926198663 0.9913849830920088 0.05121637497281502 1.1537846005095742
Ni 1.9317856416037062 6.4872423677473545 8.639776609127738 0.6163291660941708 -0.5239787400852073 -0.703232452945634
Ni 7.7633954934634515 8.759005881256163 8.641867553282486 -0.0012816949259010185 -0.439374790790882 0.12914008403348728
Ni 6.15399930265835 5.865766268797577 6.163805589552695 0.8371861563176807 0.4313334085436443 1.460890017609368
Ni 4.867808902871983 3.413072077408414 6.901185301893199 0.12348262863739379 1.567464300527197 -0.6989052863251899
Ni -0.0545482245730138 4.188539626974163 11.926553433206871 0.31981232314350083 -0.037475628347954815 -0.6897292762528766
Ni 6.107171059121637 6.707626397402994 2.655109459608469 1.1419343860392075 -0.18496618986417177 -1.0591739177115242
Ni 3.9978128664522137 6.592819277353401 0.5751302382704175 0.697024010142077 -1.1456573434167494 -0.6776494622702072
Ni 3.8345262692388213 8.667121223524164 13.102857018088624 -0.07308515002144833 1.4756162680759488 -0.16063146977354917
Ni 6.299567606457494 2.356041364644115 1.4329544564761376 0.9055142512701179 0.07930490567891503 -0.03755764653879983
Ni 0.8032889808634811 8.531182023685222 7.522913724183746 -0.7614054617419403 -0.26493418304838245 -0.9401117867393293
Ni 8.038715509296667 6.910570431446705 10.883862478536678 0.05120583344985375 0.7175262438604869 0.42924027346004145
Ni 4.985027937208332 4.571115615820743 12.889993522710961 0.6219485691634773 0.6824535685270697 0.729663393443653
Ni 6.468039819387411 7.778572000283194 4.658850853320181 0.8293602325153587 0.17298047825720533 -0.24788262688273438
Ni 0.900173722443794 1.4123984531375877 4.622749134744146 -0.2628844996082053 0.49254494705595814 0.5398910404400896
Ni 8.056563675018664 0.28015126568145676 4.955730599898973 -0.15174059504182255 0.0017367801854486218 -0.03579926908679641
Ni 6.0896754039492444 0.8955734597714771 13.032174014596555 -1.2726613549438404 -0.6056197500964666 -0.16669490235880968
Ni 2.9798366119465434 4.722222045886017 11.397095574934202 -0.956882835550081 0.7000669107334588 -0.47203217181458706
P 1.0412697805596884 6.089165191311661 10.5303250100433 -0.5467263181943681 -0.6398264778851626 0.07253159151082347
P 8.891262273511098 1.3383341313473522 1.2345058595992047 0.20717923562610124 -1.9911386498636867 0.7759625336205088
P -0.05555659027674609 3.2710938152591713 3.8040962598740284 -0.3193616087593274 0.591374295921046 -2.112554111559407
P 3.363822642991535 8.73206665399178 6.847717800452521 -1.9028173996187745 0.35080311509806034 -0.9459263365385774
P 9.002701990152643 1.3906262884029081 6.608473528733789 -0.2676554386342874 -0.07544902226793457 -0.1373197916308022
P 2.130731463887447 6.222265753566959 1.815561058080973 -0.06125704703826869 -2.1783794946946484 0.1389974364435413
P 6.812563222063709 3.215257999520766 11.770184391699763 -1.418979750528827 1.220462304342782 -1.5047635790638665
P 1.6655566873128789 4.42882194949554 7.378505922220268 0.6850750653103169 0.44732515598621025 -0.2897954650664364
Ni 5.542977924482318 3.204070427867582 9.21302091595778 1.2902968086374165 0.8541952892811676 -0.8682414829615887
Ni 7.912934179242334 3.4688058506193027 9.664626819350662 -0.12482782981137856 -0.8196250075054659 1.114362647068526
Ni 7.111742636148989 1.811746522870534 7.853423904853989 -1.5757000581734284 0.05858412819179588 -0.916937148395079
Ni 8.78167787555167 5.990063343906215 8.796919318525289 -0.9989057169490859 0.2636949113246426 -0.4407089362212733
Ni 1.536194592202053 6.242395961267963 4.136236338006515 -1.5557482976418495 0.7783374616105886 -0.3524416791427478
Ni 1.7479977729528864 8.496023734659046 5.135465524888701 -0.11588758989895524 0.90014398809714 -0.17057701102203526
Ni 8.028789554347325 2.299454144839451 13.16965683957902 1.4823646425433763 -1.3803365842353323 -0.25340329959064745
Ni 7.785473785780681 2.9882690353567796 5.324746064497938 -0.08801426052745487 -1.0804757645130942 0.0864047499484899
Ni 0.8961671617497555 4.083927483082819 9.395010053146283 1.1068879359580357 -0.5913688966044074 1.0138286568075057
Ni 5.315701385922602 7.650434415502567 11.440433964029848 0.04842338560871015 0.22650390409664217 -1.3429604575797194
Ni 4.309988787905746 5.780467992387105 7.532458411143913 -0.8914924830697293 -0.12358752964637425 -0.0739420987051049
Ni 7.386097886267503 4.32781840044092 2.7992584446157918 1.5740218991400567 -0.6645820875632877 -1.1817301778799068
Ni 4.667415932016188 0.6059136858441547 2.204291138996146 -0.2909635172326086 -0.6467239763359443 -0.397553998100354
Ni 3.4193708843342114 4.04656136482492 9.061662162551738 -1.5251506273606508 -0.8233276531680336 -1.0246311467396483
Ni 0.597083296576604 8.963165149036662 3.0247761410648573 -0.4827714126089621 0.19057145186609115 -0.8248250636491666
Ni 1.6801209389675216 1.9048093079656794 7.513680730762176 1.0781358035260076 2.2859943030618504 -2.3253712621975757
Ni 3.878617917719406 8.014707685550034 8.758116255948087 0.901581748984931 -1.030587621433399 0.34103420863675465
Ni 2.537315276480662 6.691800529044509 6.251487022810351 1.562195338818774 -0.4384363381370126 0.06010904947675454
Ni 0.6261858254243402 8.259962262139492 9.993752932284044 -0.5287296245066313 0.256067733796688 0.06310052800491069
Ni 2.33588332716288 2.6449701430106822 12.549910825300318 -0.004922377002281844 -1.0258876448545686 0.18582313854782836
Ni 6.244687279840381 6.774362210398856 8.601583946396953 0.3608468724873076 0.4835735967952833 0.0749132043691226
Ni 7.428018811890007 4.405723231903145 0.14419536797437613 0.23187391015930392 1.2080775575251839 0.08436277981779663
Ni 5.7778056100782615 1.7303722454727453 5.699844191396233 0.06696361050474274 -1.4698096886965009 -1.111551659982292
Ni 1.4898487315226923 3.675386309279968 5.154188473369317 0.5584153244965222 1.3373446540548388 1.5268938353040025
P 2.800538614506455 2.256633389656119 10.26173980102618 -1.1491003076600275 -0.6146798034162059 -0.16240064585883
P 6.1928311226751225 1.4714532467894714 3.5544918886343386 0.6248253764906401 -0.10283409914910677 0.28540093554316653
P 8.103902131192958 7.406784689573142 6.11071842844185 -0.6073328761328314 0.9843435028641949 0.5098209605275865
P 4.439647734005711 5.830060660760175 9.679642841104402 0.3683966598101075 0.9410492109519342 1.3415072700729607
P 5.839838190214948 8.215545932889537 0.7095462214713385 -0.6962444516635751 0.08976595311123894 -0.1693343968641858
P 6.8731393770349305 4.6603378912439 7.90325219869969 -0.5036171457097197 -0.4828554876823361 0.7738280037760092
P 3.6888744760989813 3.3423844356196373 4.882332337515619 1.1110076145533638 0.4512350325635777 0.7119253527339416
P 5.615159097810201 9.33828275678112 8.8807453995615 0.8788477977225252 -1.1655065169321928 -0.6505808881881893
