# total energy = -340893.3438834365 ev
CRYSTAL
PRIMVEC
9.03765496781213 0.00000000000000 0.00000000000000
0.00000000000000 9.03765496781213 0.00000000000000
0.00000000000000 0.00000000000000 13.22752158556029
PRIMCOORD
 96 1
Ni 6.417665988161349 1.9096384439532246 11.432295673044825 0.36015267463376033 0.8856527364595004 0.8005471649384084
Ni 4.603058487417091 -0.0010809035480544332 5.710215519725231 -0.351038371037318 1.3237342623602557 0.3116066474042569
Ni 2.6690545253572204 1.4793195347804504 4.843111259167031 0.7231063090514256 -0.024502870237370702 -0.025872239781071574
Ni 3.3971280189296715 4.292136039559927 4.800307117157873 0.2758713987861765 0.45731671998128337 0.4660900952985393
Ni 5.020227608442546 4.517779174043833 2.9264035614070503 1.3396810154974992 0.22300720379729336 -1.0044652133147347
Ni 7.384098596920987 6.172853987244137 2.7498827936015755 -0.33441053267264986 -1.5337144577702617 -1.252247824284495
Ni 5.140365157475052 4.579253303925657 11.323194908400982 -0.40459676387974836 0.4510380860614232 0.7766423332963528
Ni 5.8148182434337325 7.831046791448445 12.439479068578521 -1.5983998137637891 0.20131377798425973 0.3780218416046974
Ni 1.7973003912582695 6.518697934346135 0.5424581334558796 1.004678100656489 1.1886664999884238 -1.64468532709389
Ni 2.772481450139285 1.8020541978324889 0.313773828036186 0.20347530441195277 -1.6497907666412557 1.1465734274731156
Ni 0.5908113956866557 -0.08145096267964695 4.7972650424565755 -0.48542710506425424 0.7910351116829151 -0.4117529153085554
Ni 8.442959304225381 2.5923700219689105 1.4866942613290492 0.798170951396748 -0.5024202971881412 0.0849217376450602
Ni 6.898152920705779 0.6469804220341332 4.893614579542308 -0.20976550829603874 0.9687906427312605 -0.8766893566186258
Ni 0.9143034142347392 7.7252881516546905 2.7104252952700465 0.30821124856946275 -1.2815766551555992 -0.35645619961877967
Ni 7.654758291378631 3.8179845032294275 3.7680451325313977 0.4578700213815921 0.7259039264012208 -0.3048137928521396
Ni 7.766192578565179 3.922839377514775 12.658155978523627 0.12578068064295111 -0.3730950937270413 -0.5391672749001876
Ni 7.78661767905517 8.879975115815448 7.031115806068083 0.8048321654670075 -0.79343626492524 -0.2050799298949113
Ni 6.896182711897453 0.5953980056418198 0.6144819181173361 -0.39774734505808274 0.4109435320333826 -0.06778867750919938
Ni 1.873370334100863 6.323900316664152 9.214754261798022 -0.4928511654424673 -0.018736914287870957 -1.2980129463347516
Ni 0.21482415758276818 5.075312116179936 1.229743785868427 -0.92067810349475 -1.279606933023738 0.7882878879550811
Ni 6.276777983055825 1.8299444014219202 7.0784306417297005 0.32998283591859945 0.08455946920963502 0.547088072409161
Ni 3.5347443928947624 4.305810011702121 0.2670455361895251 -1.1319060552689282 0.880835003355883 0.18768384590565096
Ni 6.132256840606507 5.517840897371285 4.979897072629897 -0.3182048694470649 0.6932264907728577 -0.8609464919620722
Ni 5.160040132593066 2.9184666927122223 9.216051165302588 0.7569425408745801 -0.6255581408916064 0.13346545088171854
P 0.19608096470392128 5.820331213035013 12.284399233694486 0.4429727925547855 -1.696569160447375 0.19791992181136236
P 3.941691926020139 6.243049454282087 12.553553254815125 0.15541187324582267 -0.16704457238874457 -0.05905335451873055
P 2.3454703227272793 8.552170328261248 1.2846909212485387 0.5889176068504374 0.9565629903168172 0.3204180750482998
P 6.356029180488011 7.786671904985675 5.835109586628479 0.5007058856001957 -1.3301280817017416 -0.05417597182177122
P 4.599081919180101 1.135219855109677 12.571370088047855 0.9177640151717484 -0.4110067811711502 0.3639406809212829
P 4.17594794579916 5.915461570449904 8.007399458869356 -0.4516980882429253 0.5296742478080878 1.8393036953358453
P 4.700818802461445 1.0794394479308145 3.7160207748054734 0.1132681499982372 0.6034643943163608 1.9565449710492178
P 0.35133522633107755 5.652339280332373 3.489592268094763 0.49843483017783186 -0.33004325684288965 0.17412384783302914
Ni 1.332611279800788 1.146110229485978 2.668811412435459 0.8534995487657235 0.4414846380450332 -0.6541734906354539
Ni 1.8888699125700381 6.525891907793053 4.827317956907625 0.429861194873492 0.3529499862377341 -0.26759733170284233
Ni 6.025829414336532 5.540453110391621 9.267532359957958 -0.5683171569912664 0.8054227478631548 -1.1694544458363472
Ni 8.525409831557324 2.284556527460667 10.264914418552985 0.4184951191283954 -0.7785920008235558 -0.021553557801059657
Ni 2.382127051748256 5.154870593884979 6.873695218517277 -0.8222981834622548 0.15502003712404272 0.9988247271995057
Ni 0.3853954370464015 0.13770584675042302 9.116275453174485 0.45513282495608715 -0.42959765679946005 0.8352557720641873
Ni 1.4584696645015074 0.9876259099317761 11.417070839290202 -0.9467565457493564 0.5200709203903687 -0.40124070292332187
Ni 4.0358371790308665 7.218799885433398 1.3853577461679292 1.2246861126161426 -0.9279268146373633 -0.35136335847690453
Ni 5.688860444527087 7.911400582800886 8.00435738416806 -0.6691241984080154 -0.8130180437119096 0.32864971892947276
Ni 5.29417700935079 2.7529239645373638 5.1379005889336264 -0.42444490895392706 -0.17143575947790474 -1.1911355303542068
Ni 0.7563721991716822 7.522103590054693 7.069766241800606 0.03902548933357795 -1.2089509612690728 -0.25484440291254823
Ni 5.291104206622208 4.314061390793874 7.083655310133801 -0.25596643233213334 0.5352175462238201 0.15946676004148666
Ni 8.028031521660774 7.235438208443166 8.957651049966481 0.5234647765632662 -0.368565581287804 1.4038896889649242
Ni 4.6674337045809 0.7192066501694727 10.407017084501806 -0.11519596314856934 -1.6081139557277597 0.1084020801551875
Ni 8.246797000625703 7.119123587511222 4.748243897515088 -0.30647086883958835 -0.1361172866822688 1.1966178936250165
Ni 7.24882297562267 6.205353394926442 7.059422645556891 0.16253048656847494 -0.8181029144339846 -0.45424965102018544
Ni 2.564299065277798 5.247488483186499 2.435279308828672 -0.7470453363655263 -0.18503201010510067 0.9084859323039323
Ni 2.186217802490932 5.276228226353833 11.320602908922872 0.6637565063381987 -0.12624219366040193 1.1552033352339717
Ni 1.1653785101252092 3.2774875409267907 3.972674815179338 0.23062769645702863 1.047893973922331 -1.4401268169200876
Ni 3.497445990362817 2.8382936544614625 2.8902664975534074 -0.5521395187901394 -1.066887227195382 -0.987064501339784
Ni 1.0863713293802941 3.146179450210379 8.113788023222469 -0.3556617287419423 0.36156138205582894 0.5325795943803409
Ni 3.642726295839197 2.7300315842094216 7.089713250336651 -0.41495599562688534 -1.1978579366797049 0.37215458419064296
Ni 4.188971206775301 6.65123514615398 6.01514961732369 0.01766476426961474 0.5201789067231428 -0.5837787429619753
Ni 0.8631421525693432 7.515759156185678 11.202797978667563 -0.8310224507091301 0.2563718953006682 0.1468292737831342
P 0.23678475567154297 5.3435587567301335 7.979912334696674 0.24639241549045313 1.6047805204791523 0.5174450527317476
P 8.382289525646037 1.630076659237775 7.965825341717138 -0.08467388330031224 1.329955303569303 0.27221143343608606
P 1.7336301111910164 3.0152690163176654 10.444490817542382 0.3123360693711137 -0.18369812178502556 -1.354894490013144
P 4.139264103812931 6.220599919053264 3.8364972359036305 -1.120350489220845 -0.2860172289709268 -0.48519467733847405
P 7.001335828800574 3.934958872982509 10.410337518979693 -0.31992236635880383 -0.6222144212303542 0.05012391323958464
P 6.26423371779914 7.760905550341 10.310734426063698 0.41312665572763047 -0.2540866988109172 -0.6367658366819678
P 2.4257066245636283 8.546187400595596 5.831312867727663 -0.05190157396529771 -0.9353123084681568 -0.8264721123342862
P 6.9329388551243545 4.148952470063051 1.6907554754722018 -0.58924285140034 0.27183630948485443 -0.6090532012580477
Ni 5.367029546983456 2.9777537100637033 0.2928136983652174 0.8281189039090899 -0.4839965432653149 0.5436726189697089
Ni 1.1876382545972666 0.9964285859836576 6.8513667878665805 0.3167817638472931 0.9940432466504623 0.8479966166696236
Ni 6.899427230072633 0.6317998727894255 9.350191657122346 -0.49310596176575083 0.04949964939202443 -0.5420363689178666
Ni 2.744455681723593 1.282940327458755 9.115045428317543 -0.7184448990200143 0.8673639654526417 -0.40625409697751325
Ni 6.257672380208107 2.2004340339381696 2.6234279236653077 0.17373612547630726 -0.5658704952229868 0.22819903241087794
Ni 4.163204852130625 6.880737359358783 10.39401461013236 0.007789928358064003 0.06821265242049543 -0.5159335011832277
Ni 8.010344830661253 7.144212118024592 0.2370685380411827 0.22923852941898587 0.6443369641610065 0.7826427738541618
Ni 7.507796982056615 3.8733853288947593 8.098590302433102 1.2023445116961486 -0.6508079165973307 0.8827239928484798
Ni 2.988960402367946 8.44333888573891 12.093896309708452 1.2835749165325507 -0.7119322947124772 1.189972106173725
Ni 9.20864751825772 4.515438421377059 10.153352700429751 -0.3959730267664794 1.687210087829978 -0.04882807724629656
Ni 8.607336174894394 2.512847694884204 5.516445483426305 0.46737461843791767 -1.502874846681586 2.463260553178603
Ni 3.6754426072435202 2.807954246344249 11.35763921945738 -0.4273690245792575 -0.531838088228626 0.04754715365134392
Ni 1.2822082773969454 3.176365218191163 12.553778292426719 -1.6817148690433619 1.3045664311825533 0.2423989780603438
Ni 3.1317372773860392 8.099076528276624 7.809700753905386 0.5522729590442101 -0.405993644227275 0.5442940546037918
Ni 5.7591824387362145 7.732066392967742 3.676086992051014 -1.6246371501937633 0.1662598717039201 0.9204598168363568
Ni 3.3129241865114176 8.313178577218176 3.4492743849992307 -0.7224987573744138 0.11078035057937695 0.8261221851940352
Ni 3.22793407810085 4.300730849544875 9.215230546220953 0.27056644163349536 -0.3251787296617367 0.11649231336248969
Ni 7.28539836574789 6.010854019862233 11.275668591610398 0.487566005784128 0.2417428325335837 0.3390377470320161
Ni 0.43883599532399903 0.13360455887327335 0.5457568775615641 -0.04568644629352132 -0.6219429127365224 -0.1609546574409228
Ni 4.563392219253119 0.6684936561962467 1.713545730297694 -0.2912895331134596 -0.8569574254073371 -1.9771914436549756
Ni 6.025260042066236 5.554741643079531 0.3412898727051369 -0.8735258712889794 0.7222395901757562 0.4109466173571761
Ni 7.898449623065417 8.847701649510245 11.483155980795921 0.31793438939449764 0.20059386909909968 -0.033881740349109395
Ni 9.020212409754919 4.992753136986982 5.806141190787519 0.5375423377022549 -0.4904119598733554 -0.4451173497016141
Ni 7.783102031227468 8.558803967092953 2.891959250350653 0.9643866001262941 2.1665480492773592 -0.781339481661706
P 8.504017701973337 1.6537462779029468 3.565425424374154 -1.101610232498864 -0.8827751578013894 -0.32916831043710404
P 1.6113235249383355 3.2420689706523316 1.6284272871849326 1.2801892878897694 0.3396548117907247 -0.17603854835723876
P 4.667280064444472 0.7590654203867342 8.156103228091581 -0.06430097607091506 1.9485087310083022 -0.35297878259314047
P 8.498351092235628 1.6288565758014257 12.649002641454484 -0.37504733235740567 0.9514750342709486 -1.3636411258575225
P 6.252105184676322 7.769364795499687 1.602540731727639 -0.07145198529339952 -0.3118303333792888 -2.119021978671938
P 1.8090222299023049 3.194783959252492 6.0345146008723205 -0.06415365185977338 -0.4160895950106963 -0.23636948403681227
P 7.059520252231799 3.8894271666689786 5.977331549624411 -0.627404450071726 0.12114061076777848 -0.6559632355460252
P 2.351615928184445 8.325993972127383 9.885429607931563 0.23417941836402897 0.7308517573247993 0.9498043314367448
