# total energy = -340868.8055147612 ev
CRYSTAL
PRIMVEC
9.21664114739410 0.00000000000000 0.00000000000000

0.00000000000000 9.21664114739410 0.00000000000000

0.00000000000000 0.00000000000000 13.48948595157600

PRIMCOORD
 96 1
Ni 5.13896879355284 1.9392274205398112 11.666638430624033 2.481579920313081 -1.4662381692951587 0.03809886375425051
Ni 7.677784816279944 3.067842018837295 4.277758453697911 0.9955170029825113 -0.37421095249903935 1.081567454915376
Ni 7.977574509052922 8.294267522038206 4.45983965496194 0.1035925745816861 1.2775099412853934 -0.8126110380814779
Ni 0.712242687586956 5.416122415201815 5.016659354688394 -0.7324975204583385 0.6214757432921167 1.267750033685152
Ni 0.34688027835679996 1.4163304909188152 4.59677129530775 -0.6098350737293949 -0.6093311375097827 0.5331449799655077
Ni 5.51704463784344 2.231394950926979 5.6835792084999905 -1.7443981070051957 1.4430226504106436 -0.3137548040955112
Ni 5.885396925523361 4.502605792430379 4.5398327284552 -0.810005996358463 0.6220763529905933 -0.5642167616696476
Ni 7.290031498585353 0.6604792648452068 9.15855161177907 -1.2615086807611307 -0.7553361156194088 0.4417764582538391
Ni 3.5064527634301945 3.871238210912646 4.537863132201454 0.8114303875098153 -0.24972867895253767 -0.3473917754236662
Ni 4.667242656635615 8.222156520216464 8.527149007024255 1.3054434344708679 0.24037757675494087 0.21993293574734385
Ni 8.327032681991719 6.035628179318657 11.785723888348748 1.4669650201588542 1.430702438282394 -1.0978281397486127
Ni 0.8186405168469718 5.947471004928963 9.872442234837104 -0.7069510394478018 -0.7296127427113757 1.2950680047738148
Ni 6.421694851648551 5.885986790568938 2.4122033340223514 1.7701767586311965 -1.53137552522444 -0.10964160898924342
Ni 7.960044457229691 3.1060726471037294 9.762530100235239 -0.6412261864461666 1.9082935922419972 -0.14354006150890117
Ni 8.587817548625942 7.07607638658511 6.528992225103071 0.5270638067684342 -1.0404997383407886 -0.6290867228701552
Ni 5.7767972406479045 5.248517792486021 8.091115235349218 -0.7700561954384028 0.04745202283437634 1.0011099236892567
Ni 2.9457123044789237 4.758828421602722 11.043370433513372 -0.4652326323942504 -0.6188447334271729 3.2623892405029298
Ni 2.198417808222711 7.542521388016156 11.092215867607784 0.04298910196701629 -0.43458174027761287 1.701705710342992
Ni 8.57660089611865 5.088092933371856 2.949489284098882 0.7506950173029716 0.30172615506575134 0.10999179323981055
Ni 4.234880794869293 6.489354215704457 1.4909659308027976 1.0112570394255875 1.5250015033772961 0.23316974615259198
Ni 0.3534747852335198 4.96388947471263 7.876214495947783 -0.7472394546542035 -0.8978870737421634 -0.805192891240536
Ni 0.7922412910650171 4.234853144945282 12.03488749192098 -0.742689887610308 -0.11840007190816383 0.9416739890201266
Ni 6.302486812594052 5.312195567484285 12.027914181085302 -2.3355173494926422 -1.8769454169480189 2.0903670339394065
Ni 7.794891461109576 2.2671555193150614 6.944549384719396 1.2497973058614735 0.08064033666088694 -0.19495286876323845
P 0.9090760449752042 3.952049722156642 1.090171987280295 -0.320184618881255 -0.13118128283323216 0.042265850647746565
P 0.006462708905598801 3.581955489264001 6.0233525347217265 0.4279922599855533 -0.49810470053192274 -0.5572151335408339
P 4.32575687845344 5.241798860951251 3.1494986960919062 -0.6011185197920035 -0.735297708911295 -0.26087389693607976
P 3.844067552250773 9.018953597094425 1.4138198778185798 0.7609647746600958 0.31594795509208806 -1.1877056787370512
P 4.694671381254928 4.106889296620504 6.471527388030171 0.20457625078561542 0.5951725866212136 1.1037861571042602
P 2.8561265506819753 2.331957724556455 3.2735473151766685 0.30315003199647145 -2.0591736390557376 -0.9544225469350466
P 7.6354159160531365 0.3685366205066652 0.7795785475319279 1.514797823371417 0.033148461727510646 -0.6320761445157824
P 7.336308254739107 8.436987213143734 11.090556872167102 0.7240933555550433 -1.309272578408971 -1.469127832138128
Ni 7.862532391882807 4.940018373649452 0.4431785120395837 1.4328081717714873 -1.7190765975212714 0.5146399791827846
Ni 3.627734546785549 0.20593479070866869 12.736772517973263 -1.0706479797893946 0.4429169996161856 0.9434264529348592
Ni 2.9097028867747388 6.577612773148858 4.825121879412463 -0.04564273753977946 -1.6118633954678627 0.5386049746388143
Ni 6.229067047702437 6.633871151870728 10.184319552723736 -2.7365194540425968 0.1618969667495341 2.268801336222331
Ni 2.888209679176541 5.146802938689404 8.951731101837902 -0.4520035352984861 1.969514129615376 -2.705385194531637
Ni 2.285957467642816 7.52658581514425 0.5989332989882229 -0.44308514976293367 0.06375821619356761 0.17144784366276278
Ni 5.251282784887162 6.996453822073604 3.939590666397104 -0.4239342878660957 1.2837027003596666 1.0210290312106867
Ni 2.9169103003003785 2.4921245177131803 11.301491690801166 0.008409049999301647 -1.2741906471041733 -0.9328167957398129
Ni 6.413584207271873 2.1492193767650867 0.432405179980607 -0.38524124217127204 0.4083356620968903 -0.059543663891587786
Ni 2.384234514220682 7.525654934369199 8.651630808251863 0.14041565694730654 -1.2439508743830252 0.4184557812500277
Ni 4.531638212642354 8.346277029103655 10.892949316906533 1.1015973769830576 2.037490754765665 -0.5386821077336529
Ni 0.20746383150649933 8.335419825608511 12.254806692530483 -0.8668636287774556 -0.1106440821118288 -0.19925689545523104
Ni 1.3384959548267132 3.3247835460339337 9.840283529883573 0.24698042678343918 1.1902413006747115 -0.9381852591405777
Ni 2.2145930137693823 2.590825529792555 13.509720613727255 -0.8608135659286336 0.1757395290595812 0.15143926175131983
Ni 6.180790280378527 8.784528324684407 12.820488192902591 -0.687738471075093 -0.039023432451048924 0.784118844179056
Ni 2.599645855552193 0.9894986139547736 5.449954862222168 1.2263498734718103 0.6541464940522604 -0.8208437104039153
Ni 1.2091127437360174 8.373272571580124 5.357821628759636 -0.45785690875546947 -0.8222493325021903 0.2275007207922727
Ni 7.210501100487218 4.807344821601399 6.396727891930387 1.7423777341410573 -0.20050002383371276 -0.17102309742051836
Ni 7.258556668419039 7.380271633917238 8.525449458361686 1.1890537081245136 1.050309268232043 -1.6217084065827427
Ni 8.719762986008362 2.1982795586026542 13.400320924383736 1.3448458475278904 0.8371977262819065 0.6793744153811139
Ni 3.970999136745791 3.363216940409785 8.513781190428874 -1.7215872797582672 -2.1130217952244448 -0.7710653534292076
Ni 2.4293591902072933 4.244770251024038 6.428603645994867 -1.1997718658729661 0.3206409896923833 2.2647924721732546
Ni 1.2081818629609669 3.4982038694334587 3.8685146933975223 -1.1388724592844321 -0.6187794274068763 0.4479093106244544
Ni 6.354855768671651 0.4036354340467413 6.934958547743974 -0.4630135132557446 -1.7736114953443582 2.258473986154394
P 7.224445878830303 6.343132200890816 4.648342090245554 0.6249783571287365 -1.6444027628564646 -0.11250864612439333
P 1.0967342359123349 6.931089401710645 3.6089362851143294 -0.6723843572165259 0.2995124352438842 -1.7326841610023773
P 6.516368191463599 6.551446728392733 0.3522498935998146 -1.3458971716105403 0.7906327340381738 -0.701902678390617
P 1.5034461848374117 6.5083773634243025 6.835985644745154 1.5572053418033502 0.36520334968379037 0.43125807522101856
P 4.41491866674888 1.188080368204676 9.802122026427169 -0.09531567928487455 0.1049550021468515 -1.5197698226647116
P 1.5854466428138987 2.357165238613518 7.857395957665622 0.9666376009439998 0.39237245389941455 -0.21941537268097697
P 7.647517366128794 3.4277702963350762 11.839061513430881 -0.21328946228889717 1.1163210563464776 0.9303228256733655
P 7.754282939378162 5.40610392606835 9.4178194192492 1.5226707983615906 -1.2518534170595537 -0.4719013026636775
Ni 6.051960067768059 2.6549733534990123 8.424494055811248 -0.040949445829168186 -0.8823383273742869 -0.25617289191598464
Ni 5.204923078961375 4.194106373593809 1.339378909066811 0.11260969047863188 -0.36693910142797453 -0.8777347671640046
Ni 0.3278497573238844 8.217041284274353 9.802742306389158 -1.7951573398359344 0.49763547420498816 -0.5539765719988782
Ni 5.5300124522047875 2.4069719683993935 3.044833595403272 0.2504077072974332 1.1149349746322281 0.3746590957800516
Ni 2.254077105257667 0.4347793867890529 9.946782742198298 1.7332626592136664 0.7977960845558325 1.7599183141279822
Ni 0.17330972370347952 1.457860676783944 9.362822798726384 0.5047358326951953 -1.018806312527755 -0.28475918819410956
Ni 5.287034136633908 4.023017860452579 10.373172220378157 0.24417175369005045 0.24164975859914511 -0.03908745291976494
Ni 1.1511953695734634 0.3994298806046067 0.5194231775010298 0.17728501916983017 -1.3296076904218972 -0.7961510927532417
Ni 4.184382816983132 6.775079313796967 12.64838953587081 1.2444596956986438 0.6293250641332065 -0.8266304922890216
Ni 5.1142128949212955 0.22729067035094333 3.563665986194591 0.30721828852857413 -0.33287712674725894 0.4368173144763509
Ni 3.014542181984645 5.062544403585319 0.11688544543754134 -1.710357215370403 -1.463169557672164 -0.10348124581480243
Ni 7.80774867577488 1.2473249387197778 11.489696428569587 -0.05226975593799384 0.08319652742383736 -0.24218943315269903
Ni 6.213315807657274 7.228611800714688 6.40550950779641 -1.1411247456537186 0.14227070787817434 -0.611416816394218
Ni 1.4643215423612752 0.13255557903893764 7.904258892208417 -0.7878294602614238 0.9567005443359461 -3.4752539565495826
Ni 4.119534528535053 1.9790248778335584 1.1923273965328278 -0.16548905497616662 -0.8058307819348509 0.59257808642116
Ni 4.088456013946235 0.9648256650952641 7.369751759495033 -0.6776288934449168 0.3615068746688097 0.4658964912304944
Ni 6.551345345338024 8.111363274702768 1.8589182162486886 -0.4831727618124388 1.069658362182616 0.41702933321614627
Ni 8.914197251656553 7.165597623892698 1.456284631115294 0.384685369667802 0.05522292502904683 -0.49137998021357954
Ni 0.7267183444710597 1.8075123991908204 2.0567958191004343 0.7097633120856163 2.765488073360805 1.4197569950144837
Ni 3.0713904257520914 8.160911938531203 3.099466158593271 0.3830123528407533 -0.6191280689955466 0.7854951557012924
Ni 0.9690468868276718 8.861837512220292 2.8124765373093057 -1.617048282102912 0.5887044623983667 0.573739099337786
Ni 2.090638404426259 5.209936931848776 2.505294176519812 0.2807958326709874 1.0855575499113754 0.05726540938037235
Ni 7.852633719086725 1.0934254616723036 2.806231341139263 -1.0647472980342436 -0.301785547548777 0.38946942132000667
Ni 3.966685748600012 6.639622336065099 7.063513182778461 -0.5901957022319126 -0.9471167573022528 -0.8777609924162496
P 4.194041857104449 8.277060052661774 5.342295274763099 -0.40431214275979405 1.2622015930630974 1.1657291744659601
P 1.344440688489165 1.0691672616729653 11.99045314237052 -0.33973374465777617 0.12276014864907245 -0.46535733089757275
P 8.520010718308644 8.879542680228928 7.615111655187429 0.44753958598986154 1.1739263655647716 0.5461840725376529
P 7.06485051743648 1.013913496856843 5.16443621689561 2.4057586023073925 -0.5115140319592932 -3.7032457580456613
P 7.453295083231356 3.319069228404911 2.129422952837055 -1.0051110744288496 0.00500902317881718 -0.44615581826845735
P 3.921091023905207 6.424552010463064 10.425146704206528 1.606681337046291 0.2554956633433019 -1.4237167509931805
P 1.0168996886500747 6.307666565025522 12.859716061761702 -0.09302174104437527 0.09127416222564926 -0.32063739014795745
P 4.326650892663142 3.417051342459989 12.856951069360562 -0.6117094079339723 1.0305536828716702 0.9915071104921698
