# total energy = -340885.66061287303 ev
CRYSTAL
PRIMVEC
9.10664799304842 0.00000000000000 0.00000000000000

0.00000000000000 9.10664799304842 0.00000000000000

0.00000000000000 0.00000000000000 13.32849985191246

PRIMCOORD
 96 1
Ni 5.197364445542994 3.332268264505855 10.04694326623778 -0.036307061961150376 0.6293073235213936 -1.1850325027802622
Ni 4.304667047329428 0.5805415342527702 6.760441372675256 0.27856128691351384 -0.3406624271196327 -1.683378887009346
Ni 3.4047207571883518 2.7987097493892756 3.168783895584949 0.4612985874471669 0.7560136013024076 0.10848255568413574
Ni 5.132579750602914 4.566974940646 3.1900169564118106 0.038997207198803806 0.0039756968182963785 -0.4388644268133667
Ni 5.0466129920656115 4.680261643633715 12.259900657302774 -1.5815567740645213 0.3700095128231821 -0.5875934887223752
Ni 5.853625937834531 5.718319359619783 5.263638077455623 -0.4419042420809551 0.7599538168970783 0.6730415311845506
Ni 3.9754617167019437 2.8466380386034515 7.318852841258376 -0.6022372067774789 0.6034628516544639 0.3896290868263225
Ni 5.272002533781525 8.421846422543817 12.863108638801238 0.45214957395804706 -0.9394116753485112 0.9664756214448387
Ni 2.2021787623144937 5.264999521354069 12.251890449589913 0.08610984441589041 1.0128164134929074 -0.355119225974911
Ni 7.7012555677197065 7.573498400821422 9.30375972801799 -1.6405296530543036 0.3084719584300171 1.8687662235713365
Ni 8.182578349047095 9.072197700185914 7.3717797696421625 -0.9054988246511503 0.3815370538468075 0.6502445878946931
Ni 8.661223775818343 2.4683934076874747 1.7679856171585144 -0.25243862168453296 0.4761667628082509 1.153190161458685
Ni 1.594401064774291 1.212249681801905 2.9421467430724677 -1.3487238424260577 0.4543969752313271 0.3977566010294633
Ni 1.8403898446058158 6.856031126312809 0.9856398492338738 0.001889246602912875 0.5252990015585276 -0.47122201720846585
Ni 7.736088496893984 4.138579998367213 4.268318771902968 -0.12196413511033834 -0.6335234184852703 0.11786194001650668
Ni 7.831835795544534 3.862876225621789 13.218393588401089 -1.2760192156724797 1.4329110158979388 -0.23663379344179244
Ni 4.451101949583645 0.7526344176700008 11.108505241099353 -0.9345324928793389 -0.8501321749553874 -0.2438472804710962
Ni 0.5807901457472688 0.45685230708315233 0.7053017032448442 -0.01485069185958733 -0.7837223800715858 0.72448673433872
Ni 3.1879643179187696 4.505432212447368 10.071614086741317 1.0162022992460047 0.8278545945041097 -1.1071216492353968
Ni 9.149813662369539 5.567376666531247 1.97243168945874 -0.796845547717105 -1.3872605650486753 -0.3189785143882958
Ni 6.36602970929834 1.6807229825894483 7.238295431722257 0.2370382279690627 1.0462147864476952 1.2894306039823793
Ni 3.349288589898462 4.697418568748575 1.1676899417384652 -0.14990945537035472 -0.8954879773823675 -0.17430819592969335
Ni 0.47728216154317166 9.337228481299377 5.092953081842404 1.0942422221695671 -1.4119927776880328 0.5240571587316265
Ni 6.618620809038714 0.9154184853481606 0.9652874012831306 0.680830173991034 0.005310099359003758 -1.4335131682583118
P 9.245888800353494 6.25381759079234 13.026809745948118 1.1238451326376646 -1.7940198837973813 1.0558955040705686
P 3.906888656131405 6.447825622982878 13.24582372329412 -0.16733484993565373 -0.5409418503021071 -1.2655689668734331
P 2.725756391058521 8.893971489239567 1.855006925551602 -2.30842383570996 -1.2961596951760967 -0.09340072165034882
P 6.146368249268863 7.85862755440224 6.2907723689856 0.25395634388064003 0.609495431001789 -0.12198110439120281
P 4.456147032658822 1.5440959403929297 13.197561220092831 0.5494622290682923 -0.9495397649214486 -0.1320433737232113
P 4.007489798245978 6.503704016032124 8.930721367849447 -0.23986978388058686 -0.5415735703488351 -2.316108091728095
P 4.75127528590849 1.2774168559642918 4.220829423129628 -0.39945635732938944 -0.2071077589582175 1.4262420885181952
P 0.2081542994269617 5.907100175772141 4.24937876508031 -0.140304585290739 0.5417445487090605 -0.4922330722424942
Ni 2.2138443785948203 1.8115217699698787 5.236754341451601 1.685786210899258 -0.436611626223448 1.0020116095679195
Ni 2.130181602039504 6.548126245708497 5.3933240324321075 -0.8585198847984505 -0.1200229522235675 0.496483619988732
Ni 6.48692957013957 1.0616894679356752 9.80760325022067 1.7650024135191087 -0.1077158527214403 0.19466541942980667
Ni 8.37918177596042 2.572482396043551 10.820223365928957 -0.062358764742879706 1.2843645023133814 1.4352782305785345
Ni 3.581389731301027 4.39986794709097 5.349660386546641 -0.3018102301391254 0.2679338891066547 -0.7140727380942476
Ni 2.0287244349988174 6.592074929681063 9.858065008950215 -0.7725889891625856 -0.7476922259209059 -2.9583380368484278
Ni 1.1317013789139354 1.2128962538205648 11.82737767141753 0.29252469107214135 0.08478084119182173 -0.3198889420177071
Ni 4.0494350196255136 7.005534968993622 1.994676498895082 1.1657695407855924 1.0755904113963346 0.4394550092095141
Ni 5.516443183427525 8.359775508752477 8.51020731887979 -0.09302199815469141 -0.5091589014635554 -0.06043146581317979
Ni 7.145030605357435 0.6207847230930444 5.254708098279598 -1.59474241951686 0.3584596032020536 -0.6061164872272271
Ni 8.182459962621142 7.595008303752048 5.33475917817857 -0.6930660539355935 -2.0298388946473622 -0.5055081920848455
Ni 5.271474348188817 4.964862611621824 7.557406042875313 -0.677629150555233 -0.5639928185842996 0.4623033745625973
Ni 0.8348428625157406 7.529121704385799 7.1824489119415365 -0.27625037939215 -0.7717037583441548 0.5977812278886544
Ni 6.015123236129076 2.5127063575860453 11.966500845872002 1.4835278096135418 -1.1527278771102858 1.1193955815067433
Ni 0.4952340970415385 7.858445421439237 3.0320739828902643 1.039644589429345 -0.6596774511728187 0.23849552924087958
Ni 7.1881687976446385 6.3351399587730715 7.472716947073477 0.9690276984427313 -0.7206761023433782 -0.7404944226208859
Ni 2.2478759227318856 5.752241623979046 3.1229610634230855 -0.7126146654914823 -1.0325660853160086 0.038218162940934185
Ni 1.264549162128147 1.2585205610527554 7.728797714384983 0.14482869841333768 1.2251764219889996 0.2642407565257836
Ni 1.1251081656532356 3.6690503263942538 4.21633802426198 -0.16101610680647752 0.34232387398245556 -0.2883039681225744
Ni 0.5703776042524012 7.316253803876328 11.294437497710348 -1.1875822657853095 0.8719492708304789 1.1056617768604182
Ni 2.8258384542285366 5.196244327820527 7.508251088155315 -0.9904879251990362 0.32689185569810153 0.9052738531245377
Ni 6.444847749037783 2.031893548555065 3.0719128365526727 0.827577429583323 1.3487030164904514 0.48749889999161844
Ni 4.058204721794096 7.188915542792949 6.788005375296095 0.3282496552775766 0.1799006024158063 -0.3952487470059451
Ni 8.285911485606709 7.732127104948675 0.8386876893647288 -0.9121135017541904 0.1423028466676904 1.069640621570803
P 9.239240947203893 6.266940270776689 8.800248598472791 0.4737830930674228 -1.5903113803287 -0.003446563787703742
P 8.56601376940865 1.7969511329296581 8.917726180939201 -0.5868262715390474 -0.8828903432230151 -2.2781398400144375
P 1.4618446943008843 3.5437337412002066 10.64965857807132 -1.362652279581692 -0.20044448800542897 1.0363700324431313
P 3.9460836697695987 6.506836702995772 4.170727377002015 1.4175440465235651 -1.3444200728443814 1.124577897038631
P 6.93532271175606 4.521924352247267 11.231620749435512 -0.4559054414560535 -0.4324888623043261 -0.5191126702421576
P 6.122162778485798 8.11235698516138 10.84017603202591 0.003598258874219609 0.39585244202821507 -0.4961277793112101
P 2.242730666527058 8.932683850525802 6.44791486813475 1.246057379203067 -0.5196798555995372 -1.4350684285605737
P 7.082285799602984 4.330366008409118 1.9597825551781984 -0.6054513428394024 -0.29824822381947985 0.9109889012314439
Ni 2.507324328529314 1.8317385288631847 0.7395727522282581 0.9919285143003044 0.6160491729599068 0.5245374408021547
Ni 0.6452369840409796 3.98577954905605 8.430023281917826 0.20657296950067006 -0.24445611769968864 1.1875678676076065
Ni 0.2760079347936391 -0.15094269308853545 9.666868199043623 1.517631179055154 1.8420241795908017 -0.6511879256445688
Ni 2.486470104265498 1.8458265135514482 9.871606594749469 0.20644441434260574 -1.0877370740611976 -1.5640131087538032
Ni 5.334765552832275 3.21241566820189 0.9103697596137241 0.1617784388937988 0.4676422702770075 1.073075615394281
Ni 3.8855882061082325 6.960520807187491 10.982404573499577 1.4891742092660418 1.5735254191196129 2.7942931705179554
Ni 7.353882474032697 6.796209554614554 12.140437825539637 -0.5518464130297528 -1.0110096993014717 -2.0606404534092513
Ni 7.238883721192756 3.710267015921778 8.709628342730769 0.3253787614876848 -0.25809864818378775 1.5214855198042376
Ni 2.7678382121603082 8.709379731236272 12.97586806686106 0.49443805031361293 -0.1507373505882888 -0.9358319284170528
Ni -0.07115297399147234 5.075262507145945 11.076889690716518 -0.06868547829185591 -0.7862513171410266 -0.5706542897648753
Ni 8.757963699117257 2.21117613068683 6.303394183321691 -0.605402491879338 1.9301808792333917 0.14658116232807014
Ni 3.2122608551833376 2.8656527199409396 11.82939024065871 0.8923136934194438 0.34209041781541083 1.622099471373574
Ni 1.0206731246674543 3.4017337765951066 13.052653502733394 -0.11332574270904998 -0.1274308146518644 0.336716040877375
Ni 2.9995386610442667 8.835124328893375 8.550059832514425 -0.01723667559326064 -0.5769681477980451 1.5712065411784488
Ni 5.525249312188709 8.232537420798751 3.8350763608138627 -0.9605127189931846 -0.3135406312021762 0.9681787201788745
Ni 2.895786618669746 8.447208437641951 4.113854537974774 0.3382671874145787 1.09021741728089 0.008049866887670008
Ni 5.497209942534434 2.9894758148383644 5.267862651532472 0.7617769861487462 0.24058763588321794 0.4380133916669811
Ni 5.778350384225491 5.840284698294579 9.894478852243354 1.264518414121732 0.4110399484019308 0.09932094378952572
Ni 7.580355706878476 8.996685373724972 2.968456760243031 0.9947384729452741 0.35982125943627064 0.02517804192752438
Ni 4.547395647123203 0.8139731569500696 2.147821179506321 0.11114519011796344 -0.40620524601744884 -1.025319945276557
Ni 6.182093629961854 5.935221505259767 0.5198821509247017 -0.6271609666023522 0.07396549574387261 2.380188467147772
Ni 8.058245281853262 9.040725124179039 11.872734243194108 -0.8229967521911762 0.8165293992992776 -0.2678510995848613
Ni 9.390411306496183 4.8688239002304705 6.192767532258631 -1.2572342217554928 1.084800617140693 0.5346575599552922
Ni 6.947152247703089 6.255657133718668 3.2486619491690685 1.0515840211794085 0.4557172367046474 -1.2689563952884273
P 8.795455769551374 1.8654604469631455 4.129076300357729 -1.3925770921655822 1.0218849514530788 -1.5325446058318768
P 1.5284962521117433 3.5048210336546672 2.0746875095421933 1.2503637198879047 0.5358857759354384 -0.9990070184136407
P 4.565490556997527 1.5766066742889218 9.043014535523982 -0.47538103368216195 -0.7663733472701769 -2.1556316594751714
P 8.28801512132939 1.765059651107875 13.012495005720915 -0.11071273056623514 -0.31811359528483923 -0.4901041988249495
P 6.215542348617311 7.857725996235375 1.675032238160427 0.12165200318655824 0.4497707893132254 0.12201298607040278
P 1.8609617627769772 3.4697786515729367 6.57084369018383 0.587651081433188 -0.6639534528403533 0.2957295711626842
P 7.1189582717035895 4.070653509815335 6.68604187861826 -0.3076988277094185 0.09476880564246905 -2.304439140030599
P 2.1875170587927717 8.6089425087884 10.763683830224009 1.089255310477937 1.3476069552127954 -0.11936474981427828
