# total energy = -340893.5213125439 ev
CRYSTAL
PRIMVEC
9.05336134817739 0.00000000000000 0.00000000000000
0.00000000000000 9.05336134817739 0.00000000000000
0.00000000000000 0.00000000000000 13.25050946085008
PRIMCOORD
 96 1
Ni 6.579005058037678 1.8691478718320844 11.463161172784337 -1.6533018651183073 0.21278655451054965 -0.6634893687197412
Ni 4.674766358723037 0.370041648097402 5.958727604805959 -0.4101626880033001 -1.320167885165236 0.41781866188666106
Ni 2.7691968153320454 1.5550505630911609 4.917887127397463 -0.85881479033105 0.6639467679721339 -0.5119518908276602
Ni 3.4930401924509438 4.299332528776148 5.08640639023552 -0.9531781330049842 0.3447147428121354 -0.3947892908710233
Ni 4.736926735785791 4.6367060288116155 2.6600132809048955 1.5273041833685437 -2.268210753826184 -1.413238991390308
Ni 7.087840163256877 6.079875155878671 2.6239455957635753 0.29054339897605447 0.8761252565850394 -0.3293598576226198
Ni 5.4059882251087785 4.3330834588212905 11.80486489541653 -0.05022547181445544 0.8823270145203773 -1.0564778589366
Ni 5.704857780540708 7.792309347699646 12.606984537627518 -0.27829157819189493 1.1696845595692822 -0.582758786337893
Ni 1.9113003209442576 6.530551469625231 0.3611928929938285 0.5147685343408489 -0.8556577327593069 -0.37449634494994216
Ni 2.9218364828645287 1.7391959271250106 0.09334467924636226 -0.8516031030739591 -0.19972817866469472 0.5271620229091953
Ni 0.1651731405889464 0.22619913151042972 4.815831304135694 0.8070790525196553 -0.7406201495654728 0.3850262979469885
Ni 8.50806807338874 2.5830053916978195 1.4365275813907896 0.5008928048000213 -1.7700818849245448 0.41008221247435184
Ni 6.606581595837437 0.7968315740137311 4.6672402996708575 0.9384367130297514 -0.5129469077510779 -0.19630218370228125
Ni 0.6948690003709175 7.3614146278770765 2.2226137211581207 -0.6435121542668659 -0.4243456643719014 1.511120631630146
Ni 7.514018081965306 4.100412079486485 3.747946626557978 1.1230210940744725 -1.1591571776753973 1.1156104034326981
Ni 7.650026725223935 3.6443399625460127 12.721217131519843 0.03253859605765364 0.8291028650889141 -0.48064511029457874
Ni 7.5264392933445805 9.032411586109905 6.819188916383069 0.5262680503400161 -1.6468453108596866 -0.345227935003128
Ni 6.843489948150013 0.8848945224155826 0.49998816078783753 0.13253933952302335 -0.8065836009404754 0.23363717270731374
Ni 1.8894183472535095 6.636385260458845 9.409345557985034 0.2992864352760072 -0.6934902859572056 -1.2048153418341445
Ni -0.20237611720764348 4.873768288262273 1.4047530000658337 1.351165361988015 1.0577970919686557 -0.20584483308539386
Ni 6.529809094018015 1.9509993092081923 6.978009313513678 -1.618064124961936 1.7364001764013839 0.3134686403136602
Ni 3.3309307092459237 4.2781838773315535 0.44094938261981687 0.28459258070925825 0.05717670632130798 -0.7037731559404524
Ni 5.907345254089435 5.629307482464874 4.817222805731171 -0.4490066574536912 -0.9670325223895733 0.1277570876430316
Ni 5.458180851640497 2.611985200462439 9.414235278295491 -0.3998085984624857 1.2184825549085918 -0.7384727642051669
P 0.21686602158995302 5.543961447718212 12.30564160395301 0.6361911951254204 -0.1639098834145048 1.110175605570372
P 4.068200220822157 6.122679446987425 12.728001720300915 -0.8117666878033117 0.2217936431051664 -1.1140381738495717
P 2.3378313207341677 8.494614778848215 1.4232236673078131 0.5000129732982291 0.8250006699950823 0.584735964668922
P 6.119212009700061 7.619716072382965 5.555567856601762 0.17434933358027394 1.2785705213394238 2.3871944661519593
P 4.9330496965067985 1.052462277005854 12.648207206558459 -0.8922648424593794 -1.2704946863098248 -0.1392067242408699
P 3.879292788868848 6.091010789986913 8.136554348782395 0.2112122680448943 0.4351725797840763 0.6765621427432993
P 4.600746078666953 1.1979226292148937 3.784649857645964 -0.1343869342547234 -0.6461935577537711 -1.1902245885041631
P 0.0947334648335202 5.703979604517539 3.632163191915456 1.0639160603821998 -0.9624700998298716 -0.8113614819450929
Ni 1.1690243006998469 1.0558572874047083 2.7185405441728223 0.7807049334015007 0.2670000644384757 -0.6421199019050297
Ni 1.9169858316922053 6.604915777401733 4.690560852434614 -1.032696440246286 -0.6305309115158496 0.18684798026791694
Ni 6.001599796122689 5.404892768420082 9.025133589150867 0.2503614274405301 0.5272826076474597 0.6606809527366687
Ni 8.602367882227314 2.477026747087188 10.331885766375324 0.9505111276957824 -0.3444344925675552 -0.7852208189939832
Ni 2.161852088379695 5.3432212728547634 6.944499202872828 -0.13863388245653543 0.0355141337462098 0.6628540491285874
Ni 0.9519971292829617 8.988855866032871 9.220234425407792 -0.6007516233708879 -0.48884692937908075 -0.18717836702414214
Ni 1.478477235215138 1.0007494786105076 11.292879220547196 -0.15246076103729872 0.9855560351150576 0.890848164617511
Ni 4.110569950599857 6.91032185952159 1.6782831032168224 -0.4188468460408593 0.18857704714388168 -0.44523587755734934
Ni 5.492511196793711 7.638628543644849 8.021526869788685 0.009782019087428314 0.881700950900604 -0.5750331355588613
Ni 5.272306295643497 2.876940865350081 4.865374917220199 0.7041878748803679 0.680764353750105 0.5477745569532244
Ni 0.49833320638540946 7.720217433550112 7.106592390027934 0.7261409821126914 0.19840251787473573 -0.9406884851784058
Ni 5.155047163147606 4.479965188717317 7.000548561217645 -0.1761236518718773 -0.10502365060125783 -0.34082594928069043
Ni 8.411731258310855 7.181442863293552 9.222606406006461 -1.1822829650595832 0.10575975743633398 0.6257162637360256
Ni 4.777431473184387 0.3368864292102454 10.477084476449626 -0.14887432923762103 -1.033178522089027 0.5039313345160288
Ni 8.062995790140555 7.130381906894786 4.783036409018869 0.5259219798545071 0.8728352729798581 -0.05158327139393052
Ni 7.2681650089218826 6.231555167138411 6.9551124580477 0.06371347899856122 -0.5285725301034767 0.27978256091512466
Ni 2.195412897842501 5.194872898466432 2.391544911924572 -0.34871126556603815 -0.1139770031398037 1.0504985014247135
Ni 2.444036299371389 5.306862974823301 11.297318083476686 1.0511428198769317 -0.4838111667273861 0.9156233146796617
Ni 1.136875815562964 3.4302913469190552 3.8770059098641796 -0.5661463745921926 -0.18781214395339912 0.24928002145089329
Ni 3.3746493898221015 2.5516717090566616 2.352945907029866 0.2820780418175206 0.09074940007043081 1.0535504008771597
Ni 1.0685319928937638 3.2579334589900273 8.335139823712705 0.3140448245321043 0.3725749595575132 -0.3092404611649255
Ni 3.7765461941579255 2.4428865225163108 7.0602690574737546 0.3951330473636872 1.1667753563422874 -0.30380000687564457
Ni 4.001151028785054 6.788029058274331 6.0921334067588 0.4677520563819944 0.4024784319851649 -1.2736615140735807
Ni 0.92423952426193 7.507200901084406 11.702253195785456 -0.2367654339236503 0.3336258319878254 -1.0241439226905844
P 0.19250161629556284 5.732506745228976 7.894017521896573 0.37472954400667075 -1.027053640138212 1.0024119303301318
P 8.731830945436952 1.3611909426360564 8.17442455811148 -0.03254013871955041 0.8782189058892746 -0.31396177789999474
P 2.063605014117387 3.1577308587379798 10.27282797614907 -0.4854170777619252 0.05571451995348469 0.9617764161969565
P 3.9334681014734967 6.067942825996831 3.77100191584257 -1.6768701393565508 2.0098763354825064 1.223345539427848
P 7.023552246344174 4.049595563836436 10.347057388845723 0.11554743295071714 -0.24781860641401837 0.5902872335044543
P 6.3403856204840805 7.761238212529333 10.02919116589402 0.9581820139774787 -0.5544218870664128 1.1842429169994315
P 2.155931190244093 8.595052766487916 5.77205454236315 0.12182195310551923 -0.26828175936437665 -0.1633118448191897
P 6.762516686797075 4.131057706686809 1.5926183901607214 0.10002002673907935 -0.5058282944284257 -0.21102971972044302
Ni 5.29399814875191 2.830714403759283 0.47042350489850915 -0.2885402525030966 0.8531627342515952 0.2508429950626389
Ni 1.7070564953491911 1.210696921675649 7.210794765197885 -0.7842957360765525 -0.6687485602361515 -0.9979230413208425
Ni 6.901594419456269 0.7486360063915973 9.13670268421828 -0.19155541304591525 -0.919222859105462 0.08822509098668031
Ni 3.0047833769293337 1.3652559017536177 9.195124928497867 -0.33796096902806955 0.4255576824021316 0.9402156593070453
Ni 6.315344023782132 2.2811572804759623 2.6128814832077363 -0.7582458330670361 -0.9788801657567787 0.43155195231235355
Ni 4.433965061153109 6.634963882771858 10.387034315294311 -0.5026411549496956 0.7672241253062463 0.5600256064064355
Ni 8.128668871295991 7.090501851409579 0.2341470771881739 0.22089632810187765 0.25333825068066695 0.7045401160134641
Ni 7.777407515388943 3.8138550951010672 8.22395459115439 -0.11700781954632752 0.20765566104188754 -0.20374732712641683
Ni 3.1700434297844904 8.443336541783921 12.595682321675705 0.9715604921669139 0.06518954932345548 0.2461458466972858
Ni 9.40282080066649 4.82998623415865 10.22932657623842 -0.9395245467772917 -0.10627809183364922 -0.9412225033050048
Ni 8.724316655754157 2.221586164677401 6.0004138058233565 0.3037025620658318 1.2589203512086642 -0.009921887099402267
Ni 3.9407107903243856 2.6577952074443107 11.341918561420458 -0.937997568609804 -0.24744888177942542 -0.35691771263623046
Ni 1.1176102632195997 3.5613930684812076 12.399945939472115 -0.10482876098163237 -1.0353881281458361 -0.07630211429684923
Ni 3.017901697110506 8.233877980216215 7.838841812894395 0.1901014542082081 0.22588246846255938 0.1125325573837933
Ni 5.5627652786473325 7.757906575657925 3.522051687979286 -0.10814908360411697 0.6161070227810358 -0.3220728370429034
Ni 3.2115530902611473 8.388355480044611 3.7744204649801896 -0.15917314006046782 0.3914823379849774 -0.7191357544394519
Ni 3.5676761010593534 4.167026710192536 8.91392210184547 -0.4234540057955675 -0.5154467913547961 0.8666317152723074
Ni 7.377448130320732 6.1450503021756075 11.530725501065962 -1.151807165068229 -0.636220505701459 -2.138756223876072
Ni 0.36017982189081044 9.04578340040086 13.721035019276906 0.5929580954683982 1.0723091695419016 -0.6298266863599733
Ni 4.524036950374976 0.2903630173765607 1.716974452394377 0.04788808193053042 0.4567107109661683 -0.5296233399654944
Ni 5.942888749625172 5.70546435573197 0.4090734036509485 0.6021248495693308 -0.23734598901746864 0.7007287126871738
Ni 8.049705456099174 8.849850560262187 11.089112507080182 -0.2263331828467328 -0.9815510277207224 0.00014063934292233844
Ni 0.061374545322432375 4.927201225259705 5.80965948821307 -0.42278886140774286 -0.7875543522231663 -0.4563435574347367
Ni 7.997286495540866 8.997963547262865 2.5696317667346533 -0.06588297584605428 0.4606437274719873 0.7648872496429536
P 8.238685314940993 1.9177010472162308 3.6951166434073817 0.9895433018975796 -0.16872324564274813 -0.1335433553075055
P 1.5455354806133055 3.2067910223416884 1.321104470518599 0.36736127656705764 -0.012799465757513439 0.9220227904481023
P 4.823884268801775 0.8543195114315552 8.123039491386637 0.6952458351957317 -0.20986089622332246 0.10715972310765415
P 8.44579000263216 1.467767109076886 12.302368813928515 2.021392820762538 0.7912361719501276 1.6410292183985415
P 6.562790488372751 7.877202714393129 1.5231456133668888 -1.6049592121488618 0.06999005603589235 -1.0401850353138473
P 1.801111863439047 3.2677925691882996 6.1973289356374295 0.20369770483540403 -0.12292341369981409 -1.099338919966184
P 7.052097493777739 3.9949042096511618 6.076338913047225 -0.25907361050254735 -0.16794188739203336 -0.6258928985232061
P 2.658084914998346 8.293114121655423 10.48466395033208 0.27336148788012926 0.9459638746447321 -0.42222039049878257
