# total energy = -381171.907513608 ev
CRYSTAL
PRIMVEC
9.24837949661778 0.00000000000000 0.00000000000000

0.00000000000000 9.24837949661778 0.00000000000000

0.00000000000000 0.00000000000000 13.53593823382445

PRIMCOORD
 96 1
Ni 2.265224031208478 6.570002391073222 8.65827625688267 -0.7934221238578529 1.0884425847686543 -0.13110517817965808
Ni 8.567347116744026 1.2010407738184026 5.795587503275597 -0.0548719694475313 -0.2811249338756319 0.8006682638973049
Ni 2.830799417048316 1.500096365873166 3.303852167001394 -0.2740711123526441 -2.2663952978840003 -0.19126770660216738
Ni 8.51737812355155 7.98119408702981 2.474206883044941 0.6941546590140819 -0.33498928799425537 -0.26026660236938404
Ni 7.136650588908309 1.2847571029648561 2.3622783729372347 0.679862667871442 -0.14637393141327049 -1.4560242048766343
Ni 4.612962102258389 6.810552735869869 0.4340976516325109 0.5572670698246919 1.0591980860812402 0.6105503546288648
Ni 3.8766153932093967 2.2216456680911456 5.489364417287061 0.05543786925333033 -0.3679143208570503 -0.7810777433598871
Ni 5.824804983063431 0.15582131812019676 9.58612453127314 -0.12904572454746807 -0.15285568248287223 -0.6893163570851741
Ni 1.746140247955827 8.231584707369082 10.561429014208592 -0.34785817353712345 -0.6631502402127676 0.37790562774180725
Ni 9.305626737060319 4.268783667748306 12.137282554028982 -0.5991755371330197 0.31523755928862485 0.04412475823335627
Ni 5.757245572500589 7.732856606888342 11.17910144531079 0.5815066590983469 -0.03433451161581184 0.8356499221788124
Ni 7.458401703690138 5.172757251054863 10.856593813104727 0.10055867285136875 0.2598922497491008 -0.07506849900006426
Ni 5.598469397203825 4.833489705936822 13.54960902612192 0.46282633694560293 -0.5339633621017449 -1.2970755221221468
Ni 1.8497683376692617 5.955919255965471 2.1757940533493993 1.2137784645647032 1.8822346903714164 0.8523988595023773
Ni 4.70182053027862 3.6746307899660753 7.17583412219683 0.7092974281927913 0.4179983819976349 0.3144104354016392
Ni 7.093765854236181 8.140700884288856 0.3263410854132237 -0.04236663789166897 0.7064018518125511 -0.10476114096849054
Ni 8.832942072602163 4.04605494980376 4.913437320531003 -3.5252673123532317 1.1106679718257582 2.4887982924383913
Ni 0.10816811909677476 5.266424836295172 8.796342536481507 -0.8609380073216398 -0.08168728986816254 1.1556851599663969
Ni 3.771294850089665 3.5065969870206586 3.354895821864972 -0.695840274246621 0.8405193344559717 0.011924262241411722
Ni 5.955170137244651 3.8790754620950527 2.8905051039355976 1.2606188219570096 0.1335605816986861 -0.6694697546728922
Ni 8.951099366147798 7.114583955971562 10.78867001639867 -1.0019216209572743 0.22378033451789203 -0.007845721296663907
Ni 5.781726032426645 1.1402049349844021 6.366939426807091 0.869194076682845 0.3755301855310952 -0.2695063758000971
Ni 7.6845338252058175 3.39748460840048 0.7408959868116017 -0.2110145502117914 0.38265882615607644 1.1090821153958772
Ni 0.5480977986965585 1.053963798297407 10.815051943102512 -0.2184308972805206 0.2847872132185676 -1.5542053786347618
P 8.016689366665702 9.109820051168946 9.638155913042688 0.8038111804016608 -0.6409641910340316 -1.0853474907830987
Ni 2.5032865619816613 1.0799424956651036 12.664440172383802 -0.4041517059225298 -1.8459751938187496 -0.07467152067196173
P 3.8374947488999074 8.13332067763189 12.36161401610091 -0.5035520967997393 1.237517717163172 -0.006215127671776393
Ni 7.221939142530557 3.060492164582708 11.929113559568222 -1.5084325432750216 -0.5317846092828713 -0.2602210938434293
P 6.962734816747564 3.2472354387900864 6.643709199336422 -0.009960453646821554 -0.2867278818847062 0.19300885766299017
P 0.9285650237838453 7.77426160087737 1.0085764521949838 -2.106838549231868 1.1033866076729966 1.5790257801125516
P 1.9023731189535114 2.1568515229298497 9.16131225242709 -1.6304457864557405 -0.46282119473928035 -1.3047474368451077
Ni 3.215199053000944 2.207884079738304 0.8817839469255261 -2.1681513892087367 1.4668117824104414 1.782007175607221
Ni 1.0677253866502487 0.8143900823516064 1.5754752811082706 0.061652482704474466 -0.5249930402823346 -1.3653781631532873
Ni 9.340770578283973 7.799722389005981 8.441214020916474 -0.7489808628253423 -1.5725967366577562 1.4215675658606615
Ni 5.308763916590407 7.68750255495129 4.915454392049655 -0.09920344437505496 0.4622390969835652 -0.7617751863765332
Ni 1.3355214567744984 3.070979826674188 4.520597613657135 3.2628602666020776 -0.6340942033870758 1.3041974778789087
Ni 7.299819744358031 8.562445475731254 6.770148416517791 1.1102684223944945 0.20564582970071035 0.26151513006450444
Ni 2.3706278097416336 9.152510569876418 8.528439185157731 0.9948415741820416 -0.7970152405257499 -0.47331618073333326
Ni 5.152438561800029 0.8307846842824413 12.065975700186184 -1.5287614846403608 -0.1879000756815151 -0.7671989284952658
Ni 4.601780811721705 5.862982292687443 8.428828591398917 -0.7258920993266789 -0.07499033746396117 -0.050256582162706995
Ni 7.416367819910793 0.18944842514367277 11.624406282941939 0.799138714626656 0.3611201807533523 0.7395114898823264
Ni 2.002329602097001 8.1737638401769 3.728704213878303 0.23138437211739504 0.04399800284750487 0.08424219507953233
Ni 3.1574429244636484 1.4423494857151395 10.582098217037734 2.289161387935922 -1.7296204344753887 -0.8329350943508107
Ni 8.921929977932164 1.899487624621464 12.927280960895516 0.5096782643021351 -1.256976854329048 0.08553880240376882
Ni 1.813995606655289 0.9120224477847002 5.646814374996596 -0.6644062241070557 0.3054321431624288 1.044503203073227
Ni 5.318622688891569 2.6981406648082884 0.7189967495396301 1.6381837785299462 -0.011058314696690634 0.5006171825411314
Ni 1.4968409363703432 3.314193704700418 2.2781116477203627 -0.20333363662776593 -0.805501166509574 -0.47706150670837844
Ni 6.1197265495847795 6.675896333707655 6.823764045656183 -0.6072894244894057 -0.9173287274065428 -1.049670091986147
Ni 6.620655764331632 6.865025689766536 8.96015445429045 1.7703374525787767 0.9612549964758478 1.6483735745787547
Ni 9.467843309445295 2.7799148343081717 7.383475034201306 -2.0549973961908607 2.065861849709191 -0.011609044993838072
Ni 1.3645243741632829 4.92838732561996 6.913534363872375 1.1389074262874255 -0.14812356711452554 -1.334406140251805
Ni 3.031211795815842 8.387512381850877 1.149705795007839 -2.5977922405413065 -1.1714089984595568 0.7315855501670304
Ni 4.576153552766246 0.5096661586426381 1.0282681013353538 3.747168941791173 0.35446230911720245 0.06966532570662196
Ni 4.221191508028062 3.2446828861117365 12.187866564442869 -0.40763709336796894 0.3526774493026378 -1.0069805235374207
Ni 8.838574335577217 3.0781750657457683 10.077478898962399 -0.6716022276348627 0.8407571614983907 -1.092784663787434
Ni 7.349797985929775 1.7034682260068945 8.65824943658279 0.08539173530294325 0.877535763779321 -1.466566756279171
P 3.1218736577936017 4.304796856623284 5.43535573202972 0.01721842076081551 0.6797240854110487 0.22056928377976204
Ni 0.5346959722972958 4.7535097220152 0.8037424232987659 0.14363622076713328 -0.9906177659086809 -1.0704893427243434
P 3.9975009586395 8.802459414530276 3.1092995613389487 0.14246482616685144 -0.0019779496619772388 0.6212787967899622
Ni 4.2364698305810835 1.240235405162047 8.20620253046426 0.382132007118329 0.6078872059744047 -0.20849718310657642
P 6.708274909529766 6.472311760850731 12.42618065113218 0.7355280797545461 -1.340614325945046 1.6955605166772023
P 6.6387363458032755 1.1396777773660474 -0.007690027362491831 1.4028080258649713 0.311558824885457 1.2778506124542637
P 8.46464386495753 3.0493108740460237 2.884941278967137 -0.22398962231522068 -0.9229967243255974 -0.010016246585421459
Ni 0.37037446879060926 0.7046081210723243 8.144953289076918 -1.3454199748638054 1.1200740956310062 -0.06731328053467762
Ni 6.964575244222172 2.4274313552141833 4.53192687826213 0.8066854166256623 0.8077840490064799 0.5442439180921466
Ni 3.998860470392099 5.856610159370838 4.023787627036866 -0.3862131191662381 0.2778514053306828 -0.22982371249849454
Ni 0.5831667280481313 8.781761541725398 12.414011633689526 -0.8980295128572986 -0.8316557134177548 2.746453168216541
Ni 3.413169859641353 6.619832658576657 6.200894025404591 0.47642695844817307 -1.70051837490311 0.777768733591312
Ni 6.064680196173414 4.915254627057437 5.206964231458529 0.14067868080070609 -0.8491487279961957 0.3075471326229026
Ni 2.4982276985213088 4.320149166210459 8.88700624813512 0.923227866499797 -0.10991594569655264 1.13456509015833
Ni 3.887278774506995 7.900335507077597 10.039916606559801 -0.2642939783612222 -0.19756048158941458 -1.0099149235753961
Ni 8.874439550383883 6.3886694187384325 6.623107509675945 -2.6453651052242635 -1.1958067105776309 -0.14898977176956277
Ni 5.613599745688535 2.5433690377351668 10.079955614930741 -0.8979474946664535 0.7447112889157109 0.4511229324657457
Ni 2.44081376001698 2.722408412011149 7.192794724938952 0.4018675378740434 -0.47647632362886977 -0.7466182761304369
Ni 3.82606375212295 5.96538034795805 11.905263839108338 0.9782481885997345 -1.4773988138976686 -1.5572307957246472
Ni 8.701439367770806 6.389187327977519 13.358373814103404 -0.006952005837800931 1.0856673360163624 -0.781135593181016
Ni 2.057653406886449 6.904691988452918 13.105942076459382 0.01709937868444797 -1.2613721551832662 -1.445838522592884
Ni 9.100562423520294 5.078784469298665 2.9259143736442836 -0.7818007375688407 1.0174510840514412 -0.27612773777135674
Ni 7.77275411505646 6.384276438585475 4.398787210300094 -0.720201990920437 0.508898191603001 -0.23054105028049326
Ni 6.979178435088527 5.748182160816594 1.621523886328455 0.4676728664046268 1.1321071155361406 0.4453173815275621
Ni 5.857664474607549 8.053285203434651 2.3854649846035048 0.40071568365778726 -0.46733990854524027 0.49484608438530897
Ni 1.60313255931336 5.674324603971303 11.016142228070484 0.13018986545424027 0.2097415970366388 -0.92798415023786
Ni 5.204849127119621 1.3075266127260765 3.750659866263818 -0.8632759114261972 -0.858434781283812 -0.4884527792644555
Ni 7.201111792415907 -0.25906005106639046 4.229601984135639 0.18839861258448842 0.3270805746701399 0.7827109080879359
Ni 6.7054449054733345 4.3600096808614985 8.764505915684582 0.055278975077962866 -0.4031739153902927 -0.8482989784013907
Ni 1.7968028695935063 3.246773019826617 11.000778820428184 0.5624252169868637 1.0579870964922746 0.6970528064974834
Ni 2.9631252276346456 4.66255191190082 0.561728060063775 0.24056166774128893 -0.44862407730329196 -1.3423372221734238
Ni 3.571603844905151 8.89080918169069 6.169450460726616 0.6470384222525696 1.0904022795981867 -0.6820437346831608
P 4.409359032642926 8.103161712834432 7.901874437388022 0.9327255215775871 -0.2709986440749075 0.6122817354976745
Ni 0.5821549553560608 0.9302852223279504 3.7986034643962983 -2.3546790100227577 -0.09026628978642519 -0.8477929852992496
P 9.05384885983064 8.040614923835596 4.995302124147726 0.16274517368244232 0.7741833302328989 -0.28319955701647354
Ni 1.3082109927920107 6.027067037684833 4.713146095531906 0.002982736777407766 -0.45675313416832947 -0.4841243270924307
P 1.5417325693439274 2.944341769338529 13.167922864646929 0.1484549823120153 0.8200888345157619 1.1986007283830002
P 4.420938003488192 5.2557614549975735 1.9936407497734159 0.9262437705079855 -0.193982277319853 0.4320006098139979
P 4.42247323444691 4.6073668328004125 10.130553497913533 -0.06397084642500596 -1.17269917802589 0.6619364224103246
Ni 1.3380185191772316 7.721740055006545 6.516741899698773 1.7870475662446064 1.8881924506167482 -0.5533631067845953
