# total energy = -340859.6293393779 ev
CRYSTAL
PRIMVEC
9.36695429063353 0.00000000000000 0.00000000000000

0.00000000000000 9.36695429063353 0.00000000000000

0.00000000000000 0.00000000000000 13.70948443059181

PRIMCOORD
 96 1
Ni 5.934452518640985 1.4493769123400693 7.350682590425402 -0.07625891976373962 -1.1038080114811313 -0.9741117978338577
Ni 9.065197696089612 8.625053888796096 13.287108726300138 -0.13669141401818394 0.3081433714460048 0.2030302464547342
Ni 8.60274180407471 4.692525539266706 10.029241804359769 -0.42253843595983365 -0.025463948599059375 0.21975810073237634
Ni 1.3540868880450867 2.3368958155101853 6.377843848929002 -0.4586860895249842 0.26387128900150686 -0.47850646668502106
Ni 1.1923570581544773 6.301824459351613 8.466662441354984 -0.9837143539206286 0.8825869530499831 -0.708520955038083
Ni 7.599850126969542 4.632633234603173 7.025727028070714 -1.3488385136270513 0.9920388146259237 0.3476496570707432
Ni 6.4912336386761815 8.186483729795272 8.080178167451447 -0.8934848309094097 1.0890899885446663 -1.500535657025448
Ni 4.002124818664525 7.571168513444404 5.22800245884417 -0.645379803603224 -2.562853262572277 -2.981710907246413
Ni 0.5846590488965674 1.2500012938284502 11.955849105453211 0.31306214890386086 0.33839060036632046 -0.6997167264828917
Ni 8.094434671626907 4.6123256780641455 4.101726451942402 -3.533744496586308 -0.9147529962595665 -1.221776138058199
Ni 3.81024276345144 2.3797496306236763 11.208175080560336 0.13786049462562064 0.5287059703575475 0.43498746035646374
Ni 4.704459038819621 6.126456344257671 7.252028892904789 -0.8204572735987742 1.1773667587048884 -0.34623349344950693
Ni 8.04333793688503 7.654131626113298 1.709792287395309 2.426018123887377 -1.3112641549177029 -2.422695230161731
Ni 1.8114565239711071 1.1265635723933494 0.18912629731004935 1.0606595011181152 0.9535835959735192 0.2990470655716914
Ni 7.4771898627266635 2.678162055079545 8.772328635083833 3.0422871261675732 2.9302142820290182 -1.6090385244245577
Ni 5.335932251032955 3.842081040516086 7.648109611307513 -0.2972681192943977 -0.15278831958004652 -1.0594749938917107
Ni 7.353621003933839 0.6355131795266559 9.534932648153626 -2.3834010605477984 -2.585044453957335 0.2767203770500331
Ni 6.034557157355276 5.525388265128139 5.389225536516716 -1.200057258323869 -1.3934967757663743 0.3806939891202218
Ni 0.6302470779186111 8.81397598650626 7.840357914426813 -1.5958068562256322 0.30249851445540155 1.1131128338218248
Ni 3.9941348067974634 9.089074062149566 0.2589335229129548 -0.17161907913330443 -2.060887279312735 2.90662441052422
Ni 2.666706270186911 0.4653399771894235 7.114906988191153 -1.1421282472175684 0.735675403965688 0.4230099762796134
Ni 0.05011039447270891 1.4318981759462388 9.554482418104088 2.6708565646271483 0.25412115159327847 -0.6237920501301192
Ni 6.040936053113153 8.155610249005314 1.8426231904251222 -4.573700446608484 2.602700990696834 1.2571334345115703
Ni 7.477508339166852 0.8944438923533737 11.704581497794656 -0.2246902479266711 -0.1747357703854152 0.9282474312015756
P 9.28660439069892 5.35558412078336 12.052665943270268 0.5980789616347313 1.0748273079780652 -0.09529562468021652
P 2.358926891607875 2.454900703553849 2.97440977643755 1.6954694996252928 1.0855596067939046 0.8899655049022416
P 2.801487373065168 7.493291656864389 7.334944234107655 0.13774428076273051 -0.07606145904095288 0.14780912119790027
P 2.32496231595727 0.9022765393911663 10.451712979309104 -0.8243185563263933 0.696639887329781 -0.05074920552840938
P 6.25243251026015 6.292110927925887 0.9850214020289906 -0.05319843839985032 -0.03147313090761677 -1.2979147301939906
P 7.344432021939012 1.9025595197730336 -0.042326455596356755 -0.08391077988204258 0.11827614473578986 0.8211982655298566
P 0.546964552114117 8.657126339713821 3.6604052185156037 -0.5055357028886712 0.2973979600040426 0.5215966130062759
P 3.3300364933731377 5.449899981849533 5.148980960470304 -0.5157476104246667 -0.6237604255612355 -0.5976058786530546
Ni 8.874074364160503 3.552595323339596 13.071060866144693 -0.13393699120149835 -0.5918651195145356 -0.2675957890409456
Ni 5.57335643719288 2.0750238790887927 9.482726866043564 -2.8078559968040544 0.6301295623123729 2.452101708348306
Ni 0.745499954840888 1.420498592778344 2.28692030517685 -0.5242034545015036 -2.1267993086245114 1.1601079716244407
Ni 0.45821828196957926 7.809969641860435 10.778917547348765 2.8718327567663313 0.12178698610252574 2.974080644394665
Ni 2.153013139118285 8.834592652531352 2.154692633992569 0.01717754022055106 0.2999050426966125 0.16397287544195632
Ni 6.281732342757418 6.248198646996478 3.280021641832485 1.7839311321028113 -0.5071431565851072 -0.27684019045734903
Ni 5.975283071663872 0.11327176612522703 4.5654637432813505 -1.943096044633163 0.9107770423309539 1.0558646508326333
Ni 2.1327898851663667 5.823800689584008 10.763028383069635 -0.7638971178155425 2.575208698813836 1.2881159989360138
Ni 2.664683008096307 4.667618808253203 2.981894909477373 -1.134143172129563 -0.9649339879893318 0.5898794565430745
Ni 8.038691927639936 1.860286455815179 4.340408620041068 -0.4974380134822014 0.9414060800707207 -0.575088671387145
Ni 6.8261678172582805 4.268549094789777 1.0846408325197012 -0.27085183408439806 -0.04550904017539259 0.14104146345676355
Ni 9.202058262783211 6.530518644268746 3.2025082230724493 0.9791632442148362 -0.0285479868410218 0.3878043749127579
Ni 2.908130145757429 6.7281332754052094 13.069443193167622 -0.4364632735710418 1.2943948899661901 -1.213376344030278
Ni 2.836454212806952 4.5253066742599195 7.155432178509625 -0.6084687895094876 0.15193445622018348 -0.16691755989257703
Ni 4.091026580247507 5.091464115372408 11.819549619311589 1.6796464165501075 -0.7260317102283367 0.7612985038504307
Ni 0.7457753432921091 5.0952296309299205 4.961339325388777 2.927024571447127 0.22568372218819194 0.8050949322100909
Ni 4.054495459167154 4.640033128360475 9.438952279339766 -1.0568915494352507 0.29206626337848407 0.6718801638865977
Ni 8.255068567885106 6.68424909533817 5.411709036498554 -0.14737074810890105 -0.452341378253879 2.059760364797143
Ni 2.458506980891268 8.359079226468756 9.322832959161095 -1.3788137198329027 -1.9299276255720055 1.0334870544683814
Ni 6.648561000128902 9.077290433862622 13.464303397448097 -1.1841950944806316 0.3174379093740533 0.8877034483409422
Ni 4.358743496041757 6.041835280708977 2.1760108848814856 -0.985908790468786 0.6898359770340701 -1.1957576025072503
Ni 5.704643666183194 3.2441789918801844 12.881171162073604 0.5432023642015097 0.5915594153486586 -0.47916749730778774
Ni 2.075136282538271 3.8265974653504906 12.018378207702415 -1.3593196156640333 -0.396808121073265 0.9289506279161872
Ni 4.168463189983733 0.2986793826483789 9.21255393487822 1.7216088770248221 0.8221470025963712 -0.06854226784577228
P 3.9977317171807596 7.110614113116506 10.795231971345085 0.17354714939395272 -0.12706983176801986 -0.4548888272660811
P 1.7858847392148598 8.502290588057864 -0.2826159930225591 0.40749465425283365 -0.7616502307628947 0.36625904464181436
P 8.330865960649776 2.6533489936072745 11.064500054742131 1.6290944146341684 0.9002602019600302 -1.1133203218469407
P 7.564265068255629 7.902440212964343 11.931679553729202 2.446854343906437 -1.6356844091468603 0.7748806134102397
P 6.14795350397034 4.196067603784707 9.590332561619688 0.6191339825328176 1.128497029587379 1.7411523463743885
P 3.6214143352825072 2.443707193376664 7.029318318281536 0.9788264297007079 -0.455512576893009 -1.7312322590471991
P 6.279531108538474 7.610416051220474 5.625604370596496 -0.1799458538314449 0.8461508217101363 0.9322879198195363
P 0.33914743454669927 4.434821897430123 2.7805025857430357 0.4635411036244404 0.36685708323712946 -1.0891846051410017
Ni 8.99221038956189 0.24462269040357956 5.676987734134543 0.6295600629621481 -0.21608296587363432 0.23754447818151994
Ni 3.9597861860278085 0.07422842794904046 11.899860010572802 -0.29791603729104177 -0.44292265604314046 -3.734429125627001
Ni 6.138239972544616 1.3275222061517837 2.6385688766963287 -1.930815170383281 2.1280964301693803 0.9674575257421338
Ni 3.7469502544411974 1.1318933692894317 2.050692279058453 0.7844536018106554 1.6338928644640764 0.2256934923802049
Ni 6.028562306716449 8.253035938840378 10.785675804748632 -2.2114096856767396 1.5477578232372053 -2.3531003526817282
Ni 0.12492519374985965 3.756991629261233 7.906039933433877 1.7968820358365247 -0.1767024071934828 0.4969973264003569
Ni 2.187802006731729 6.83542236793197 3.6680271090856253 0.37626320704237776 1.212654378262589 1.105649178454928
Ni 1.0702494442048667 7.619736170573026 5.984985362744649 0.8104268859459656 -0.6341798211223466 -1.3969736785713813
Ni 4.118986938305162 3.572378330447726 1.329297243958124 0.6212392018012786 -0.4430111019918887 -0.1013073780919352
Ni 8.569648355157561 2.810985464546059 1.6403119684913021 -1.2474259774158196 1.4823073069428796 0.4353343021729212
Ni 1.4559056793639171 3.4488563064255167 1.082138919073403 0.30045577299376 0.3851425118098787 -0.5485554009833069
Ni 7.866143265737069 0.601824929022684 1.7082289427521524 1.9428127090647895 -1.0686887991804948 -0.7773483582244419
Ni 1.5204533602266637 6.8547557612421866 1.3761441916143216 1.7321005205847655 0.9237544284272285 -0.21111199502160416
Ni 5.798809655983398 2.965240465046381 5.526991887674026 0.6229759819867271 0.14623303496003204 -1.7682533163562386
Ni 3.36999591966257 3.1787882851463527 4.890145790575643 -0.15675193221348488 0.06379164053466434 0.3979592039585727
Ni 7.669493430875292 8.2498511744385 3.87768670652907 1.1112937783352153 1.1400124864261463 -0.35748052711823597
Ni 5.1158743978173815 7.3229067613639724 12.76380416360573 1.3682220603599855 -1.0139890936447697 0.5384514797800856
Ni 2.678611668877457 2.7341389729195935 8.900525705908915 -0.497443155688524 -2.2599503135896044 0.8571168338033367
Ni 4.561397548496484 8.887178732978814 6.695067927350428 2.7983156614137874 1.2636434677159463 2.4379331301574076
Ni 6.6578998533897 5.465486593510483 11.814079318103659 0.49530425496865016 0.12450412792337266 -0.36920295776148676
Ni 9.2598711036314 5.683886495846255 0.8862890220937442 -2.8356758472298003 -2.612152880138353 -1.5845263982158067
Ni 5.7508227500104105 6.370287527037844 9.382058336691058 0.3841958316258932 -0.7789815229524908 0.5174496807174379
Ni 2.1574062406020507 0.8000175012285472 4.465590468333903 -0.018070227238149526 -0.3715835421785213 0.1501511390675156
Ni 8.186277656804563 7.813332378390652 9.607304545795454 -1.8293818082364426 -0.7441016803561702 -1.1358760956602696
P 4.551571613621282 1.618019554373576 13.350007823237208 -0.8207562928964316 0.6417332079895723 0.5130446096712068
P 3.9758692462572864 8.852923781750391 3.4198993044491566 0.7709694512812916 -0.5328809276708436 0.03686653400904619
P 2.6779091473182195 5.183054192788738 0.6408635837218092 0.9838411093064798 -1.8169811205792448 0.4343652533914325
P 8.100242183183271 0.7849872866425127 7.623322777306787 0.7274563584900052 -0.40569076827487544 -1.4259289281531506
P 8.835370109723575 3.5492794215799948 5.710836159554021 0.7860906231934461 -2.6438036742744147 1.026532477527419
P 1.648949236888275 4.4522818999157066 9.420129385029261 -1.107518884673815 -1.2838839631325374 -1.4259705800243636
P 8.049276585799117 6.700875438906792 7.818436431692366 0.7738660561027962 -0.8383554940354336 -0.8291095499571335
P 5.916730241439952 3.671574374612069 3.1140129872984126 0.11630128039760616 -0.38109225299990496 0.593909403638074
