# total energy = -340867.8554019461 ev
CRYSTAL
PRIMVEC
9.23177853455158 0.00000000000000 0.00000000000000

0.00000000000000 9.23177853455158 0.00000000000000

0.00000000000000 0.00000000000000 13.51164104778763

PRIMCOORD
 96 1
Ni 1.1260923354748853 0.6432435503206848 6.432365341690619 -0.5584315224464382 0.4127335340542698 -0.061668680654390566
Ni 0.8327378043431323 2.976399226887906 6.47615628277379 0.005200056143700722 0.20206633987956815 1.4881611946204951
Ni 3.3551698649613533 2.5670344750272505 13.30979010662338 -0.6406569442062579 -0.5033057851168881 0.06299511277529796
Ni 3.8430416607708406 2.3572146143888406 8.680283084640255 -0.6072786258561282 0.604076831089379 -0.5864038392896482
Ni 4.653462563886092 4.75855712977432 12.097458189568954 -0.04326909510128032 -1.1124021809080455 0.07641215751215227
Ni 7.8520153074231835 8.22217269620168 10.71520431198643 -1.504762293512286 2.1176500380250753 -0.6044740665277977
Ni 6.858602091848651 5.903297657720588 10.576844878805066 1.0439702133878923 -1.1119977463807753 -0.10209670676244997
Ni 8.744082059160666 3.5448552167977403 10.555942286035904 -0.9030156532179804 0.8493361614166535 1.0433328369142096
Ni 6.274876740380566 5.786986481014177 0.5724736598917872 0.009197350228551901 0.8388715144399037 -0.48338513493356094
Ni 9.05826717518966 7.973090081810404 5.8209234217785575 -1.27625961381806 0.44950750834950975 -0.5011892529945174
Ni 6.581787214990031 3.985857273410589 6.174982435293887 -0.4507622066922172 0.6947611822498293 -0.3623782215301695
Ni 3.0782257432044173 8.150026347605712 11.86215308133822 0.1277869124397025 -1.5018273792536778 0.015422762312973437
Ni 4.842594009015408 3.9230165574934097 0.8091376859105368 0.22151056464710886 0.9565928151134881 1.8532249334026276
Ni 1.7963379145874252 0.843840864286366 12.337222246791612 1.0363399505361444 -1.0197504216085793 -0.25197222357107574
Ni 1.4177796074183553 6.841274043695787 7.042956091629481 0.8871840855023624 0.835974909618399 2.453765469203974
Ni 7.924955588965953 7.047447351845981 12.56132643822753 0.3766804970854545 -1.5375811398145196 2.1351736487311355
Ni 6.934154966693104 2.1255154388211355 4.515576720939273 0.6181397369403483 -1.2803489533960855 -1.2891632092536056
Ni 8.139816000638707 0.7000309891074258 8.427480986710998 -1.4089804732242703 -0.8537656579429167 0.46203726538540424
Ni 5.330659672172369 7.164737097068217 11.881636749759434 1.598319595345157 1.8376910994330866 0.09299577290244629
Ni 6.198973057954968 1.9652979238009138 13.551094947669537 -0.08743036299952685 2.037650163161665 0.9601964733043464
Ni 0.9452694909516308 8.767530776426662 8.46800203186676 -0.5343323154053895 -1.3650305500058812 -0.9311849165633447
Ni 0.08255240926613806 0.8830316101673135 10.360523999781334 -0.059372942641678396 0.8648442843545816 1.896952199087249
Ni 4.0132110329614346 8.227120929451512 3.202664577659247 -0.24528581268983563 0.8915094523505938 0.008270467538908336
Ni 1.6612400687328632 5.313110061336678 5.599804787493749 -0.8086147724378914 -1.7670613529306665 -0.7182374109948986
P 0.021243245394009333 1.6094590234001969 4.506780682430989 0.16672781247927412 -0.21064328291530177 1.263570705496482
P 5.802911298842461 0.4290912160551367 3.418580181608971 0.5841978327772649 -0.18096426779363028 -1.4033389586677767
P 7.397848734738953 3.1675155043842262 1.5109661022824072 -1.489540591466525 1.048374255992859 1.1218550987908291
P 8.675545335939109 5.7808565801225935 6.027691256461007 -0.5743317386164625 -0.7943047835731224 0.9896165783376762
P 4.945703742536632 4.80152182668611 8.068557749129742 1.9102221767232779 -3.7962245616672425 1.1869806276455686
P 3.35295423813307 2.8029618051255953 11.095246165952604 0.35994030151263817 2.8788019889953134 0.4546849387853911
P 3.0928765756064394 2.4848901103686543 6.367441936554854 0.03210227985118343 -0.2846807695476904 -0.3027764507071366
P 6.728526333471531 3.915095691582297 11.751154793130462 1.1981628695146334 -0.011517256610980166 2.2312380332565764
Ni 4.579479091378338 1.70738972921031 1.882590420656796 0.6070230582018965 -1.0692505852212362 -0.7753320991253615
Ni 0.23552944044709956 5.132241057921167 8.839396478957715 0.6978259372180821 0.23046777384039663 0.16415928042114952
Ni 4.430219697379667 6.026615754271444 10.0061538753322 -1.6865675691499726 -1.2852255647620963 -0.8709187726834356
Ni 5.925601634458638 3.64597088617351 3.2706547795964944 -1.4478002743049454 0.47863553606371767 -0.8229229615304472
Ni 4.098808082760772 4.492949631955431 5.576537936263241 0.3867841611783597 -0.2412206414815265 -0.4014872717164892
Ni 2.2741193765497734 5.3305027319387 11.207149168448577 -0.0629380342851174 0.35592243860249667 -0.05248341461069671
Ni 7.243327227023109 5.464298897031646 2.9486180359947713 -0.7362829556426997 0.922276044109489 -1.0213326784940346
Ni 3.4466290940771898 6.906284227548993 5.237490717687375 -0.3431494552075445 -0.08557865450276875 -1.591033346096389
Ni 1.0463666967704985 7.356342658822449 13.034045192887254 0.12954888943613174 0.03860459974607545 -0.7045789396711994
Ni 7.764673451496573 1.8713461145032593 6.593559578870975 1.132097602454444 0.5966064908542629 -0.6114057606506245
Ni 8.64573592332025 2.1489364607517785 13.590143524162336 1.2040154716406686 -0.14548998614642042 -1.012527935718211
Ni 6.993496838577287 7.839727810304663 3.87657055692768 -1.6508829712641697 -0.9455370715199588 -0.17845512821853138
Ni 6.13919729248358 2.5335877416986268 8.301552143214147 2.0395581788176553 2.059252314812473 -0.14418180885795812
Ni 6.843231180727437 9.20868054149473 12.636870081293534 0.29327673874681753 -1.798544254030296 1.3664508273921758
Ni 3.764109955013255 0.8814695932533739 10.50262507276896 -1.1835070672746713 -1.5592002607461921 -1.219552905154635
Ni 7.269139279572607 1.7745878445564462 11.386935284251765 -0.19477623397605812 0.8908229678065303 -1.2663009599434514
Ni 5.221706222891548 1.818374169750391 6.182467561262103 0.5890837001146564 0.8893111591476942 2.3799159302126753
Ni 4.334393837056423 6.149287626330719 2.3346899981458074 0.9174372279599491 -1.1701504434621073 -0.27295962445602023
Ni 0.7479734609600915 0.2686678323754538 1.040102011913528 -0.6767642314517763 -0.12202687002747371 -0.059402510328033176
Ni 7.379089760926155 5.445733790566323 7.964571919833499 -1.252493621746714 0.14512154706340813 -0.07489109288193553
Ni 2.6404363454925788 0.07724044394532932 4.846733538472916 0.22531091222980554 0.15532599840023573 0.6445436808551738
Ni 8.554553647557949 4.602336974823459 13.593386647932235 -0.6380349332023785 0.2159310136768023 -0.03910622197284233
Ni 5.766621177750874 7.684920117456833 9.40284515223563 1.3564865170906124 0.9103569240743999 -0.38585573582681937
Ni 4.335261624230834 6.498571964031099 7.307149280989648 -0.07987260525692695 0.8332626528935585 0.2641520534667193
P 1.4475243975880558 7.817977740273684 3.873341280825457 2.4223149640041766 -1.695141683972229 -0.3162827127236876
P 2.243626812325527 5.879627377771763 9.000265757536589 1.0336734594475747 1.0769340699084227 1.234654536682764
P 3.5548901599741725 3.372867184252265 2.7784800518509125 -0.07066882727047184 1.1041497110912661 0.2908778994973378
P 3.3094540980711122 8.297596326147817 6.962710703798293 -1.0050925624860885 1.9522180615390894 -0.6222987534140444
P 3.1230183322495404 0.41977819795358673 0.8114447073454866 0.5777034833021728 1.0925635489155636 -1.3488631962173996
P 0.18405304380332219 5.434092517939385 11.855613289483403 0.49299566144013157 0.9387827835152606 -0.9586034177856136
P 1.9453018916756588 0.9368685725610575 9.56195854655309 0.9235909062661706 0.5818529866941721 -0.8793427350810727
P 5.521923658123908 5.828824900954922 4.369164407414945 -0.385918984964587 -0.09749031833869017 -0.33533433003849994
Ni 5.5628758273333405 3.8340683721162945 10.11481467723612 -1.5499098365832018 -0.3892346796013813 -1.7894952564541502
Ni 6.465882236535471 6.863005650169864 6.156241001860148 0.42836969792963 -0.02656103831798006 -0.4671583886620535
Ni 0.8785541976184913 7.544910965466244 10.501963154254012 0.8954823209554126 -1.0303382244267545 0.2341760759299193
Ni 2.290653491755836 1.2352211885462792 2.7602122086517182 -0.22976329157420433 0.3072877083139288 0.03556504158880327
Ni -0.07362250997031204 6.183685232839815 3.946493893272604 0.17634862339848983 0.7652585169394434 1.5787329314624812
Ni 2.186352858814409 5.63064631294345 3.3746812287179213 0.34998216185866177 0.561408345686575 -1.2473814973311292
Ni 1.3299300036769304 3.0478808874353898 12.012835092396218 -0.6518972930067676 1.6924836775240917 -0.026264847233799928
Ni 0.06636356257414953 4.490364733989102 2.361145505653353 1.2582474935113557 0.7354614881826689 -0.9575402666284218
Ni 1.8523840415645365 3.373494945186945 4.375258304370569 1.8246484073165157 -1.555607144078295 -1.3915836179040613
Ni 5.501475268854546 0.45777250534726144 8.146736141765711 -0.653103654610043 -1.7372440124589175 -0.11421997238854521
Ni 4.680271648508318 0.7012218885276279 12.446937317794657 -0.7542395401211204 -1.088167219620081 2.203403527542812
Ni 4.407804939300203 1.8655947165281745 4.228400095947049 -1.8718749444036473 0.6498668928403001 -0.9523795483630889
Ni 1.6978994609624973 3.1845481356266525 9.520423852123388 -0.46973411980902974 -0.20559055098274273 0.27890015831017123
Ni 7.461224893806301 0.534983407601547 1.727058033200548 -0.6106038335746193 -0.24328240910656165 0.29872002124957586
Ni 3.3113558444320548 8.000157656229263 9.176093286739912 -0.8022199246551409 0.13587148922004985 -0.1372046062091766
Ni 2.3342274860454033 5.512174900079462 0.8609288861994993 0.00840673600645649 -0.48381528049244427 -0.4663814012867129
Ni 4.98004595837502 8.86041169942398 5.264824167325627 1.0971884492820845 -0.6277638902936737 1.8614177536260654
Ni 8.952110954779547 8.779790578209829 3.4784371867307287 0.38268582273927 2.3105467955902337 -1.2617040846013885
Ni -0.030930150522832066 2.305618204625198 2.452038826750132 0.4086758190451284 -1.9305801715543394 0.4161153060423092
Ni 8.798448002459663 3.7849460789775677 4.679053976930606 -1.7083710381783093 1.0170502490685969 0.046952457490138495
Ni 0.23874302252595514 6.885245004458755 1.73012483000203 0.4461334496709542 -0.5308057903093697 0.02049117797481632
Ni 2.6174861442629465 4.2737964433028806 7.586786312520794 0.7450519600845814 0.6862559729922956 -0.1605427667144848
Ni 5.394645128617495 8.475391147339083 1.2864557125946356 0.32744310021588124 -0.12690939493075565 -0.8068448250216621
Ni 2.3197612892124053 7.9180409869060195 1.5514742229483383 1.120906875944947 -1.5734279743097999 1.145494078366008
P 3.9757115488927424 6.432343185422336 13.217857287272999 -1.191458460911264 0.09142277198837159 1.8171328156657607
P 7.5233178356689345 7.436843766916735 1.4849694141638854 -1.9955930860906146 0.5321754169633868 -0.26956114029743256
P 8.71045992204147 3.0251337853316835 8.495525656141107 -0.3837142640037844 -0.849985364964878 -1.4516024216598549
P 5.7377718700909375 0.43916308634537365 10.444485178439125 3.1081821861984857 -1.142139560071478 -0.3232473169669788
P 1.4210938158823287 3.4267530750717996 0.6432029304954996 -1.0439128777873956 0.05579396704116842 0.6013548041725256
P 8.331707747524925 7.151267932307946 9.075701388794712 0.2916980814057879 -0.8005780181763438 -1.2587817687482707
P 9.047235199940502 0.18805501976190855 12.544342735410895 -1.124989530654753 -1.0733705209268805 -0.5793911554172408
P 7.083903644949689 8.983794418423996 6.481425781913723 -0.4253990453370803 0.43193890333812707 0.544912662024397
