# total energy = -340888.2495693774 ev
CRYSTAL
PRIMVEC
9.10027677698073 0.00000000000000 0.00000000000000

0.00000000000000 9.10027677698073 0.00000000000000

0.00000000000000 0.00000000000000 13.31917493318705

PRIMCOORD
 96 1
Ni 6.557404695077448 2.1478564439596246 11.644249241493126 -0.4963892605027128 0.6758661451175392 0.2327789384720765
Ni 4.604721888860237 0.8489984989718542 6.141964316188373 0.36527971144768057 -0.7642509016105353 -0.43700629055870543
Ni 2.775165828512138 2.0260583385115685 4.835420277367562 0.009432349057493431 -0.22035562510705922 0.36856712394970076
Ni 3.308187244553944 4.645718636098993 4.645648563967196 0.699645249815008 -0.5571004623398406 1.0071471310222717
Ni 4.100821358759389 3.1066889143962295 2.799570950986032 -0.9507695235634916 0.1098203006589528 -0.2810514003252192
Ni 5.124584304567473 5.294186164342983 2.5401129575289545 0.15832339046566282 -0.06774831118956719 -0.0966559953628529
Ni 5.631406023539273 3.295228450310218 0.7238706022219868 0.228031139374446 -0.03773196733313502 -0.17162010757456894
Ni 5.698156554282063 8.146331234784672 12.745664849718146 1.1801682327094256 0.5636446912162615 -0.6905635992287139
Ni 2.187360745793905 5.496030305021246 11.898152425956965 1.474533062314099 1.0046696160160569 -0.2501259143909563
Ni 0.749348647337268 7.6655363076226015 11.28480468615777 0.9301217654061531 0.016328304846378327 1.4616068411707344
Ni 0.4123917861421311 0.24234310277296506 4.886978805926028 -1.212368471591054 -0.6646954732127004 -0.035111756101468564
Ni 8.854360075054776 2.6821336982076347 1.6700509577449312 -0.35724475695834607 0.3815535089070397 -0.22878370126975436
Ni 1.6303874010656612 1.640079195917886 2.651928059265376 0.10667121350700984 -0.047911221858982 0.6108239200052255
Ni 2.1350796552530293 7.310834816584879 0.3642795324292406 -0.8936200709356933 -1.9890426865666064 0.11535048644856262
Ni 7.7218033194266456 4.45663308357361 4.392650857050583 0.7642650426779225 -1.1379455765947886 -0.23188548012352966
Ni 7.87578000383946 4.179010937510861 12.92672577811142 -0.4977540020607234 -0.3451703422923152 -0.06546054359665501
Ni 8.099455708696585 8.781375854665251 7.272322444927962 -0.06809695277823756 1.7128128759997467 -0.1512705973839395
Ni 7.034514010112616 1.1493649669821777 0.524611850198669 0.15381033308665767 -0.28722101947104084 0.1745125986310156
Ni 2.2538018671235713 7.010225371182486 9.473809550486289 -1.2278876502725757 -1.2210292325898455 -1.2600858322716748
Ni 0.3163656647518228 5.384579214359087 1.6793214097786981 0.20631097408853502 -0.7383755765056703 -0.24784328900436672
Ni 6.391533948813124 2.4729183332755658 7.281006839132168 1.1608024265883041 -0.7576655350835338 -0.4430789791153466
Ni 3.532090456332483 4.24576146825365 0.31304861383761057 0.10605517718956574 1.1239135239817548 0.43247446412662294
Ni 5.641925943585445 5.625117732231398 4.85974076726669 0.2544325121861102 0.819867205423259 0.2695125464476842
Ni 5.561506797004118 3.2979221322597563 9.294079992597126 0.36515295606182924 -1.659143411500749 1.4814670704297712
P 0.3696104746118071 5.997783169783949 12.872463557298875 0.11415775169204212 0.28468771152622585 -0.04629502641179769
P 4.277375830053302 6.419144188795895 12.81979934510234 -1.1928386290882425 0.28357390963675677 1.5208427440139163
P 2.3275869118764736 8.992311171923207 1.5711828198923226 1.324038938084868 0.5329590892069467 -0.03912987612192616
P 6.2029034101305704 8.047565930060541 6.246253488964428 0.6312927293825387 1.1184956954002931 -0.08254629543434816
P 4.678825443303118 1.5069057443991434 12.972117049044204 0.7824445418004267 -0.41809994057250577 -0.4304795451837812
P 4.108656697132878 6.3058002405475735 8.545236410625396 -0.5162788003377883 1.7571008992838448 0.42991158849545313
P 4.854051274175975 1.4175592262215424 4.001373533271018 0.32251789500012196 0.3047104345050559 0.3897188183266514
P 0.351268866607432 5.899436477795221 3.8887858180294756 0.37624032422424236 0.4557138942705377 0.16714510252235085
Ni 0.8540782735131801 7.829131984672789 2.6947758028167526 -0.2571666232878216 -0.728189637111604 0.4004542024662845
Ni 2.1663482065321324 6.815579549497753 4.9153480089986346 -1.9187009036182505 0.3662521026632789 0.6462169547925387
Ni 6.032400622946263 5.593749077906873 9.662648485508857 0.7595712367466789 2.56639212896347 0.010241218112033976
Ni 8.806283312421627 2.617994946922675 10.345762587801103 0.2420819610405573 1.344425215050704 -0.3322356365085181
Ni 2.4695694313923555 5.453168001026898 7.213692091224273 0.6507397823635567 0.4129479640579211 0.8463192289672005
Ni 0.561221353964881 0.4392266825367237 9.279149168358584 0.9598228920150115 -0.6570173878421524 -0.2096438951165099
Ni 1.4565903136592824 1.358871540773656 11.410363936030638 0.9625204934518327 0.5344606134531377 0.47817196616373775
Ni 4.435638744865551 7.7363546621202675 1.3888706034312706 -1.225027040895329 -1.6306861846013205 0.6406266051889548
Ni 5.6458663634643305 8.16938223606231 8.522447497321226 -0.08193797242638791 -0.31747339059767904 0.38667437507337277
Ni 6.962476218516171 0.674023835740238 5.070743426573385 -0.5714950404986158 1.3609957178148753 -0.04116027628839363
Ni 1.1517492395185938 7.751424720594713 7.256393320318258 0.09445101729173412 -0.32920173477820075 -0.2770782746100841
Ni 5.234470147610306 4.887649496330355 7.531274462991815 -0.4981887756052969 -0.29637029007047666 -1.15309220242824
Ni 8.38215580924529 7.5529658829070865 9.480003198914856 -0.09706145833138768 -0.5764855517346716 -0.5886594680930443
Ni 4.991501855817296 0.44039242800204764 10.740010241946646 -0.655143310747891 0.5321332508715416 -0.38202967721250974
Ni 7.71348566637976 7.508274423264573 4.843224674799739 1.2682346866310543 -0.6133741972309049 0.36962359023867314
Ni 7.229924255053299 6.613398698575796 7.544953089134895 0.44947639800125816 -1.7957021565958107 -0.45459160774063645
Ni 2.7279171910729336 5.675041851066428 2.5390609655243375 -0.946719521863834 -0.012384746817598024 -0.6119842588619138
Ni 3.6468085463861435 4.469764783077611 9.71992107790555 -1.0105553853728726 0.8576187131404198 -0.8250528633892564
Ni 1.1351776353628173 3.6928832481108533 3.9458054227295567 -0.4510550553422877 0.49428866921994224 -0.13230485491471408
Ni 0.6570072280461765 0.3920217264264311 0.32446946129258 -1.1534089623377104 -0.7447398281608012 0.035873573968157574
Ni 1.3166462561592671 3.387860168433033 8.404851899725523 -0.7875276127502888 0.6926078833522523 0.09852647291268839
Ni 5.71238028700885 3.1808925718845327 5.039962650133792 -0.9606816404708809 -0.016338332148707346 0.9853521466343675
Ni 4.3025471958385175 7.149004593244863 6.386091983252908 -0.5120951012737439 -0.4127983258539343 -0.3794516320726884
Ni 8.225649247866354 7.6494197173096525 0.4967276918825162 -0.0674955717488128 0.6300074349122118 1.5031044461938887
P 0.3459042534004962 5.866029361454828 8.23144976433472 0.4085868588757479 0.5972114714281134 -0.12935399981650628
P 8.598287384588335 1.8574302083597098 8.131569675695662 -0.6374533496672957 0.6550476657102913 -0.7645555773351478
P 1.837455100659584 3.8632313305885995 10.631592273560775 -0.9226925628216174 -2.1577055112850645 -0.7838853880120112
P 4.001191527733887 6.770596880995829 4.030701905524305 0.39782704925608264 -1.1006036456112205 -1.4965938987688807
P 7.107853141299546 4.075813797957592 10.748574512496344 0.08073623880880289 0.6399925711493817 0.07383462659296317
P 6.628250350405685 7.919324828598048 10.607031536352634 -0.797507092560504 0.2380568990415642 0.47158891362958133
P 2.2639213749880542 8.888276806899137 5.544745907089726 2.1077973136007118 0.43261201814575173 2.491365796055251
P 7.307950028821352 4.212918569078363 1.8734621660978925 -1.1509561299218436 1.1222950145417254 -0.20071548227862854
Ni 2.4847941945733627 1.8298108681000826 0.2999169143336099 1.98311115157352 -0.5009511688417824 0.9928543685486836
Ni 1.550286764174314 1.2384475771309387 7.1205107163793215 -0.2705114200258438 0.4750257072252722 -0.5299488416257132
Ni 7.08044310740762 0.8678469923971392 9.546465250881292 -0.9273418886681707 0.5385466105970531 -2.001997961175694
Ni 2.9499366455421674 1.875639862349665 9.390005100914326 0.14068176612449965 -0.5463424524923881 0.30924431781966744
Ni 6.591403329413517 2.429255204917842 2.9939510445865536 1.2834952123345509 -0.08646542798309624 -0.4472716770404555
Ni 4.195992054125181 7.144873067551989 10.76475662480266 1.061456543098114 -0.04630428238317832 -0.5267231355995639
Ni 7.591514655671429 6.412956000533441 11.995342472757226 -0.9800590165562283 -0.15228284069853773 -2.7427664633935733
Ni 7.838396066512756 4.249811091454815 8.511938497607282 0.5465658813571038 -0.2568228667951577 -0.7206763594536943
Ni 3.2732239808710815 8.76494985493918 12.324618700285436 -0.008374082996308159 1.0780057057060466 0.3726700903744808
Ni 0.17619683041345074 5.337721888824714 10.396082568679393 -0.43442413165382604 -0.7374900885769234 -0.09110755474079793
Ni 8.691556122091109 2.871901771497257 6.0854907280996855 -0.016161697361527005 -0.5328768139057855 0.7745939354077563
Ni 3.5312623311385374 2.89911159929834 11.685258729119479 0.317937217607975 -0.45041870730986944 -0.6805380966719119
Ni 0.9982002681180371 3.4489412266941923 12.928883453754109 1.031373093449172 1.7396369381711265 -1.6314711423964612
Ni 3.402247706143238 8.797983859928454 7.861576291721757 -1.2619182574947236 0.18753497903261251 1.065557966860997
Ni 5.683232100237322 7.987085490071914 3.5879725264254954 0.031692703117590586 0.4304756885290392 1.1721865000555296
Ni 3.2612025151435797 9.052081790317024 3.5665422844560073 0.19551131236986974 -1.0715162413269612 0.20373832826535232
Ni 3.95777410685129 2.953340149086517 7.300080109395808 -0.641719066922185 -0.16108089860614194 0.10370750289299559
Ni 5.015599388933438 4.87146920407941 11.609552615922162 0.8259113547348098 -1.2473259615028454 1.1020622324346183
Ni 8.169209330802037 0.3880294349694629 2.695215346188924 0.019154461441263784 -0.5429676224828843 -0.40131140826025724
Ni 4.986624107422186 0.8634897798382234 1.8518581088404447 -0.7931824970432211 0.9967531893824576 -0.5317285592339552
Ni 6.297637292207248 5.845781245449006 0.4800932958164297 -1.0323339147005446 0.09865605651201718 0.9099046670283298
Ni 8.360406147558137 0.36614599921251884 11.336429646737288 -0.7583427636562166 -1.822697197127416 1.2379442631776294
Ni 0.4380136156317457 5.166754987520722 6.029137263665503 -0.4605377980217423 0.36865274168497153 0.11501418615506644
Ni 7.478425515175091 6.1873328364290145 2.923159080891771 -0.7818290197036148 1.18220814595759 -1.6545902449124281
P 8.666202750768763 1.9728763205618944 4.082553462997551 -0.41259083782881845 1.582625838758984 -0.9715733476827203
P 1.8669672985053736 3.7361914656711708 1.525604993283981 0.7265752414366327 -0.71852023234264 2.3978653156022447
P 4.8848466110585385 1.2729649272478305 8.506824142013901 0.7784765582916141 -0.2990252111948205 -0.046267001387339676
P 8.669897463172521 1.9774355592670254 12.594385487365612 -1.1670990582302931 0.10616393485328812 0.9132116199143756
P 6.50304874141328 8.386114429677889 1.728455624582579 1.4427393148422702 -0.7311965422587278 -1.794373153371742
P 2.150368120372032 3.5195866759315844 6.324263792261826 -1.0183111180588915 -0.2505167220714718 -1.4692443031113342
P 6.910486336834706 4.754557947303321 6.360066101470863 1.9381294446565074 -1.3056406380833385 0.023640522237075415
P 2.4994820414198333 8.93370538896703 10.25647067128464 0.6624694120956591 0.35565144432929713 0.398943679359029
