# total energy = -340873.1875124792 ev
CRYSTAL
PRIMVEC
9.21699015080659 0.00000000000000 0.00000000000000

0.00000000000000 9.21699015080659 0.00000000000000

0.00000000000000 0.00000000000000 13.48999675334767

PRIMCOORD
 96 1
Ni 2.519980385688132 5.585274771576891 0.9025322756515026 -1.2352584888153502 -0.13788312033343997 -0.11348900775979165
Ni 1.496193997237641 1.90425779838162 7.270595874752548 0.9234860052571903 0.47485447175473056 -0.12838366548343697
Ni 9.099187714895255 9.251738117459663 2.739548444713542 0.7593953732904469 -0.5272808078752467 -1.2972493286958497
Ni 3.8794864202630848 1.914092326780884 1.4679946161340338 -1.9510366396364784 0.15229466777307965 0.12726266450511634
Ni 2.971806455660327 0.7985185427689377 12.595043652977443 -2.045056997148697 -0.08347960588189493 0.7654840026866881
Ni 3.975333899948135 5.925298752061668 3.278082427022418 0.19835418113530356 -0.4964746211276675 0.46335161332145364
Ni 8.076488931272424 8.061170293784535 9.306870465231958 -0.12684280335887832 -2.1201416940986775 0.5108707419483395
Ni 3.8388763620370696 3.3794739262315145 6.580757626936042 -1.4118667936331295 0.39280671322335575 -0.18723133174926465
Ni 1.8552971471567918 6.296900140508844 10.573257249181074 0.6276703021386029 0.8015252125809615 -0.34810808476440047
Ni 2.5693281504956866 4.1135610999516645 11.69075461901957 -0.24219586091060225 0.9527983810680624 0.08557094119328489
Ni 3.8607667134412424 8.011730359076331 1.8633998031228585 -0.11357179728158506 0.607632152540805 -0.040198169485440444
Ni 1.6604960621348148 7.396606876124039 2.968379578754192 -0.2990493795645366 0.10824267175918778 -0.3119743151563208
Ni 5.864061070070373 6.34767653877646 1.3974016892268504 0.23415319311178384 0.7647283554675862 -0.6897375037829928
Ni 5.241702249917123 1.5244532887766702 7.57653542597727 1.556540968746474 -0.5274142481293175 -0.3419546635684949
Ni 3.663790418763946 8.476239007377849 10.605835622264523 -2.1063963194881272 2.978639981630573 0.09903349445609397
Ni 6.665948422708038 4.011870048565458 0.34063598862508715 0.6938769798726631 -0.7558637059881047 0.6513673886452267
Ni 6.060226269621959 6.265829667000015 9.64077436431363 2.068990110925527 -1.1778604105118555 -0.07491988923734193
Ni 6.602443361160774 5.992462958664704 12.393664402146136 -1.438728393910664 -0.7455129588813999 0.7666862505249055
Ni 0.8415720250611618 6.735250971006133 8.039916836393848 -0.0695092597447319 -0.46228897638489413 0.7945210133489865
Ni 2.295703366438557 1.28610192569797 3.5836984618958607 -0.04933124213496021 -0.2738453694950832 -0.3709001429582515
Ni 6.2710280493966275 3.791067834570356 7.101930486758644 0.07612033730334633 0.6957916803968727 -0.10244406279953969
Ni 6.627513574137342 2.0311849685655634 11.409947034604851 -0.12790158364069587 -1.7258185442307954 -0.08329860021934041
Ni 4.2581111551397255 6.461202205406018 10.801601726146297 -0.69151953538408 -1.6414110272179925 1.8836675661632012
Ni 0.3894215170386819 6.832241357459233 0.8970242023887096 -0.9071101350023282 0.9379170930808556 1.1285813617710692
P 6.128607118913561 6.844205010563492 7.533002660201669 -0.11867517994642143 -0.5497396510993952 -0.9265921549863396
P 4.901595316521762 0.41987168711614137 12.188670247811372 1.8761468323061234 1.2434932180203166 -1.0860067216336522
P 7.114668367028356 1.0282750626121047 5.830565606475466 -1.1493877569934592 -0.6433712578136275 -0.08849222860513792
P 2.786028803911902 0.8498949670897801 5.586638886106499 0.31817041666470364 -0.04647191830929416 1.2145459388583468
P 4.290195497555694 4.4025413894569425 10.453236369652773 1.630541174383024 -1.2006542684779193 -0.067877894788896
P 3.6378906766815344 2.525399975846302 8.536348529785199 -0.9747733426772568 -0.4724798008749669 -0.30202080348803473
P 8.042625709773926 3.2779579976565416 8.762494754619938 0.24523850439166794 -0.02665771179684441 -0.08925996000909789
P 1.4393620364973756 0.37478954531062947 10.568508655899631 1.692232480745234 -0.1546377140839595 0.9795224273264678
Ni 7.744198005452111 7.99136081103287 12.979373704704267 0.641646818923353 -0.8469738318320639 0.16664887961222266
Ni 8.261602959736175 2.853727595938702 6.347083886315286 1.272130936361667 0.1854081624975968 0.7359080888017842
Ni 7.732630682920642 0.9872686738132982 7.999676379469436 0.5307733944095375 1.169064666597096 -0.9866502966205009
Ni 8.454044495301535 6.596203458886826 3.2983985165235032 1.0054044372995525 -0.4485371740164404 0.3192399955797986
Ni 3.4368957743359347 3.529203929836058 3.507979045114572 -0.05004498037253317 -0.7372352922536399 0.5218046152520239
Ni 4.47593628134386 4.429445783456429 1.4806347963090583 0.4790913926542137 -1.5910181765877374 -0.932855105176916
Ni 3.8420285726392702 1.994731772858825 10.58090550753694 -0.3272710934143912 -0.3254507523762008 -0.20003851081626192
Ni 8.567413473099988 0.6775206622937539 11.095751825378985 -0.6186860963621216 1.1484873566663771 -0.20607906058338704
Ni 0.9231645079118147 2.1860211846660693 9.650257725391423 -0.3368050010467554 1.4168773594738437 -0.7534311852872121
Ni 1.1651381480860266 2.299316426544004 12.051572129090793 -0.8180046982932235 0.4525478378377302 0.34445171895873583
Ni 9.1713936150638 5.273731290392702 6.2293967486714195 -0.4702223722993579 1.3886908697372986 -1.2661410373268194
Ni 5.6613978925230235 0.6199347517661784 2.958194804732461 -0.026638685633450895 -1.5912986839426337 0.1482374669845705
Ni 4.603103093269492 5.0230199436369505 8.24635437137278 0.4126273474937087 1.2310027988627896 -0.9903064053158495
Ni 0.3458362144197122 3.8661125676788934 0.7025235912428486 -0.1559546331231701 1.4610008321556194 -0.8456353155262984
Ni 0.08935687528133729 0.5185358789650297 -0.1462865361162909 -0.0754215114641088 -1.325452273492627 0.28204821702084976
Ni 3.398958643228745 8.077355328338527 4.459158594328695 0.34394289764311736 0.7622338711805067 0.26026505970748726
Ni 7.9632766423050745 2.167624072496499 1.8298232300153798 -1.2491817837646615 -0.41966908483183846 -1.3750359979580256
Ni 5.400437252815088 3.8144974233153692 4.882421212089719 -0.7727147161071724 2.3284676417347128 -0.04412810066746594
Ni 0.6770155712381967 0.03440610221332095 8.501341479819645 1.1173129879461015 -0.7233266525923479 0.10843961826134228
Ni 4.800752228221527 1.6730127346429693 5.071752935207175 -0.3719581519091207 -1.7147890258895113 0.06087498110850162
Ni 6.261921663212491 8.060285462738303 11.216513750908506 -0.47767265792981606 1.1786348267840348 -1.076708584161178
Ni 5.888550612672852 1.2338323750398377 0.5890882511159277 1.064165714499161 -0.12151804871185524 -1.4074624939178468
Ni 4.078969736238039 5.871674303863993 5.802384659351988 0.06503785423693961 -0.14202928129132958 0.887939218500832
Ni 0.19394482664494653 0.7131065392353839 5.669468289023863 -0.6871941685358488 -0.0295327193517943 -0.9302446641372624
P 7.949128562555429 5.478127262072255 1.4301284558503438 0.3995887691421957 -0.12287816228417547 -0.16495863639399333
P 0.22552315630635156 7.765728894243752 5.082073198982861 -0.2275979084917693 -1.0538301369011076 -1.1516518704372876
P 2.6975456992887183 7.625649079237175 8.673015293370739 0.22190368632046945 -0.02578456516327172 0.868448199655756
P 6.838287702941817 0.4387075280128015 9.782581443258373 -1.6668582636465037 1.4478990046663387 1.1569077195195883
P 4.018450979471807 6.130616422747714 12.966692969772957 0.6592136241625227 0.04771633223935653 0.3533191966516947
P 7.287219638033629 8.929290937028679 1.2609155786465835 0.602393272739369 0.5148978608298616 1.559789814701075
P 7.480675042506127 4.643648632565052 5.226200194326942 -0.4118207924320133 -1.3176718582162599 -1.0614403451481977
P 2.6075786592650836 3.384487968826828 0.22459500540681462 0.2976764104764099 -0.8945256134690981 0.9103137295412902
Ni 3.212148688593049 0.3729120444344063 7.9809244131823665 0.2554043891810763 -0.15238002839803436 0.05831879034555117
Ni 6.3435841951876375 6.427200729056546 5.214019020257151 0.2563562115713843 0.9083018413175841 0.8869190047664338
Ni 9.151024067020337 4.0328294839730745 3.059477543458791 -0.0014922682748103333 2.984741980763253 0.5956330711974
Ni 5.9478435097604505 3.3026963989907734 9.370610560025877 -0.08727532547890131 -0.22881404028705754 1.0611696079853143
Ni 8.071659228478408 8.004273814113816 6.92538641565725 -0.15807887855502453 -0.36716458717521927 -1.3320309551514091
Ni 1.7818377363394198 8.249805212453085 6.480054636884794 1.0539499503084235 0.08968342069976168 -0.3468855252112091
Ni 7.173638669463682 2.610795388797739 4.185378964838475 0.6960220512401238 -1.0555556042326466 -0.827919386303774
Ni 6.4707602241033335 5.135918854942094 3.1620008890478597 0.4849249686168551 -1.59602617132529 0.5227109291163772
Ni 5.300239353819397 8.388714469721418 8.870495757404585 -0.400095276464969 0.6909001566325262 -0.6991793659221829
Ni 5.208594821603948 7.852092091152005 13.34005572502154 -0.16126344693059325 1.2917733931829432 -0.20106412386729888
Ni 2.1631446153249505 7.630229923299438 13.038971684163013 0.7118834437524126 -0.24670788984834288 -1.222393459927224
Ni 4.901586099531697 2.927684724219579 12.446922935838234 -1.8082715086203889 1.127649079764787 1.166275019667101
Ni 0.6595622788512736 4.119082077000549 7.962848052267055 -0.38774986752573865 -1.6397513801273826 0.04070776213200731
Ni 2.588951122343891 4.386125930151329 9.095751620999055 -0.5425873563253301 -0.6110864296379928 0.737237349136169
Ni 7.524833641907136 8.514480299157182 4.18850905466452 -1.8977440988609253 0.8164828623320584 1.7259848946053304
Ni 1.150575303783461 1.8597028684078212 1.4167195787039055 2.160958985225356 -0.3945509496079721 0.24454019277306271
Ni 7.9473496834729005 5.620474456634802 8.356337948720391 -0.40253268226186806 -0.12318875154605881 -0.057962949668029215
Ni 0.32095679313748726 7.899034221552617 11.333296701827004 0.5810767706497799 -1.4295156170631445 0.8648926210940137
Ni 1.870210237081824 6.024040366627102 5.0027379569991055 -0.4403908907602222 0.49917530788828224 -0.12509265343699102
Ni 0.4007906742837544 4.5214036933340855 10.308097348799562 -0.5262431106393517 -0.2453061244048098 -0.4056827978550755
Ni 0.26490182465969414 5.601920655634128 12.483589044015474 0.3935446198306448 0.33160520201337085 -0.7038996542159878
Ni 7.744861628736785 4.014515324714089 11.618273130848085 -0.09469527209205628 0.06322162696380723 -0.16434542829002663
Ni 1.3033100461491662 3.162201819431275 5.253017948619819 0.2048169060415118 0.15326268811330382 -1.003182489947569
Ni 5.03068847937096 8.462302918399699 6.245490535023768 0.5995316349208578 -0.008391566497804901 0.3004884260039083
P 1.9794131353709363 8.99700816303561 1.1663050190282447 -0.5148112146533264 0.4531121949816326 1.2428656117386465
P 2.049019844341174 5.133107672972295 2.998030635793023 -1.9540594856232025 -0.8000455427116414 -0.06314192276580738
P 8.310508309020614 2.4708538286421353 13.04768634826939 -0.47771996622798363 -0.557079379293918 -0.5458169190062213
P 8.046072864058205 6.241865492831236 10.869605600544245 0.8119227537652016 0.011473547857238304 -1.1623615435453079
P 2.2603285585694137 5.286312481831311 7.073182694746174 1.2008733264672609 -0.04037069050756273 -0.8404370591548107
P 5.414511596644212 7.410303323360503 3.4682916075940544 1.207193612258334 1.8941031596742282 0.19044006849454945
P 5.781098942496073 2.6411838050417633 2.368289928296782 -0.35309782466950806 2.0959219023193643 0.11460795185558327
P 0.1785727306146814 2.0747352466222866 3.4236528030106648 1.3780806983216203 -1.5583199150237679 1.8364091473968696
