# total energy = -340856.79852754954 ev
CRYSTAL
PRIMVEC
9.42598613138802 0.00000000000000 0.00000000000000
0.00000000000000 9.42598613138802 0.00000000000000
0.00000000000000 0.00000000000000 13.79588349656870
PRIMCOORD
 96 1
Ni 1.9485963730435552 9.271748549246071 11.314155162334137 -1.83860538371724 -1.8312278603062462 0.7865086845674714
Ni 1.3358695818642972 4.803784075476394 9.492726651039977 -0.2815658780677925 1.532827427179618 1.7057600829180235
Ni 8.210146880786224 2.6390215664702232 7.167637546883229 -2.6169523584095256 -2.5168636832160396 0.311002952381987
Ni 4.6136902166721345 5.204162255005811 5.744771770223076 -0.1938724912148661 0.46375373385587865 -0.3680945551886564
Ni 2.6856896229456475 4.289323187903742 13.08717463754653 -0.6890793013737035 -0.2626584996403283 0.20311355019715988
Ni 5.249529525419105 6.872137600109583 7.623246348531834 1.6408366427717613 0.8518859244217005 0.6666891066039615
Ni 0.7633540467795985 2.6492581872200334 8.525041736265958 1.3619953627239836 -2.4138444646393205 2.148512789042203
Ni 8.771407788637708 8.008053741858108 4.293664797035752 -0.26877669672292415 -0.07195926394712124 0.1799751644074836
Ni 2.5282379535121002 6.720218984433068 13.146552693487003 -0.7668325462947826 0.43329156071127956 -0.8555587452875973
Ni 7.427950288077647 0.3199339875725958 6.9779716278414385 0.4926657889045386 -0.7487216956266848 -1.959777619053902
Ni 9.20846247952763 4.339855898621728 7.670207553170536 0.4136920413127972 6.235605994235403 -0.9873681486231318
Ni 2.5049463422111966 1.3130209919033946 5.021329233184589 -2.0732550568494683 1.046258238091121 1.685635801364323
Ni 5.72604139352699 2.398074513425423 8.186697855519832 -0.6114255581449664 1.2381502085408482 0.5399020961836831
Ni 3.145206438372219 6.261861565279266 7.593750553273725 -2.584839022814748 -0.9736214884610007 0.03719640654463916
Ni 7.740977855739207 2.431970358928478 13.327044300396391 0.2260231078054817 -0.5049145243649046 -0.38243873972547043
Ni 3.7597053149114803 5.819697990000394 9.961607240916695 -1.1664735088311524 1.3874886218990814 0.2999991450723156
Ni 7.429156814280204 4.383102322194593 11.872323404192976 0.5181359081511852 1.8540584850475166 0.1963921723129263
Ni 3.8504775596818988 4.370839114463926 1.616795069150507 -0.5026653233194117 -0.3883836444549956 -0.44184407826698097
Ni 5.393765962540282 4.602916314722749 8.873732521797598 0.9358458123741238 0.48727881356101244 -0.254729988821871
Ni 4.896667741101285 3.9737506040336665 3.6730296036381778 0.5363634869028053 -0.09508505133130721 0.2526175704645585
Ni 4.13962910491319 2.824204486590642 5.945142781516763 -0.09856581079105606 0.8263024195256414 0.07241177810350755
Ni 7.9015401005387185 6.671646878794236 7.600993480883443 -2.052118274870853 0.2811640146436835 -0.38503015460173046
Ni 9.103551255821012 7.993858207006161 10.973272863569665 0.3036539682160835 1.6487080751000378 -0.6995899710970402
Ni 2.388761639299444 8.661208586808948 3.3758112996244845 1.3291749737598528 -0.36814726280346277 2.3045561252244378
P 5.48375585047623 7.663354861379457 2.0025412906781455 1.3051891523682169 -0.8907489200354853 0.7910405109995539
P 8.28730800183406 3.5671041438425344 9.65092391596276 0.06834814955709519 0.10437161883955573 0.10440941405602663
P 4.81854516948579 1.994293552965361 10.092240095104057 -1.2723890751190603 -1.2354328096096854 -0.952121923826328
P 0.8857759245994072 5.5411506789712535 13.923219060234334 0.43482445241603823 -0.4086225972096898 -0.2523149516224751
P 3.766878490225114 2.084867852030672 2.992616692495533 -0.3008103281197013 -0.36867022518646825 -0.35323203625452715
P 6.750052229988456 5.74116067500277 0.32225278011813296 0.1674304949732536 0.0741873819466916 0.010720985961929923
P 4.674563233985464 2.8455072148545195 13.533182129898858 -0.9463829644600217 0.4233539898825935 0.21068570611746296
P 6.437957834936685 5.252046263669749 6.927092040840217 -0.768958848609166 -1.436040562665856 0.3772345698167116
Ni 0.24525284343017162 3.8236983335767314 4.691359398363077 -0.14200716980414252 1.5863359406207196 -0.8303853313457635
Ni 2.7594668150347506 1.7283016552315678 12.417122770168335 0.15871754058028792 0.6557300364892965 0.7650895954617468
Ni 6.09610560221719 1.2708114267858523 0.7105459030514791 -0.8003360773688668 -0.7688755448667404 -0.6107784114792707
Ni 7.087719324942836 7.190877315261367 12.28389588464548 1.3034228044964131 -1.0127251393306815 -1.4629124473560355
Ni 1.685158917504236 7.655795220641567 1.4454221610563749 -2.758570520305365 0.4868592095250906 -0.5939124889618674
Ni 0.5072990234421684 6.948846273831458 8.159713142920792 2.1168450256252767 -0.5123169874765628 2.794192897494665
Ni 6.006577587593157 7.921362949007274 9.782522933710759 0.4353687549552825 -0.9071841827733731 0.3436459352279888
Ni 8.530677533269929 4.52800800431875 0.7616639674974244 -1.7206354573679594 0.052944413407515274 -0.47528153198982015
Ni 5.2199696334564845 7.397730577098005 4.438949403795399 -0.2792624267455964 -1.328033403956242 0.321586127214472
Ni 4.966712242751231 0.3203572143420861 12.251861671369022 0.5403646376423983 2.6026955913801952 -1.6140966556737555
Ni 8.977601231457323 2.1424700522167597 1.5724269532487047 -0.10480150728812272 -0.323001776615076 1.1003434499712985
Ni 4.150223913129385 7.583441352432042 11.758742158602676 1.7637603135818913 -1.591341107144795 -1.7725712270053022
Ni 0.4290793641713107 3.413281479002612 12.595489759842907 -0.016829155742196823 0.3715390620938311 -0.20783538115286143
Ni 1.5859315633299693 6.243471466676246 3.57563089073966 -6.2770246663915055 -1.4630682562076094 0.08036728550515836
Ni 6.548336130498637 2.4518686152846936 11.146494207510056 0.5230369449972283 -1.6160296110304102 -0.23223900680820647
Ni 0.11029063389254727 5.894163279064393 11.617555027938739 1.698128534514695 -1.6469062460046087 0.7938191021859554
Ni 1.0232473315989097 6.807918357781351 6.076217714445527 0.3204568987060352 -1.2754682282650163 -2.0481281798748534
Ni 5.6754521268932585 7.992010713758498 13.719619648750216 -1.0196005262942762 0.5391775593128327 1.377532024907002
Ni 8.047369529286708 6.131820663010036 9.956461595182514 -1.4160970296643933 -1.0145722198417495 -0.7076385524331297
Ni 8.566288908217244 0.018630461244935746 13.611542236360481 -0.6888589578327814 0.8879459033690513 0.5472215126632317
Ni 6.717579708364978 5.540321192206997 2.713167314610263 -0.5233251656616085 -0.2685949197294213 0.0461710992394237
Ni 4.073788593000276 3.7583573989195624 11.11317711754479 1.4109841339178604 -0.4949116475159218 0.597260579498494
Ni 6.093428622205268 3.535470534969271 1.3802508941464402 0.6510891952831754 0.8742156982671525 -0.36835757904205596
Ni 1.5532139660715973 9.031527297119997 8.729621450289654 -0.13796925228934304 -0.3583673005985635 -0.31485652180012225
P 8.760596182744491 5.721036194983575 3.5703193476526267 0.5722524874899305 0.5287393946986443 -0.8695445180437282
P 0.5128942887065214 9.289214901225261 2.9504702814839057 -2.7113208432897817 -0.503001880723224 -0.781663440660028
P 3.379055723991045 6.576604662385085 3.708043371075789 5.70819020344419 0.049012682453276876 0.4972043002048404
P 6.547761145355231 8.97511277116455 4.7117770265455485 1.5474806583164187 1.365277375909365 -0.5295654901443654
P 6.06471706897882 1.9211573279213656 6.232690023938094 -0.04724376347831218 -1.6079144381224437 -0.9976088525145336
P 2.0062834071032603 3.3183523744249506 10.98542767246182 -1.3018783428274288 0.49951726460873325 0.010624826703697831
P 0.5483934944209422 1.539518008475396 6.698204594229402 1.176100233287639 -1.1509335042140243 -1.1938799258685633
P 3.24303874662478 8.938228888112977 13.02215512901051 -1.6643077293105077 0.01902282095940595 2.687966484834558
Ni 4.335359703320016 0.41507329163710877 5.439854320879323 2.0419001966872705 -2.2027813205777806 0.9017750959426599
Ni 6.855397049049119 0.7188586800673702 9.133909528794229 1.4177929293095775 -0.4144070651019508 2.918010026653342
Ni 0.20658744903263737 8.843346913465103 6.651726942670318 -0.5015234964054847 0.5295598337174106 0.019965387378333355
Ni 4.693518891745932 9.276244744547785 3.044434165099523 0.6905949666872816 1.0235564256182308 0.7034332561025305
Ni 5.806963482971855 1.6800971630450758 3.9500235121815277 1.6901452591989021 0.5429347123624199 0.1909954267773872
Ni 1.4951875965174235 1.696083635228942 3.227712093457937 -1.6297762711925416 0.5748912106643583 -2.6676288017184704
Ni 3.700095379716452 8.760124883446618 9.687014130996713 0.6489541512180436 -0.23609797554298048 -1.0415803729994773
Ni 2.600422153974391 2.4232984518476077 0.9007085715532283 0.05906158204884668 -0.1328563565428099 1.1097110072291276
Ni 3.601414732727718 6.64006039985076 1.4266738749869707 2.2104097836573158 -0.20512903796529186 0.6363534317348977
Ni 1.0401764023785225 4.342372636872373 1.9530284716407567 0.7506096566780169 -0.20869335827778254 0.6853892541166261
Ni 6.986917831113672 3.566048433415298 5.344124950093872 -1.001292729124024 1.376852225231158 -1.2945051902918094
Ni 7.275145629721132 -0.07577173071770325 2.20627926415584 -0.05767755721712648 0.5899627602855001 1.0415014401324258
Ni 9.322526335598953 0.8309694718483045 9.871327032613257 -0.5900815452515514 -0.18846880370079153 0.12117866309456549
Ni 5.22799114750629 0.07896431216149771 7.690556371655518 -0.9587473995626455 -0.2428916014260462 0.4659797949729201
Ni 3.234941824687315 9.52316787268962 1.3612301970828653 -0.20884968134998871 0.272791217198956 -1.6294024327928904
Ni 7.9515355300571295 5.715616253058031 5.525761814297091 1.1756387202701881 0.42932511986436384 -0.9215155117943806
Ni 2.5816361639611567 1.4242099222576887 9.973182351672467 1.0020193228774035 2.3422816647996694 -0.8862816282927511
Ni 2.1039271956366723 4.514048119115739 5.904651573639267 0.4418533342383616 1.0324455005777446 -0.4700791618532743
Ni 4.8068192429547 5.292728819062181 13.013049626575597 1.33827102252385 0.4803550898579856 0.2813007973318639
Ni 2.50824543729631 3.736979262768025 3.732462330297206 0.5576537637401492 0.6014044264635384 0.24862541858602988
Ni 2.794333537091425 1.3986749262989073 7.511927339571327 -0.16086338327869718 -0.009040512935713462 0.012185743432914498
Ni 0.11926417252405691 7.467398039309652 13.322119222733615 0.06740584024848392 -0.09033390979956701 0.19593657283274643
Ni 8.57214244549683 1.9253801696303112 4.9062162648762015 0.16871347545073526 -2.2738666665603806 -0.7463596231524113
Ni 8.126057660059653 7.251033957641929 1.8765988071032222 0.7366899612731312 -0.8537052370186266 -0.8193941224415824
P 3.679273376736405 8.257276810573567 7.005052485497244 -1.2259644651079338 0.7472001167758358 -0.0998027685219507
P 2.1456277575125116 7.224622344989102 10.704473907217738 -0.7353645575934884 -1.202313144237581 -0.5576897591844073
P 7.040419727408261 0.26096313422548373 12.080793222621317 1.481098631346759 -0.0565491000396381 0.10927034169275375
P 7.595412354598027 3.0451307454617793 2.9686812863537346 -0.7726033873402888 -0.01208521329930822 0.9175377580935553
P 2.323533816473765 3.995166444129034 7.861474004627905 1.229132064202638 -0.2943437465587511 -0.5723108515316918
P 5.74774943918704 5.719160423778039 10.890083824502028 0.5610388781622982 0.47348047422533945 -0.18456946864638538
P 0.7762403121820531 1.5417331151754012 13.751129777207437 0.28033072010911075 -0.3612723900605004 -1.186093854165241
P 8.30119247914941 8.431591568885024 8.731773402883745 0.2766900380327299 0.9182836351206443 1.17403075235312
