# total energy = -381166.73514083703 ev
CRYSTAL
PRIMVEC
9.26938769413388 0.00000000000000 0.00000000000000
0.00000000000000 9.26938769413388 0.00000000000000
0.00000000000000 0.00000000000000 13.56668585443075
PRIMCOORD
 96 1
Ni 4.9409450993441135 7.636056622918745 7.016052313396629 0.6410822046691347 1.8810753799559927 -1.231711137783724
Ni 6.376801047452416 3.621484851386202 5.476653597990412 -1.3093602530267707 -1.9737507934045426 -1.9217926551696964
Ni 6.414694303979834 0.49852898496443016 1.464890450902048 0.6578838496075057 -0.8498480680560654 -1.8144298149123008
Ni 3.8505963048079748 4.973276723308799 5.705117121218626 1.2969693355615857 1.3869306925130824 0.26908471488164626
Ni 2.243006412550092 0.12798428853360455 8.221574175858116 0.22850936456244517 -1.978681655047257 -0.2707366486627724
Ni 9.203296870934002 4.682440417828298 11.746036347187447 -0.8934313519636549 -0.023338160505308195 0.6291995942989358
Ni 8.111214700915813 2.5536050524035034 4.412822667513383 -0.22152521993512816 -0.05284054083979932 -1.4146752096162023
Ni 8.039803338810325 0.315069265495088 3.4918747122667586 0.6532520072624491 -0.4312287646449799 -0.33304347712179416
Ni 2.6350366225095145 3.7383069433664016 4.168079318835289 -0.7940163057984261 0.601043443579694 -0.12915062555644855
Ni 3.460725862160414 9.199496422016136 10.522755265014395 0.8381076396906856 0.22021678553634974 -2.5115864939775
Ni 5.0100761920988806 3.92122903835468 12.092000481568515 -1.6668286959601486 0.6628234530009681 -0.9115702276562107
Ni 7.0038565801253165 2.9491761684278655 11.532537323308024 0.5795392509593309 -0.820330775323239 -1.8214206444078371
Ni 1.2527113878175145 7.695742209704472 3.8795566525008844 0.12349008483656151 0.25696453457934454 1.4398589079706816
Ni 8.102677594932018 1.9209971565554742 9.369926163329756 -2.9389002398387905 0.7098044497361969 1.6869905156200042
Ni 1.5255187344071575 6.8365719420259214 13.018618521212845 1.1398610484499467 0.3422356851440235 -1.210567156716257
Ni 3.178890132043935 6.629428937226943 10.97578824173815 1.0560685393133231 1.9975216705718952 0.6260006277456638
Ni 2.083591484526964 9.181782622303832 12.235617592297201 -1.666009542492963 -0.5646872735481631 0.3494838820660046
Ni 4.0537256647741815 0.08362470721324865 5.754038168179183 -0.35502383804762727 -0.2678811814918483 1.7915832493314303
Ni 5.050268256752229 2.3660668023881573 10.050553194724419 1.0458527751225857 -0.38015328612540333 -0.4762796342370313
Ni 1.4784395147636253 1.7602474367172904 0.08694314797567916 0.1538391294420641 -0.29563032658065863 -0.5005562473962089
Ni 4.8134168646806526 5.741773841439597 7.954541657746112 -1.24272060152035 -3.017649015903919 1.454961567940075
Ni 3.7246253272620797 8.576269146423915 2.136305564895305 0.7562424294837621 -2.9213959124064397 0.5367702354229208
Ni 8.791485787826462 7.146503185971805 12.007425662125799 0.08902264718731119 -3.0562178773160524 -0.5876963328488265
Ni 8.534288089962887 5.124098929022505 5.576287464535486 -0.7628329382170863 -0.8388404040916522 -1.4930185227127963
P 2.6433419938031952 4.486439216929994 8.358381067513736 -0.7866099860320259 -0.23435193938615126 -0.7746584700971045
Ni 7.024026767552828 8.019920502398556 4.863602256110471 0.15979406147391836 -2.053491501069296 2.9893571109377612
P 1.074896725399346 0.7519966812559306 10.294957283816185 0.8053700402483486 0.025558050974762436 -0.7620654639234424
Ni 1.0838973007633685 4.793626722144929 0.4216190221319208 -0.6639601377085727 -0.758757739706448 0.4894187427221507
P 4.334124639811955 7.633146035210915 9.23062395253099 0.9732656477834787 0.5339733894040739 0.052506554539148285
P 4.718581760098456 6.132283871831873 13.029512832464478 0.21842421241230126 0.63777782288625 -0.8614172609509035
P 8.329341930026189 6.388823443175522 9.955668035449158 0.2520002485955337 -0.18867012107832024 0.5377477688448417
Ni 6.044271036526628 1.0386163423151198 5.3460877850089386 0.8231319922174598 1.020913331568429 0.2545055315158907
Ni 2.2883800648743864 3.4259193117053117 6.474673730352625 -1.7000211235517175 0.012968387235209922 0.3992280433686673
Ni 5.644843855258771 2.330852398878455 0.07900855218618053 -0.3468806401152026 -1.7204004585390176 0.5308870371692663
Ni 0.5651480736783632 1.7111938375139881 8.020516524021529 1.125853164206629 2.040728802086989 -0.7753997191385034
Ni 0.5618630027113091 5.029236016277495 3.3717554991156184 0.30309398194755544 0.08997061292287731 -0.5005901859579378
Ni 3.936542066677404 4.61145544755262 10.008618485201414 0.2852754657088958 -0.26707128399604324 0.057615079410307225
Ni 0.29367366502625536 4.388035398120043 7.727638172451743 0.15489122485566226 -0.7545925525851649 -0.22973860898385595
Ni 0.15518159870412784 6.702610752364901 8.006515114044849 -1.0016151454604492 0.7880130370271395 -0.3145587880540453
Ni 5.9863744415485804 7.484168437630515 1.698630109554775 -0.6455042449962302 -0.6128689754597122 -0.89047432621786
Ni 1.2576519714107421 5.665616552880578 10.008578626834714 -0.4791836952577037 -2.3359636930014416 -0.11090299220017029
Ni 7.559222669064593 1.825874700957536 7.0281674029957815 -0.6003510454983596 0.4577381237894181 0.24624097751425333
Ni 2.6276489205886846 6.700923723820872 8.375800100700216 -0.4378118171791363 0.22088372969638734 -1.405282969768025
Ni 1.2240319025690232 5.933854091381175 6.035845163194089 2.3561728209594652 0.5710620667262551 -0.638311583902533
Ni 6.692219768860195 7.0510377630324985 8.632400850002055 1.0631619558249947 -0.702662696485093 0.15764487634139945
Ni 6.7723350859263585 4.999036351461855 7.0401332554545 0.6976138212072761 1.6585787972465305 2.760569038792633
Ni 2.884420226622448 2.6700749076547305 10.994306624294529 -1.1945496982420782 -0.5772795083908767 0.5513208795435859
Ni 1.7858958322190928 0.37368794576753006 1.9255057866863294 0.32760148017061647 -0.6811677598361107 0.1423270150374065
Ni 5.563162011687437 4.480358498661406 0.7786952983733288 -0.9700975344681422 1.6041056058993146 -0.26135057946218215
Ni 4.19586245430242 7.384615214757601 4.374578101195751 -0.16432048858936216 -0.29346700038075263 0.8181137130672619
Ni 1.8780891613339914 3.15797839360806 2.04045638930917 -0.23260101813331552 -0.467537369268027 -0.2466937487809558
Ni 4.007276763487759 1.0989878637835833 12.429865025060723 1.483721927902219 1.139678243015179 0.4657581658804172
Ni 0.24902580575139782 2.0461709667673778 11.726134045061709 -0.1106314837063385 0.27563100064059626 0.1326388412153651
Ni 3.188511756377462 3.2211863476835165 13.545955835913471 1.0998587970253961 0.18518524785351334 0.609175585768525
Ni 7.6531586430491485 6.445505748377373 3.277806547988417 1.0359020916677772 0.9225429246176304 0.8293646033907329
Ni 3.026872175329241 2.243970428860966 8.61366556377573 0.009854267086260448 0.9946618540710677 0.43647715752811284
P 6.379739443323059 5.689679883102 5.015779646291962 -0.7348493085199667 1.4108648347311765 -1.2459427080020735
Ni 3.369181390177834 5.618537333237045 1.1558898534716617 -0.18244676587642772 -0.31699902206442176 -0.610634943922871
P 7.03956226117806 8.732374903072216 7.396990774148442 -0.9738104645433552 0.9278941616272147 -1.9365793265605682
Ni 8.026455420659765 8.813815742565833 10.855790457564627 0.5716328516280607 1.2291042962884962 1.2568341581035967
P 4.20886740511161 2.2332272086272873 4.39028785930795 0.6288710073149234 -0.756470229223852 1.1895535305790674
P 2.8225192561992336 6.044827199782902 3.3574018524099656 -0.8610457365440978 -0.5635079085280812 0.07576063997108243
P 9.316476093585612 2.8468977455992115 5.992106630843238 1.7270429035561998 0.4451662006616785 1.5153511247717257
Ni 6.988664053841452 4.537337424266602 2.502619712823412 1.3954413010872548 -3.0506804924375914 0.28991270737059105
Ni 6.610955047731066 4.6189265739618905 9.56509682709869 0.4990526662674889 0.8192781656890084 1.4224111448078793
Ni 7.875864949636174 1.1776942339338552 13.069208984880982 -0.7011539731500505 -0.05417442915987444 0.5587881344549086
Ni 4.037235424225679 8.343088431843743 -0.04946794082922587 0.48516665231401607 -1.5958371952429355 -0.8137070993591342
Ni 6.743581445577031 7.913127887806483 12.984959520943187 -0.2560155404025139 1.0286474669878929 0.10387179638500177
Ni 1.1196771369169487 7.8690241415840125 9.857906585200201 0.04099032636943263 1.5862955743010874 1.5884270188217933
Ni 6.250959841332984 2.0692980888407413 2.939493366136148 0.79905875331834 0.422861109406575 1.2747663171019852
Ni 6.415065079484016 0.11809570583706586 9.487495367950881 -1.8315528477458327 0.49340883771815025 -0.011937374867534281
Ni 4.095335945731026 1.4472294866990902 1.806228233929683 -0.31807142919299414 0.41685809774560467 -0.7617584742059849
Ni 8.667665308204823 9.235424568371387 5.9592883640293115 0.4769599481335076 -0.3621023421609635 0.09192079467071265
Ni 3.023155150899815 0.414988629178383 3.9944256845128048 -1.4139954099403584 0.7194309170823675 -1.7717718710324581
Ni 9.12377479467453 1.3613764187057067 1.6684582529019503 -2.062931306325957 0.9803230688508924 -0.07657722233510683
Ni 2.3876273979563507 4.792282660942269 12.013422028967186 -0.09857918052749473 -0.6592089961768325 0.16033605002031742
Ni 4.468864458031758 2.685387935977454 6.687399687305827 0.7817531721603569 -0.3107766953037938 -0.5536369292712724
Ni 1.5088801836569823 7.00357849849718 1.6907075639691622 -0.6139028160408653 0.3859287551565998 0.3266406589192439
Ni 7.568408632180707 3.553688550446491 13.569127451047335 2.2614430960850473 0.8179895287845719 1.1808637161145532
Ni 4.78508034677353 0.6536688714243376 7.85603402179499 0.0524445909529613 0.07068631077196859 0.9205096962376856
Ni 5.771139261370826 7.067537272968606 10.81916061856771 -0.5941541726590284 0.2640281262943453 0.4468083642507918
Ni 8.144130296299585 6.043890991634841 0.7217858931751665 0.3085871438516427 0.0622003847881445 0.08243290978493546
Ni 4.5675092809194275 3.487505122949971 2.7490037431075116 -0.8603685079714151 1.7038698078738461 -1.016920665469268
Ni 0.12352385921829294 8.756586543495313 13.390509132723851 -0.17711532636118532 0.3339006829157669 2.309637910622719
Ni 0.428938130584477 3.3338186764664584 9.869302370321243 1.5811831927751865 0.9879199073615437 -0.19089335398188415
Ni 8.756818278185426 9.107386517389678 8.661053454026494 0.29651478606814097 -1.5169320961056003 -1.0329514936798858
Ni 6.767422310495946 5.520337440954395 12.329390425059914 0.5984438011733177 -0.08979886323170341 -0.3312689017198746
Ni 1.5282624731381054 1.0321277709919319 6.010475776259183 1.2051297877507696 -0.013477979881776788 -0.35722033147831384
P 8.074628428040635 7.979088850000493 1.790789141935537 0.8857123860528423 1.435790651438579 -0.5771003025005351
Ni 5.066878999339591 5.76231480437129 2.830865412798374 -0.42165937578898993 0.16689621973633836 1.648085868135007
P 1.5088245673313547 8.112901729459841 6.212158184820319 -0.151201691819217 0.03476619983659174 0.19965644488649487
Ni 1.0584064848508439 1.6882984501307385 3.809403146293335 -0.5371949816651651 0.38204998892748393 0.06324965198826525
P 8.929618201909532 3.5727278725862455 1.6836396559206894 0.4747523989592275 0.5601670170803061 0.8777712768288949
P 6.197095429962918 0.6730771151907536 11.889531101999752 -0.86326974077861 -0.08450753292577703 -0.7142303467180344
P 6.1153208925155385 3.193869462412895 8.145641206479128 -0.33408528812274724 -1.4745623728901378 -0.4035490393415244
Ni 5.728945008994894 8.978208331732606 3.545992177918429 -2.332697877765976 1.0448785841347745 -2.022060279143208
