# total energy = -381163.41909846873 ev
CRYSTAL
PRIMVEC
9.33739447056238 0.00000000000000 0.00000000000000
0.00000000000000 9.33739447056238 0.00000000000000
0.00000000000000 0.00000000000000 13.66622064597335
PRIMCOORD
 96 1
Ni 1.3482450354999194 3.073562064383082 1.5401424941338921 -0.7558256536613176 -0.8484429601784227 -0.7900748046521748
Ni 4.071215956690058 3.2559307121499175 5.364620608079375 0.25061390977096837 -0.029264553292072178 -0.41264611654678607
Ni 0.8851046765616312 7.665263053269082 2.6970419110020414 -0.110570548561416 0.08039762452246153 0.15562116104315135
Ni 1.2550765153310859 2.8893632873365216 12.317911082127624 -1.9984012449633715 2.240843417556825 -1.038740846668153
Ni 5.507746055148117 6.317989106774731 2.751078345464765 -0.14170789339616888 -0.5269491355674408 2.226197385508876
Ni 4.769382264722113 3.255519866801408 10.817988480133963 -0.06195741553940296 -1.3666380037023174 -1.5884007935695483
Ni 6.384377980136167 4.011260547990511 2.302280224147175 0.6586965753167882 -0.4087763491787347 -2.024177839706843
Ni 7.1299315641610885 5.839559698435316 0.5890355123341956 3.523271364969126 -0.5810996534679153 -0.37203837032775283
Ni 1.892353675235163 2.6582067544341723 6.291654853674695 0.03368685072948392 -0.28356028279000195 0.0020357994831061714
Ni 1.1020086108284115 1.3890774607052019 7.953412239664567 -1.079397958067883 -1.099442535423584 0.5511540149484185
Ni 7.440437273691494 5.463412107086219 11.374805313490151 -0.016258113730075227 -0.2533873587510475 0.023469800987166032
Ni 3.1611654975584673 3.885728619232263 13.473540613373107 0.19122939716506418 -0.26105361704705365 0.19588206544572714
Ni 3.9386903196128626 4.544304375498848 2.80529219041889 -0.2962718168193994 -0.7309291475299541 0.16000334927124704
Ni 5.039036874258667 1.0795988645460703 4.286027380897725 0.17736112382340422 0.7539983706445917 0.8793640752373113
Ni 4.786394997108124 1.0388504758893464 1.0035457881003749 1.5762050228343047 2.2127769983379113 1.561339418576382
Ni 5.173411315404156 5.108068230202562 11.773448555149004 -0.2671882691898818 1.5562728026867518 0.09863703034862367
Ni 8.2064117390162 2.065207518226288 8.838463693078777 -0.6285671029212594 -0.5974297580865067 -0.5900141823487257
Ni 1.7499957619765907 3.196563559290282 9.493184972984801 -0.575758186650344 -0.22543972449818594 0.13670298398240974
Ni 2.718573008482229 0.010068512256770202 6.34918907603632 0.15023418569962513 -0.05070549677466751 0.5219321419688236
Ni 8.203545158970918 5.737119145742163 3.2251182447511266 -0.9702672272767872 1.1604877235613626 -1.8580434378371935
Ni 2.453120226373614 4.921507092402072 6.456961280865813 -1.7604065666183102 -1.3555984580587042 0.24167572674107413
Ni 0.2758051511516287 6.506137601603554 0.602599945011011 -2.30024644210549 1.0784214530872267 0.754396634524275
Ni 8.726756710297877 2.931605659078735 3.1249046605947823 0.16622850424535243 1.1544345753887473 -0.5081096342634346
Ni 2.7795928801301875 8.773340970382295 3.9415979841929967 0.030061595272070807 -0.883320231671582 0.1616473126325732
P 7.439942391794426 3.4351993450143623 10.539690244708423 -1.8041937390065896 -1.2888613617424707 0.6370355454035868
Ni 8.810522474422413 0.8612803150452173 12.839496059370257 0.21905053314239048 1.3474596310016533 -1.1124327770356648
P 0.2588811240113189 6.40978502998377 10.51335505786896 0.9163828185535057 -0.27864998997257817 0.7581090503788557
Ni 5.287206139547027 8.829477384819558 2.711214208046765 -2.1557764125831516 0.6250917427781493 0.9801513191597183
P 1.8227994252113466 8.241632390256612 8.032443944886957 -0.22958048613943685 -0.4947717795039479 -0.46976908681202323
P 6.496230626267901 6.632687306338791 4.749162137399441 0.5209767200340899 0.2799018601018083 -0.5060496664106123
P 2.6744911700660072 1.822024421485749 11.037017605339852 -0.0036427389589098556 0.11036460319819703 -0.13363077281498922
Ni 9.114818816753752 0.8929826361193026 2.0788503850150915 1.0042327855889543 -1.1630585696123326 -0.3070128573859874
Ni 5.891410248896082 8.871841142687469 12.447630832222384 -0.21638352783318862 1.6004034744573794 1.4014543400505541
Ni 4.795517631323893 8.10057237480356 5.157508799198549 0.5651950664225168 -0.23556472874732978 0.4352952214048697
Ni 6.862966124178415 2.197060862915013 12.159246343490933 -0.5209016438217803 -0.25902758775596035 0.11672242709542478
Ni 4.145401554278892 6.414705836771602 9.616441378755963 0.5413388286302095 -1.5635238278222106 -1.1528656882397306
Ni 0.09541042853649598 1.467670308396229 10.696728409260785 0.1531567586630588 -0.08126434339813102 -0.24827034923945632
Ni 8.965915390101879 0.6490646864485885 4.4872351553725816 1.199227563333722 0.1837935097123093 -1.0099653171973573
Ni 3.8208524037448854 6.646375926359588 7.170665946726386 -0.8731024105983156 0.4872577305150898 0.19737896170622782
Ni 6.216108797738638 4.261885547975644 4.414804054169769 -1.8362389403675925 2.7439905656086614 1.819400785764331
Ni 5.67561372959142 2.2456153131934187 8.560479194101191 1.120710957884057 0.06221092631110576 0.672076853278436
Ni 7.572953573374405 6.411839256726318 6.7231377110314625 0.09264378887966626 -0.7912503130175147 -2.083621487685457
Ni 5.110561314476473 5.279353390953923 0.49945255157053675 -2.2760860428092027 -0.24316979478809736 0.27175223441148033
Ni 5.9871745646759535 7.348753399213866 10.665295938881519 0.04981666641181098 -0.30360460303538683 -0.24612604920294384
Ni 7.106279944438934 9.262648443062929 5.415813805982526 -1.3660420219895313 -0.8059076579193735 -0.31629196869506815
Ni 2.0319477197855798 0.20236841258439664 9.78580677124247 0.764618055141967 -0.1337439013540858 -0.3757852389646948
Ni 8.616155275000239 4.4708937816356125 5.002355854552189 0.0781183415699816 -0.982527789811695 2.835659392169568
Ni 3.7661632854216887 8.953403281760906 13.580123234170777 -0.16084744243909718 -1.2971441705765532 -3.3898966740290004
Ni 7.85062900460118 7.523147912261902 12.506299547989551 1.0923992554235575 -0.26280890917526356 -0.45326954649510326
Ni 3.4132097814748152 1.98115229487894 8.348543687333093 0.05210803354914897 -1.269279325845485 -0.749651920750438
Ni 6.757164109542911 1.592931452720232 2.580428127524737 -0.7042583231069871 -1.118821711281144 0.6587791077282655
Ni 4.312643623305147 1.8309603078158327 12.414408383358813 0.9064174798106777 -1.1022753768866886 1.536300473329883
Ni 1.6222602081672461 3.1940424628335187 3.949263984900414 -0.11122103766122135 0.24859379401714607 0.43182680324029504
Ni 6.845028989758258 0.004127128273664499 8.428846211917577 0.006919609937968729 -0.603834890281902 0.7333079321747759
Ni 5.9250435431081625 4.543034489876183 9.138561009200464 1.0551010331937314 1.0793426793499152 1.1795853636227622
Ni 8.794704928504792 4.32192499322375 9.344236726840363 2.5926004119277226 0.7408150391850984 -1.274509978116805
P 4.765096400745615 7.037967567854931 12.628831371964251 -0.9173135578978912 0.3024095542860211 0.11744079331868806
Ni 8.879964675714817 7.522372908536304 4.8535448681037305 -0.5426683460749105 -0.284478166618581 0.08467594018284126
P 8.722022651395733 4.502659596990831 1.394419383975255 0.5287977587404054 -0.6646106268083779 0.3762444379893004
Ni 2.436863822924632 9.266906294856573 1.6816553732097346 -1.1659045237015597 0.3943776572549014 -0.19435894393298142
P 7.225481119872421 9.239006160735059 10.792132301621283 0.5586143278812056 0.5730037638336584 -0.7699811192260932
P 5.330895807403308 3.147682300211925 0.5787260953048902 -0.26025786061863565 -1.120887078450605 -0.7219446846431566
P 0.5306170387338458 8.85459497544435 0.30760644860512765 1.3641538038278829 -1.3349167613396367 1.522046020293398
Ni 7.386448459939621 3.621377649649196 7.170542693121833 0.2844611973377165 0.5957654830102062 0.25216839874228186
Ni 4.902972364747718 0.3031226318698026 10.260557246233867 -0.07585705633963065 0.6970288952380834 -0.0633776929256973
Ni 1.6093092422949098 7.106326631410356 5.865268346118303 0.8475821548400242 0.8436838482268825 0.6265721839784177
Ni 1.1916942829291977 8.601364842453895 11.82208704197597 -1.7541664992458694 0.8116008516494086 0.7401102998085899
Ni 7.239776670521698 2.463073888680687 4.829178003979398 -0.9333384725712377 -2.1818731096702035 0.24239383585402122
Ni 1.9453340504043313 5.25002463550691 1.4915310857503519 0.3047628850095461 0.36125310678679073 0.6930223451818517
Ni 4.430434852201702 8.601747675619551 8.12463670735308 0.2894499088015596 1.0679825171420898 0.3408480607678775
Ni 2.0006674489331453 5.746157743409375 8.642080550230624 0.1271089125360714 -0.5933615015544038 1.170251487816346
Ni 7.835231641426355 2.4205887446870817 0.7768273187013577 0.05684657667539887 1.2547996441720712 -0.7904566134716258
Ni 2.992280047138174 7.678036608650017 10.999147935340979 1.6692535033515574 -0.19840971696358733 0.5563592132984418
Ni 8.815620691701644 2.102276973534994 6.316513798477811 1.4021529087794755 -0.441628105601433 0.924465338451324
Ni 5.417434777630282 4.753938214575866 6.935634395196049 -1.0552676406785826 0.14302558376632787 -1.342592018496707
Ni 7.784305492999735 6.3515570392268215 9.323532922493765 -2.362761529920576 1.2899610225645526 -1.0312267976792948
Ni 7.65448770026499 8.975738328888973 0.6548716119540001 -0.12983813854177642 0.6986384058170484 1.22357719582268
Ni 6.0145237925346935 7.604579327815359 1.1066903803225638 -1.2737108792542775 0.8527747547845571 -3.1876135901529357
Ni 9.018092749362596 8.482462463637505 9.574786329114232 0.17905316681384648 0.8335423889175064 0.4134621846901783
Ni 3.9015461651498824 5.778745249461613 5.068555178809653 1.206140488403471 0.19284867793604207 -2.359858754451484
Ni 1.9643076355900468 4.813436090955482 11.230134527667355 -0.07836850990757471 1.1995687487232245 -0.44228450823850923
Ni 1.024592274817207 5.552658921655643 4.148094458790486 1.7035147385272726 0.6890366210612262 -0.5600898839854676
Ni 8.77374247833652 9.050642905837698 6.984722944427517 0.9944337972206616 0.026156089570077534 0.2959879670303935
Ni 3.2777335278037785 2.057196033930351 2.732232682580744 0.6565643594651338 -0.25957728961184323 -1.0360877253160221
Ni 5.561398722705756 1.0126684223161446 6.673898829752017 -1.0408090420510914 0.3964003441118851 -0.3827624416134763
Ni 3.4235649517361137 7.0274536618907995 0.8293286855437408 -0.19975980323357856 -1.321399443579492 1.591532911440627
Ni 0.05172169441964343 6.809266769649355 7.885149351270271 2.4989644343381157 0.14320324699477271 -0.7521826575920917
Ni 8.831204802762157 4.574604219951431 12.871174103219202 1.1860853695248088 -0.7175650675182222 0.563015799383011
P 2.935564714255282 6.512981911613952 3.1621720686623154 -0.37996533848431335 0.26469147090995704 -0.42206072499246666
Ni 1.822239181554288 6.541152830169711 12.785787367446913 0.9224632204196306 -0.3769322080849444 -0.7472811065254162
P 5.882184903343185 6.817436989648126 7.7094569404167155 -1.6344335674588948 0.7157028174985028 2.4552446248526616
Ni 2.1668543924052734 1.2680274812034222 13.202689883628732 -0.03950988516916422 -2.3636300485684583 1.811506727728235
P 3.801598696730641 3.979270635172469 9.00434437001838 -0.44589279441505786 1.379405844890947 -0.5179068228595145
P 0.28320596986137186 4.556190878422774 7.135365927634557 -0.2512471724795931 -0.07811525624618805 -0.35592012460965156
P 2.8691291539224246 1.4560359151179803 4.733746099436048 0.09333335874752313 0.8182378973499521 0.07727681950529271
Ni 7.4450779586507965 8.441489977517959 3.06012648774739 1.1998286872528305 -0.5734459935773996 0.27628586061577576
