# total energy = -340861.76971363416 ev
CRYSTAL
PRIMVEC
9.28310006440391 0.00000000000000 0.00000000000000
0.00000000000000 9.28310006440391 0.00000000000000
0.00000000000000 0.00000000000000 13.58675529439181
PRIMCOORD
 96 1
Ni 3.4504355035084875 8.639335742718881 9.526828896921232 1.2162384960694215 -0.22702712358996383 0.8373995578800675
Ni 7.627812015407683 0.8245899391163292 10.077826379412544 -1.5939700601272098 -1.766876747723686 2.759023291572068
Ni 1.6792107072941072 1.660774470349428 1.9247951223854927 3.23394204090583 1.334759924046798 1.5076373010672357
Ni 3.2308809013037485 6.609214565764238 7.632224272920174 -0.03389845251965775 0.12681220723125902 0.4951733858177408
Ni 0.46201246915767064 8.375853510492881 12.578849522251055 0.8015210988159035 1.1626245673987075 2.0206487435076617
Ni 3.6703892790206885 5.624407600752531 1.2115336904105336 1.5816233656363985 0.7549267959961321 -1.050551723260152
Ni 5.11535023653532 7.811051129733476 3.3985773210089594 -0.5852684401336242 -0.4951340479393731 0.04784231629425954
Ni 2.8123151975783482 9.099768228227012 7.421968552159284 -0.24226348092374406 0.9058009292726013 0.012241022150882146
Ni 7.426248061339294 8.963585148680966 7.836976043588162 0.6642645563228688 3.1101956170840883 0.1936917426626277
Ni 0.3697765141432501 7.938675190919504 2.761127254911351 -1.3082865603466178 0.5718064010914475 -3.044183314749022
Ni 3.473531856740291 4.538721186154807 3.327504977770208 -0.41333697196622365 0.14710618159360472 1.6081072708595403
Ni 8.27624584563064 6.52802457164633 12.28825599596819 0.1181679012926997 -0.9507011322194012 0.7351562982374242
Ni 4.347907062087393 3.794689990344584 13.263716735725161 -0.34491657441029633 -0.33176538174031894 -1.1577896079039092
Ni 1.3178938823390176 7.264341511212328 6.636220032479125 -0.7284958554981131 -0.325111366758911 -0.6134952961898016
Ni 2.067160746647125 1.5620208507031548 4.513995648842545 0.5512298624916764 -1.884271004075155 -0.4584667744253266
Ni 7.5304044452865755 2.217714065261833 2.11423534762722 -0.05748112493560423 -0.6092879429766732 -0.7317824966691849
Ni 0.8647644117374211 8.412577454779463 4.75779678039059 1.2565919601858035 -0.06179826425371938 0.8880605745700447
Ni 5.160280441375325 5.718092647704043 8.133779035577117 2.5136240932328193 -1.119072908060002 -0.4872762424578512
Ni 1.8631182048323962 1.3223776197228443 13.055486587422143 0.15723015740148405 1.042543508243695 -1.44354689834523
Ni 7.61479710896436 4.65539118913604 7.998943862176272 -1.2216416693628638 0.6050741620056418 -1.151894582575713
Ni 7.091620149383173 4.5424158600238815 2.5902606564968713 0.27460718736177225 -0.07236472691565601 -0.4925300346576227
Ni 6.1284613739761955 5.915330677091556 12.48988307511776 0.34595967096283 -3.5576835239004083 -0.05080808379080282
Ni 8.213195029251859 1.3090656540739671 12.933028571482698 -0.6647209271339972 -0.9412764964713919 0.13351790138620875
Ni 7.529866025476509 4.987215604839748 10.231968544554348 -1.1189937180826341 1.2973202911431012 0.7449234049265171
P 6.192097025665912 3.777906145230797 6.290341931422674 -1.515715707199996 0.30444509665881114 2.312676954559359
P 4.171138268582568 1.522066387556176 3.5317953783595715 -0.10943334963317927 1.461639751291199 0.8978996721476536
P 4.111652162670429 1.581357548364669 8.26156276608613 0.5483206592646815 -0.756891890142303 -0.5565322485411964
P 2.2707112841526556 4.7183584576132604 8.976850698828978 -0.008213903269360046 -0.22260559748350045 -0.9027071208386259
P 8.37563999918889 6.992198146524404 4.674903337390835 0.41408002077983525 -0.2752720746392807 -1.3949468779493395
P 7.407579746890275 8.694338111247191 11.883193489755241 -0.42038873660668247 -0.10972902649672715 -0.048480464098890695
P 2.760886822616856 3.6838497742723426 1.4332122659349815 -0.2883602752818066 -0.8405712707398298 -0.4460285486619737
P 0.7886234958039094 4.4740829596463465 12.29120430858331 -2.0331692445721763 -1.1958632748471791 1.1027805986578816
Ni 5.412845747797223 8.018305624208255 8.146645412417664 -2.432073071832205 0.3197094790170494 -0.23803350200279652
Ni 8.980591788198918 5.75430602148108 2.6632889489421903 -0.5242301939743811 0.4739327312714096 0.7015422097274048
Ni 8.003554778032477 3.6173734939295183 12.182998636340324 -0.6101441203293815 -0.17919046372265915 -0.20328787099149503
Ni 1.1318976872616786 5.1123239458787415 0.8806134486637308 1.0019144218684228 -0.9302932579870107 3.185988652955003
Ni 3.4625685154353234 0.19362690342000063 11.735546709804874 1.2280696843763945 0.29838269251481514 -0.14665238188563776
Ni 2.464013279066582 4.020649931669075 11.156560680290294 1.190032527098015 0.06599636149546698 -0.1865160508497949
Ni 6.618841140644214 9.27991607019501 1.2058923504350645 0.005990156145163877 0.6541506078173185 -0.14157059648735618
Ni 0.26551430285398964 3.5191211616926172 8.858143055359648 0.35004566810674553 -1.3837381537177138 0.7135297211065841
Ni 0.4511391739243862 4.835715410007338 6.920454635143105 1.4074738067717567 0.5122578521038532 -0.5970623474447588
Ni 7.840200064278437 4.725989165955922 5.441916704300726 1.5060352466874387 0.07809880118595582 -1.3568742394473343
Ni 3.9505161098578703 3.856181245894209 7.846351046453435 -1.7458132421851673 -0.1318986206152309 0.8598167492330031
Ni 6.142599535540518 3.2028645049799613 4.220345197672528 -2.0686795216636433 0.23926583174800084 0.012514844637559091
Ni 2.451963815041308 2.1762000412856968 9.536109212164734 0.1240971222929411 0.3298056869107868 -0.36768446423443124
Ni 3.3780551714552827 6.213457439165261 10.30166791727743 -1.4130541290730114 -0.06872815860433323 -0.019742215623933745
Ni 0.5247337354802919 2.3831853258554423 11.105311469162151 -0.40291346264005445 -0.05652981676592845 0.16538569662908292
Ni 5.386918049012484 0.5374794320185823 10.241221010497329 -0.7549031418470483 -0.5424582869466335 -1.7284397839037267
Ni 8.131949336532909 4.730194410334543 0.531370223794366 -0.9975394327291787 0.4020120338717076 0.6057431630482083
Ni 3.9030701848708333 5.33393939632201 5.878540822793743 0.3267152209109212 -0.8801806576013358 -1.492117865275398
Ni 1.2713391349686414 0.1974533973115398 10.240351184011068 0.14155234165491104 0.46488810457063806 0.69808973240243
Ni 2.72342023031639 8.686540307101406 0.17569009726465853 -0.17393590019193914 -2.8440216480913345 1.0994736457718353
Ni 6.225841094796783 6.447837152347166 5.3561167226366315 -0.8639767941479636 0.7559212986989174 -0.08198476650392332
Ni 0.5704344376347009 3.0114469794012666 0.3913402275363999 -1.2223813757423658 -0.5581852107635871 -0.5911279842381949
Ni 6.1005935072551845 0.8248758586016747 4.0229298610717 -0.6068173699489937 0.5199914733026851 1.0435164136799253
Ni 4.030527150253737 9.176298106057796 5.520869471276807 -1.3712276799555287 0.593601642589668 -2.452695118957931
P 6.291806804630061 2.84303297605264 0.2855258818981211 1.3215575664239112 0.022763261838444668 -0.6224213950348376
P 5.294560485385791 7.370159570090677 0.11519027681356887 -1.2616670607158658 1.014999022966523 2.4593501623806033
P 3.090000573069885 7.097078612285223 4.783271463886858 0.7804701916828752 1.1460430088909423 0.03879743248317189
P 0.0040056577248887846 6.839073409161622 0.67072348204968 0.04538434167207022 1.4306636146246585 0.2224772994357523
P 5.427448064370225 6.1916607199577545 10.141208602467524 1.5578329480850202 -1.3532590112922498 1.0272840109814632
P 2.3481323396001 7.738020980668122 11.556446001536452 -0.5519939943512107 0.4630186554620671 -1.388091545590403
P 3.5806124172422424 2.2140193913927577 11.473742862090253 0.21277138500189807 1.4034544011997185 0.5939176311681901
P 1.9025249650691352 3.522834401762039 5.058009455073291 0.5235815046467885 2.874250365068889 1.0985537050607275
Ni 4.929242644255899 3.1437497230747655 1.897308791081615 -0.2051758320428273 -0.7595650660990918 1.294354780756874
Ni 8.06833225104354 7.1644646364450555 6.799532972282384 -0.28493890830508345 -1.5253761131078958 -1.2500130214167051
Ni 3.8580657152294404 2.6806437047166507 5.921352624174141 0.7082988117249479 -0.41273327694395373 -1.8914292123864909
Ni 7.497737215775837 8.658746705181782 3.3079269195041823 0.8073618738673966 -2.064491451724225 -0.13665284747076464
Ni 5.733465461591449 2.0368978400813376 11.878900055924971 0.977287367348362 0.5364761012212697 1.0705307374852402
Ni 5.7853951239623145 2.9401063545675 8.857993597446853 1.8803662697041101 -1.5277129887711884 -2.0440092726104733
Ni 0.08298998724156025 0.9041099035130147 3.3173557643504616 -1.0704173518358275 0.9758272378630677 -0.2284335170191872
Ni 8.406320645262488 0.4483523872522851 5.598530959018748 -1.7138402888229969 0.578355772174191 -0.25652076217370656
Ni 5.885271998729587 1.526048837530631 6.4590752734172705 0.5281356996763743 0.3305690474393726 0.7042295267515807
Ni 1.4443297067028305 5.924103206755565 4.2345297747377195 -0.568576324189924 -0.7819717159290662 0.972780480616944
Ni 0.6413369001402758 5.3488666214010845 10.312932031028023 -0.16773619913913046 1.6821516994704642 0.06526745374924242
Ni 1.5850707884340909 7.583123171172192 8.837165105587449 -0.4566873139274006 0.0481477633498203 2.04429106551695
Ni 7.198997769090679 7.048490865976839 1.1389983305844305 -0.44972476656663835 -0.8824031191739512 0.963419094006702
Ni 0.7681570448512738 3.684982312493516 3.223118372938622 -0.30116616879722324 -1.0010754709068954 -0.20000740046801038
Ni 1.7754857391940415 2.473621287746211 7.133019062917157 -0.3647708901320621 0.09732885306016141 -0.4735660919606102
Ni 8.932690991303378 7.799605067219484 10.554055916486014 1.7661313849172293 0.054291928574345207 -1.7878397231285983
Ni 7.012509569704141 7.481213297466909 9.615564194860205 -0.27685921662074253 -0.369525374097912 0.06067983437856001
Ni 4.606237173717069 0.7162208843102882 0.3051587104551716 0.2065050923772121 0.6839178117774222 -0.010128346683253525
Ni 2.015481727980947 6.127514497758493 12.833723535686115 1.43618505866352 1.342711317683391 -1.6253791705661105
Ni 4.95653495876615 3.9262408029040254 10.582601449519695 -0.6371381324197221 2.07275086351954 1.3627055014171305
Ni 8.424626918804737 2.723745138822464 6.85428748203606 -0.06742923728725161 -1.2936510698216301 -0.6214646875485232
Ni 2.3028865093541953 7.104022371215042 2.2029297999254296 1.0157233027270574 0.12069580992087602 0.17569684874710387
Ni 3.3950525278730606 0.019196522848893435 2.3652503763201347 -0.11087445295508 -0.9014611642466668 0.025470119246646456
Ni 5.152139162523117 7.703524980423195 11.64436531497017 -0.44901308521159444 2.615334620300444 -1.7344767341264258
P 5.841400067309368 8.654346515699519 6.1693654982709285 2.905478984065867 -1.3749344393831546 -0.40152943780833433
P 7.44036765670327 2.8760808126704944 10.235731913364708 -0.12921978823148714 0.8188238517604092 0.42902301524291275
P 9.123050243462288 1.1959046629583372 8.912598649287736 3.035868367125423 1.2840608550300336 -2.85544557365756
P 1.0725601109523182 0.5595453611311214 6.403165946002004 -0.15802539960926978 -0.054366490566022496 -0.28997595650835867
P 0.32417235623064605 0.6666249933230557 0.8720349357933491 -1.9087296513381513 -1.3513743926750275 -0.40208505320148813
P 8.119017977991149 2.5276210814557776 4.261567732303215 1.2150861276325333 -0.525945634003591 0.47500436706903365
P 5.4865999786761135 5.5761447629502205 3.301649687166824 -1.470389729569687 0.7730559014966751 0.45932398021929927
P 9.098097270195773 6.6315404216816365 8.507020931015155 -1.4027339780939263 -1.404387454536949 0.9287410830085424
