# total energy = -340863.5384769872 ev
CRYSTAL
PRIMVEC
9.30248731206348 0.00000000000000 0.00000000000000
0.00000000000000 9.30248731206348 0.00000000000000
0.00000000000000 0.00000000000000 13.61513049103251
PRIMCOORD
 96 1
Ni 2.593970623095186 3.6031788446588044 3.9144047139003497 -0.8371779287875646 0.6310078511522681 0.9139448985359745
Ni 7.67800308826954 3.6551146301925934 5.722303082987591 -0.33627741067805955 1.826310625510287 0.319832634858475
Ni 4.59162391499344 0.6530290136128707 11.004442243900101 -0.5612656494611237 1.5407255989807724 3.159795282389087
Ni 1.0716186075829974 7.1109513815199135 7.604758095513424 1.325138856017266 -1.6571150682168105 -0.6468731003192988
Ni 0.92634259663859 1.70894130195975 0.8310990823653144 0.18673048085344615 0.11219934241409063 0.27074873284763046
Ni 0.056228883334943 5.667344919391842 4.924728303668429 0.2182853728415918 0.7048525050475603 0.21266956931671113
Ni 2.7154145923130995 1.5454500910057216 9.082885157057104 2.0837806389711404 -2.074012760951099 1.5909230457707697
Ni 4.335079925480485 7.239316401147489 5.730444619706053 0.176460980606638 -0.667829905076624 1.4207759231973014
Ni 7.351597420562289 -0.030128895251089978 4.51297975871882 -1.3563844442951092 2.11970717766442 0.4982329985796709
Ni 4.716388872109538 5.561854715567166 11.9974353001827 -0.7054184048533594 -0.8730972683919932 0.11460872318653165
Ni 4.108703901664481 6.6810555447165845 9.550973284938262 -1.2290644441894962 0.6477650160059489 -0.1404997320206806
Ni 6.585695749354437 2.272141779045936 4.381635152469989 -0.9612202865831703 -1.197894189234279 -1.1973110630372992
Ni 3.7839168667143275 3.7087620733545785 8.314514605770322 1.4002076121276466 0.07965586126043056 1.9150792477052632
Ni 5.069753147460872 5.418149894695596 7.492228699692793 0.1821562312192024 0.7232518334903544 0.5185046043445135
Ni 5.245216659325163 3.5887413846644574 1.2083493538683796 0.6059334246821435 2.284905440873046 1.4008007656269552
Ni 1.8271387031763577 2.944460429929605 7.744286099672712 -1.6688536968099776 0.749463973109348 -0.47983649835035425
Ni -0.18703952682367406 9.219890326712225 10.521677582105873 1.0471614666316804 1.3331830664779816 -2.484807426111443
Ni 6.225903455410258 3.5066562384079374 10.998764936017016 -1.0364939596155054 0.6431599131337697 0.3166778912795772
Ni 4.689318634620137 1.7005504585867466 7.426046155150408 0.23091026069445392 0.005202370136545878 -0.311884840766308
Ni 0.7606866969341207 6.662069168525565 0.9246523347307466 -3.052521916521704 0.12402101763936704 2.656409278853567
Ni 7.593062078470323 0.1939168555439195 8.503969058247689 -0.17178748639036867 0.2767154919540266 -1.1163225990083743
Ni 5.502495545319789 8.771938362428852 0.7631555770130509 0.9379327768101396 0.6339980441288435 -0.9173089299122008
Ni 7.4589946342444655 1.6412284982878085 10.523134351587265 0.35474024536893745 -0.1222983785213055 -0.18708683575160037
Ni 2.949009346126277 5.148201021257477 6.728093570787085 -1.6403476189504844 0.5678312184937834 -0.21219571500408616
P 4.945304474906506 2.180502978527693 12.86775459845147 1.3235069768407979 1.0640890956249545 -0.499336773166811
P 0.9030835881180576 4.908475928438968 7.6670205719877575 -0.41499379084335625 0.22598736947153983 -0.11034197749037772
P 4.714119065254756 2.9740981538612994 3.298101919396811 0.4326053332775324 -0.699677388604524 -1.6537703201142937
P 5.609529962004685 8.290395117192137 4.103477764406217 -2.0951359160829597 -0.26056305056388035 0.18600105888658935
P 1.2719290625174549 3.843694648881644 0.9749155330822006 0.14897357381964665 0.34482195781396097 0.6814289839172973
P 5.826268609174978 5.668833317329403 9.81942259745429 2.47815906755699 -1.1155355843307044 0.3718000290647016
P 8.333409817587667 7.52197247197754 7.52911213083428 -0.9038252936034692 1.6999671303853305 -0.04988042977021087
P 1.054250864149076 7.0138148111198015 3.198275999973268 0.33308204366921346 -1.4045381211822003 0.3848676608819372
Ni 4.951072016914558 9.014351874022083 9.17620305649866 -0.7834716975133603 -0.05394688653010064 -3.205243387419557
Ni 4.653048237379184 0.6884873037291421 2.691956510568418 2.198128395186801 -0.09367171592354835 0.7218508393777697
Ni 7.4942696653646745 6.960781332107061 4.442780400242439 -0.9082979846628421 -0.5198703743437885 0.5289047166319149
Ni 5.553333637374625 -0.08280329826139377 6.203148641691074 1.2710685565354238 0.24211744226418305 0.2988156662871757
Ni 0.7650011904556273 5.707382823912248 12.392437507837318 -1.7944901385655807 0.2493124173507255 -1.3068588267611558
Ni 6.199689046734955 7.290340542944521 2.323776163997369 0.6156138851947011 -1.7735428468899521 0.004618215498301724
Ni 8.664848130821298 8.086047382852042 12.418509588459841 -0.8769518662513929 -2.3028232016937307 1.1561309892545637
Ni 9.399977174670063 1.7399092815481403 5.982284341487603 -0.8963603526849917 -2.9087088038570745 0.4062219581879972
Ni 4.22221284937777 1.7115366958633729 5.212457020719432 -0.1410553474138345 -0.8416156528439441 -2.177481665470727
Ni 2.4700242848447465 6.182702705272534 4.736050608864727 -1.2935700800720495 0.05504963267597616 -1.273888285372406
Ni 7.499544175555909 5.649409724244225 7.043392999133994 0.845510617022976 -0.7267037965946969 -0.46648707362664177
Ni 1.9490105868013206 1.6675545368084286 11.515609259337847 -0.40677371692640907 -2.4185799224417766 -0.02555933652634308
Ni 4.499501385145489 5.869022839931434 3.647398217135048 0.6263978631840825 1.345989217103714 -0.7805403827991783
Ni 6.198377396052479 7.443664135487581 8.091907949731192 -0.27604751935272454 -0.10427880201543331 -0.23006462486470702
Ni 8.351977581858746 4.316912168155124 10.200210604805195 0.8579123331214386 -0.42830207791648817 -0.3695729395063958
Ni 3.3905611992781353 8.490026490567582 3.941865655848361 -1.0814797802975762 -0.306332286379195 -0.19892008094110258
Ni 0.8714793184113597 0.024747406458093944 8.158648643500163 -2.149913783154788 3.1796866219963755 -1.4412907553212018
Ni 6.814313672563894 8.192439927926365 10.465910102131575 -0.9134517609496399 2.3518032311368593 -0.0005445596495603525
Ni 6.577742122875593 4.629503642504382 3.3072239382566413 -0.16344605640420884 -0.792218847578371 0.5297634650877845
Ni 3.810382442541594 7.5370797110437895 1.592370905738639 0.0022543432518154724 -0.4635413607347565 1.263723429024262
Ni 7.020521904325938 6.380966613042844 11.761362363803482 0.07865647346163873 -1.5678864756662803 0.6694808104164858
Ni 0.7218962559351334 3.2738335910248693 12.500922182262626 0.3445095687798647 1.4087354470929996 0.00676791485145286
Ni 2.552583857943864 6.55963018047289 13.545570088968296 3.6914564787202164 0.032487431104744044 -3.035921331850546
Ni 1.2049883652756235 8.7839943857231 13.556599117685629 2.2075823415108498 0.1290513809744229 0.27119096259137165
P 7.825112619423281 7.28495440290797 0.7589220151293993 0.6507366970397631 1.6458109560579013 0.11411789959304218
P 7.893541714602674 1.1391360590256339 2.781761790877328 -0.45157518951181586 1.507073715254282 -0.5763708805336784
P 2.392320610016923 1.6516751913120684 6.169015955987944 -0.5422613404444789 0.963512682161773 0.05820257648266105
P 9.80984475672608 7.186701534054688 10.678632865616585 0.5421667238481437 -1.1923940853516561 -0.3534942887769783
P 4.539511382204566 5.725420346418072 0.7350564844493105 0.6429807072434282 -0.45061873913581757 -0.1586622618623203
P 7.343587979160786 1.7259927608319396 6.6500791928897955 -1.618962211296173 -1.3949934149165588 0.4852859515006998
P 10.058407212298862 2.086278086592936 9.648825216597116 -1.7378335664138007 -0.39789081261448245 0.001969979242177252
P 9.066417894375407 0.9072631955764726 12.398564125847805 0.25662257785889353 1.4024413865541718 0.5815133439665662
Ni -0.3804661412969092 8.688188070979685 5.904949975398037 0.9077323419673592 -0.745679052145619 0.42061473657455944
Ni 1.9463872854363682 8.968490612570966 5.952208470413039 0.7842728532584171 -1.5554153397824633 0.052458474910032235
Ni 7.900890679419384 2.500657374897185 13.278605453394988 -0.9145678768319538 -0.5060075003187672 -2.284478637748272
Ni 3.414180214049815 3.851676182821818 13.691102848556932 -2.357782845759062 -0.18729458088703224 -1.6319190285671572
Ni 0.8710727997246632 3.6924827209124986 5.767069441705888 1.9153101327691466 1.9792971771440688 -1.338612979244301
Ni 8.283325226988719 3.348486050080692 1.6452388004808258 0.7981832926919221 0.14027167517027453 2.6776242223682853
Ni 1.3441721774118494 1.4105175154786562 4.044142780625326 0.7435560922653452 -0.027106626408804933 -0.566036845597522
Ni 8.578865242465788 5.691829065464729 2.6435268324262977 0.26664936596727623 0.261920078812407 -0.42282639951389767
Ni 6.645696791212388 0.17828216545854622 12.515327083552089 0.542769133318833 1.7530023037344389 -0.19789909587575596
Ni 2.9615025863146847 2.1525583072499743 2.220505533597082 -0.7313621213023146 0.959789981894547 -1.5704372671125921
Ni 2.013355890139529 5.467760058451946 9.677865720856362 -1.1053676426587673 0.5098327876021284 -1.1607389203402203
Ni 2.652771644115977 5.314455070883104 2.180858333535286 -0.9617892717127631 0.03620884582038925 -0.8255385447764234
Ni 2.2046429325775194 8.317093255197147 9.451351089982422 1.014623127684343 -0.8554921537157203 3.8778784271943083
Ni -0.1204309283716611 8.815827496612698 3.332057857844856 1.4500859850153285 -0.41918366055498774 -0.5403744078344113
Ni 6.3007047542598364 1.7763471235570694 1.180385147367731 0.8565313936135119 -2.332923106402905 0.41968014057543207
Ni 3.691226885152681 3.06586718919908 11.063273963128355 0.7435697191121 0.8380973552780405 0.2600794260592424
Ni 6.593649375833282 3.8477412307743895 8.437119525379533 -1.6021834491759375 -0.5736282847915347 1.1688708054187356
Ni 8.673043621964995 3.193515917319204 7.781523025324369 1.2193150781122162 0.08665003319007658 1.8438926002581082
Ni 8.039218662741513 6.677446179717998 9.461834992955122 0.9967902132679801 -1.670517971886278 -0.07999216155392676
Ni 5.074534625835289 7.86272257480804 12.091842520864807 -1.5383005344790475 0.029503408775755642 0.32862400789785984
Ni 8.252775859320268 0.3109821440792695 0.8435169724081327 -0.5276857566231492 -1.5264564906562679 -0.015147911385031977
Ni 4.546060333129836 4.04406091873876 5.041859639862259 -0.044165124552988454 -0.3255433120900071 2.284310487601524
Ni 7.265986631691169 5.331906536701013 0.5707531663706004 -1.4072244097651119 -1.1520131104314484 -0.34580566188346895
Ni 3.5919228352559953 0.7642588519842685 0.017816123312611933 -0.908085868652036 -0.5270640638787503 -0.6499759076143388
P 8.823222973864956 3.6703521040783804 3.8978072163991166 0.26531856297099465 0.6665813773815036 -0.6249405619122657
P 3.331015979288563 7.895858033893005 7.756117933027615 1.190070579424802 -0.35968884762346437 -1.3014857353747007
P 4.976318966930446 2.1580560771318424 9.401193009735309 1.0306274735323993 0.4807839498652881 1.6428138211027898
P 2.572770254972043 4.917183056373703 11.608750411524316 1.0841624693360619 -0.6336062080070637 0.9370452319988636
P 2.7223542476969804 9.330394571089059 1.89954182084904 -1.7343144975169489 0.8581182784846576 0.37040443426875563
P 2.7706992732064024 8.754235729458978 11.855006780542588 0.854923939917076 -0.35238202954940606 -0.09300065799845274
P 8.037469795164878 4.450086573618445 12.330868996901373 -0.0010047871154305276 -0.29941499043407144 0.026570037179044565
P 5.871385671657313 5.499565261880214 5.571133946459151 1.8786891391120033 1.4079489466359623 -1.0849600255366927
