# total energy = -381161.9608616323 ev
CRYSTAL
PRIMVEC
9.33572642720923 0.00000000000000 0.00000000000000
0.00000000000000 9.33572642720923 0.00000000000000
0.00000000000000 0.00000000000000 13.66377929591994
PRIMCOORD
 96 1
Ni 0.33539437011878614 0.8688293697612262 6.306913289165284 0.40574630410315926 -0.3186010764442191 0.3166850903684288
Ni 4.71593281368413 3.9928341317429528 2.898223955277516 1.5714834489889193 -1.2730783878766012 0.21954212806682838
Ni 5.35872557784004 9.272271385966357 2.399646690560284 -0.06023811885545109 -0.08355596764578513 -0.0313088374156106
Ni 2.4555760933572803 3.6302065143826634 3.331720938261094 -0.545566236447996 0.7412071324171944 1.3663150731452598
Ni 6.759196554218067 5.263986627167532 3.492147926450541 0.06270174990459525 1.6058048479786085 0.7131329998887976
Ni 5.815784066904351 7.297951984288991 9.138594987967787 -0.5301270190747902 -0.1866949996298204 -0.5762068441519883
Ni 9.125681811325077 4.012681885894485 7.537569270968737 -0.6831804193907653 -0.14974207655455501 -0.6487420352072375
Ni 7.687242436012769 1.7206117032662442 0.09153679654552004 -2.2606797355564616 -1.4261518427972342 -0.14148240764892406
Ni 7.921214408988172 1.0664947030869065 2.3218586181629113 0.17065902921288026 -1.9066797107876579 0.3002287445846184
Ni 0.1098871001956857 0.06149069496447958 3.7367700960092307 -1.6810345551468855 -2.0602355046613487 0.48893383266593216
Ni 5.109415006524578 3.6139716863160993 10.09385731269662 0.10862473768895485 0.4500800930235281 0.9870727288698999
Ni 8.093281180750587 7.836978150423131 5.713167630364928 -0.11775703900752622 0.10991491725528812 -0.1025816168186685
Ni 8.59445097666626 1.7682332432130772 9.197240153550617 0.8873442652293105 0.037902431472728274 -0.9970295829722958
Ni 6.140807378656751 1.339097911565151 9.218501336666655 0.9057338234800917 0.039516570037383555 0.2232794836220735
Ni 5.281939228876562 1.869348494960607 6.521380129145015 0.4734426790088685 -0.21646760290656267 0.5381666015498151
Ni 5.435623955519331 6.296023164415631 5.448499789256769 3.049857996536296 0.3919777895641572 -1.9110690981046052
Ni 3.715226973958395 3.62773254690846 7.390875136192697 0.10931327911554722 0.36490073084170704 -0.14330120602521773
Ni 6.289786899235375 3.5549698959879317 5.070519569966943 -0.5276158226171623 -0.20654237337305076 0.3181886714971488
Ni 5.06434211986249 5.783799868539747 0.2085433216311204 -0.14328706495783064 -0.9450727302890305 -1.4265519064491303
Ni 3.3628779912739466 8.211266089954288 3.876796655049134 -1.0676019938742196 2.3702640089452083 0.7699052716828354
Ni 7.602016590458048 7.906454625679812 3.265889130558862 -1.2008548145244995 -0.07188932994113426 0.05798197583142273
Ni 1.7955775855977616 5.248115892427362 8.096076297210121 1.152558698522273 0.2550529193789285 -1.4628926498616934
Ni 7.007713588796522 6.034473455897601 10.790778618042832 -0.8044143612032985 -2.2881121207358013 1.7078668448483814
Ni 1.8807754239735306 3.145943718828434 5.706294668649802 -0.5056220919548905 -0.38284883067969544 0.5962287957998699
P 6.993691327867264 5.482489301634427 7.223766568677639 -1.6516771850306908 -0.03024542914810275 1.3032510548052394
Ni 0.15951208701030745 4.999262771701468 9.632909560048335 -1.220756181434117 -0.4200416376799089 0.5468016515169938
P 8.344869669287581 7.140532967119124 9.821264373517325 1.4164914368893349 0.9058407813716013 -0.7123593549475667
Ni 6.762529408513503 8.278501990894709 11.363960472483086 -1.1461949610877744 1.4067603256444998 -0.2332661625211402
P 3.7133318215158924 6.302147400880074 9.695695120253086 1.0926149709787891 -0.5256011061799787 -0.7054744549022753
P 2.3106762851795124 1.8572493936528054 13.424977030182852 1.0793655621680507 -0.8895633843678163 -0.6564638293315275
P 3.0206489359179374 6.146614200426391 3.9821577951259757 -2.551769493954289 -1.4005274573609106 1.157672879820387
Ni 1.4897858700599227 8.10968405189087 0.1530723029963248 0.49025820790431046 0.21267111197860794 -2.3897174896841293
Ni 6.284185463444726 3.390875834500873 8.107047642778738 1.277095479455794 1.4225265873398212 -1.1047459499143681
Ni 6.088891404603753 3.7911077574690517 12.922177216452102 -0.6085963162262874 -0.8718901354577693 0.0432068744047772
Ni 3.797428044186167 8.076215473041744 6.33592125797979 0.735877749784481 1.0295126432016657 -0.0449192291101936
Ni 2.57841558024621 6.1371197667612405 13.030749846382248 0.07993636861532685 1.5957706036710582 0.5587343983988378
Ni 3.536615858047239 2.1661685775070896 9.197335377959057 1.194271504880027 -0.3527720658989731 -0.496517558550461
Ni 5.763270606367018 8.55878850213246 4.649538061684939 -0.811669500103815 -0.4582909109690945 -0.25613715358204275
Ni 1.6836608985005974 1.3660128105392186 10.284617009265062 -0.835999077988115 1.2550698671143223 1.7742283029927508
Ni 8.692494774455248 2.7976837842711597 5.358114087766228 -0.49910923053703726 -0.2013006653581372 1.2090046973251436
Ni 8.697713445466869 1.0916824926921909 11.554802323443123 -0.8155739773645436 0.6697808581554078 0.6058881732665049
Ni 4.1339903136673035 4.862429031062234 12.001539233490533 0.008482326439398296 -0.20257876073961242 -2.4930185011673256
Ni 9.269797418492155 6.822511450105035 7.53538284386512 -0.7716847321807613 -0.9982631982690809 1.3314671122281392
Ni 7.771095929798783 8.840914151454808 8.511017590564544 0.9539263240249184 -0.31017480005373677 0.5876382259173815
Ni 5.325182313180372 1.8616931993800536 0.8803739289257535 0.24616512997099543 0.4205242337432822 0.4876613937114117
Ni 1.1942354462926537 5.472257345590175 5.573250299322942 1.688633450540066 0.09932017245857734 0.9160326343029385
Ni 3.5885318321002355 3.4056822964408218 0.034977232222075 2.8576240693661172 -0.230640551972835 2.026311083999762
Ni 2.6949441161443417 4.234862836530572 9.988509242636624 0.23614862627525784 -0.6192136867308174 0.5204928384191359
Ni 1.7500752555250572 4.009601096209628 12.695413357766633 -0.8354951417685029 -0.8232206952765243 -0.8961155836640373
Ni 0.2046419216029335 6.881419883170025 4.085059904890723 0.6876947623213511 0.13791988710864636 -0.49672530368589296
Ni 0.08231496608884849 4.214632317600012 3.8955157198888513 1.114506371735242 0.3017847762178287 -1.5308821305277893
Ni 8.319149743282185 3.4603896526628257 12.693896302239999 0.6465810230001768 1.259735648021108 0.8386609410909943
Ni 7.506960225090737 0.7688334715991946 4.95514212912379 -0.7220166755316727 0.2676176434178165 -0.5718084579739765
Ni 0.06085866629276804 5.388235808730442 11.98307970184245 -0.1916230330590571 1.0762969505450561 -1.5866735264657965
Ni 2.3585872326421957 7.585352318980867 8.537730837850148 0.03558715307599032 -1.0801325222410625 -0.014011483787743612
Ni 3.8115249909259665 7.978068982263258 1.124312723317984 0.10158248613019279 0.5220090179533461 -0.4142648830971317
P 7.405518222922085 8.972687928429822 0.7884571683191011 0.2234021252428669 -0.05102611333887986 -0.5016404815993232
Ni 4.724829760864945 6.672850421505215 3.0334407481185157 2.598073005006519 -0.6405602707273936 -0.8529488184685762
P 5.929885313959868 1.7592616102217216 3.3610986018377838 -0.5653238786908973 0.5515833891763533 0.49747092360266587
Ni 1.807639344000292 6.330798744949242 10.649603764665846 -0.21444080228452098 0.8752554523855764 0.01092744554578118
P 0.605499338234401 5.861622483124495 0.31655300726430696 0.6659864241099821 -0.0717170660293281 0.8525353850802415
P 0.9283632964895058 1.8197011024028227 2.66625449559727 -0.8339897608675702 1.7441672219413122 -0.9773246483442006
P 4.40119747233389 0.5483749624687323 8.102279887348265 -0.34687344102635104 -1.5801907469549303 -0.7597666405869367
Ni 3.2304693849093256 1.7023603583150468 2.424391966738107 1.4069444166308478 -0.2058224644878907 -1.2460527512173767
Ni 4.040138256994982 0.37096162024414286 12.963934053126126 -0.05936831465598808 0.22495738554512873 0.6899012830543667
Ni 1.925157466888105 0.4054263210913735 8.25411147231696 -0.343604283356776 -1.265476150049311 0.6096142159678405
Ni 8.183716361590612 5.2134336691569265 5.637360599092181 0.013325256353996407 0.6711186031302249 -1.4332899965039123
Ni 2.8620629529583503 0.9052256323835989 6.33511558479857 0.11486223395823443 0.8760614932266396 1.4713294677751372
Ni 8.836236952569616 7.9035418790686744 12.332380569884153 0.6795875598331844 -0.18396963027885735 0.30963229728670544
Ni 1.8297836868259907 9.204409991362647 1.9962508899430202 0.32005529239224234 0.3225009257192575 1.5352208671124592
Ni 1.473653734982854 7.97748083150524 6.283876450903609 -0.34910850100445684 0.6760407230221905 -1.0572504754365661
Ni 1.604774011115626 2.6095595632422177 8.227385155014511 -1.460442388548988 1.9343964599766363 -1.1479571951945198
Ni 2.509368548400145 8.360647046764575 11.52998889646318 0.3353530990915773 0.3663446623770852 0.18402285211429598
Ni 3.392154829006405 5.154245164302404 1.4923167854646642 -1.1096906955141532 -0.39454657873259796 0.7087104453410698
Ni 1.8777413129202625 1.0242225343201432 4.331800350750909 2.0774171586469574 0.7203184618936433 1.0178097529424406
Ni 3.7585634155253818 4.579761909613458 5.16992358308043 0.3786571611958511 -0.506514778972489 0.11238214784885807
Ni 2.137461219080014 6.892314675782837 2.1423027267483987 -2.3161001213082955 -0.8571060351700592 1.1273492891361812
Ni 7.498866150373248 3.120550543244159 2.889205643654571 -0.253404328031912 1.90153261936908 -0.5749071515039583
Ni 0.38421461732481804 8.851052750235882 10.251264193422275 -0.07744985474804726 -1.8951100036721875 -1.1422205498210587
Ni 7.500219830689322 3.5666395538851163 10.464541661869125 -0.09125796427573316 -0.3686180317922942 -0.04843675534514884
Ni 1.2365636294173235 3.8096578456624175 1.4139414958819054 -0.8703299900595011 -0.08211306455167149 -0.5639557946987772
Ni 4.368298372790145 0.48287177233288453 10.481143383979976 0.7104973620381635 -2.7906661152883294 -0.18762188231946397
Ni 4.204381690103124 1.178616776163061 4.630818996845221 1.2495581932674735 0.24612862030610513 -2.1286584733204372
Ni 3.5491817456709276 2.1582892244949106 11.572059413541481 -0.502921919414908 2.4658771648658435 1.1215370533297782
Ni 9.052891153225596 7.599253215467994 1.4605622459674759 -0.09439548146345034 3.37978272552345 -0.8105353864993718
Ni 0.5582129508623752 1.2229334689934113 0.5438910131183179 -1.1268445815856207 -0.5528661125435188 0.18856419162807525
Ni 8.697601416751057 5.687865944898567 2.208927137615008 -0.4657440248130301 -3.015389787556097 0.1075775273713631
Ni 6.150787270090424 8.822812178124694 6.910702322338274 -0.9784497630875795 0.2191793454107709 0.37862039442064466
P 6.559225296491904 4.791085410542003 1.408927277276643 0.3707559040709034 -0.3756885654858304 -0.23222049486544524
Ni 6.097218872479185 7.354731871753535 1.2275826606996498 2.464865178661561 0.9293121250206641 0.44707678742083007
P 7.6457451325303785 1.2969844501457892 7.053926367642006 -0.5198040398822275 0.6681366376837655 1.2152025986057393
Ni 4.234358707309413 6.059903974387146 7.086090745524543 -1.782382299558453 -1.5227391897056808 4.130286195640906
P 4.448987055354442 7.606880503869594 12.762119923024839 0.1229277845751883 -0.17952059336856824 -1.026496224972845
P 6.233865898592064 1.6781341485204906 11.595547167384304 0.13400872497969823 0.3738486840636142 -0.1456447665567298
P 0.4212867865325957 3.0918711919960375 11.30370302696518 0.2387500684538469 -0.562339856361909 -2.8784242939409204
Ni 7.8018944909210335 5.8718824463476995 13.50545659247763 -1.7932650079092276 -0.0641942752897217 0.5332676215863009
