# total energy = -381169.99074454483 ev
CRYSTAL
PRIMVEC
9.25317557749660 0.00000000000000 0.00000000000000

0.00000000000000 9.25317557749660 0.00000000000000

0.00000000000000 0.00000000000000 13.54295778298596

PRIMCOORD
 96 1
Ni 1.3529345832443367 3.597144306132055 11.092684859419553 0.6138110276580074 -0.8943898592221823 -0.9947947801045061
Ni 1.9522997880829533 1.415745140110433 5.663367343187312 0.005700392818886956 0.15833701731241764 -1.0656140169099133
Ni -0.02671206770198102 2.7797002556511043 8.248108738079058 -0.46944409937243664 0.1503570844307346 -0.07367624663822796
Ni 2.1823244835947815 3.3645842404697683 2.663670058564714 -0.6069685508148773 -0.09870233636892034 -0.9076017299267659
Ni 4.11683041474587 4.18458216745264 7.364498003894161 -0.9740148672446772 0.5409901870415393 0.20991231828654813
Ni 4.095131717655269 4.892894263355108 4.060842224346681 -0.3593656599560907 -0.5728741802343295 0.15684166371381375
Ni 6.334353978823654 1.7353035640012169 1.4231486060132856 -0.19330479163685418 -0.44923317164220056 0.07717577515105419
Ni 5.525293305555533 8.794255228014954 2.853975497248652 -2.15085069314676 0.09811946728225682 -0.9686772570818479
Ni 7.130561991000585 3.954104066329963 1.2856695475810482 0.709262718300114 1.2779760822885344 2.1865774571244083
Ni 8.401152563409418 3.7566875620962907 10.426276695135204 -0.7368789373554857 -1.458372907614469 1.44736164410563
Ni 7.668754451077598 8.923466573931007 2.5230125342686724 2.353019620042464 1.3677137532649994 1.6920383624565571
Ni 6.745454070227151 8.0227254355142 0.8314755661603476 -0.42172031093391243 -1.1519992264743775 -2.043495051978216
Ni 6.233124236319958 3.68719621235198 7.0181636653888475 0.8385107886663752 0.3466800940686223 1.0976749020002
Ni 0.9436943801628919 6.000665955590719 4.024696543986335 -1.121428809886688 0.24100441170566236 -0.3256412711204521
Ni 8.927158591047917 3.7463425116283626 3.278776765957928 0.16522860222592833 -0.18026672750597342 -0.041419700597367375
Ni 8.189384383616035 3.398247293781327 12.924166857292587 0.8255292888050427 -0.23256193736526398 -0.8497915037865171
Ni 0.1442116690945491 1.5619360634939714 10.528877758282325 -0.8957931673276122 -0.6527781529498242 0.19008782736145327
Ni 4.881133477000245 0.34315587264150843 0.22159135115004874 -0.3594253095494326 -1.6257936323957098 -0.3599505859252833
Ni 4.115303640750156 3.5422359613407446 11.481733707737074 -0.5949224182836206 0.2500503239580145 -1.5639321190042226
Ni 1.1031821170727383 2.052724504298001 12.718855543524713 -0.48967045372164053 -0.6991724239436474 0.9470833329611561
Ni 8.803323340231922 7.015406219020831 8.803179916008082 -0.016165554016268936 -0.654985445013788 -0.1584025804430304
Ni 3.0915877968603924 8.698475606017169 10.106906110711774 -0.3580266294296931 -0.9157462134107712 0.26017507109684224
Ni 6.647796053555852 0.14236566053609503 4.750449950825294 0.7617384196013268 1.8273174695082466 0.7257139218776018
Ni 3.6332687041882186 7.83319263700385 12.44267415682852 1.1382494809884527 0.560072657594287 -1.6390191299470485
P 1.2025057053757258 8.709718214531062 6.679901797391782 -0.38283726071546975 -0.2153669136432162 1.7277741252952696
Ni 0.8007078315352065 4.959147001593359 9.153875276235697 -0.5855402057377722 0.9608904140475774 0.5499268274095368
P 3.6768789214112463 2.3668513140343364 9.655912802776633 -0.09648835943673706 0.06122516535906875 -0.01883872997305788
Ni 4.432715327871208 2.1547500199146157 6.1389555922170445 -0.06162728589349385 0.2654234639799751 0.06976611295054436
P 4.215857901425446 6.600484566040184 10.44011759539453 -0.5796973738037501 0.4888140192586162 0.27656611086035593
P 0.3749516350904301 3.194187009372366 5.9602554865356785 -0.17247448515506425 -0.6855208945984839 -0.6122375125233004
P 5.513726835891035 3.6995399487779332 13.596317542435964 -0.4787774609582206 -1.0745624843524526 0.7466810110475721
Ni 5.6228402841180545 1.942565447213311 12.360441184101798 1.0153363517012837 0.4073648135431887 0.22943727569335323
Ni 3.197767988380495 6.192012376544462 6.239958631915318 -0.06502499872113318 -1.0823117892805683 -1.3624177949733827
Ni 1.1404354025681573 1.1490686155257397 3.1151102948876908 -0.29672587363768255 0.040167830468137274 0.007468540462903266
Ni 5.540163158956214 2.262549517187748 3.8354061786801528 0.42715716567876755 -1.0738469463426668 0.9630344569737738
Ni 3.9441476492427623 1.5227581174463796 1.9683336909906686 -0.539954032467541 -1.007935174141206 1.0159996963168954
Ni 4.747896999640945 0.5200562356430787 9.01476210696926 1.3089938708262874 1.4662636232164556 -2.042789541270759
Ni 3.2330966133237413 1.2311535374407576 11.976051309765136 0.20353212579181723 -1.4027031248559907 -1.8674382487885324
Ni 7.612791244252885 6.06789953045652 10.778122225106259 0.7543130736715332 0.720087833940076 -0.8860270890797838
Ni 6.690323649218282 1.5672473863639094 7.0587925093911545 -0.7660342187632033 -0.680026704253132 -1.1916623493919543
Ni 4.050771993197982 0.20327468978934782 4.937681484531194 1.0702299184153699 -0.5373641602531778 -0.026765955239934552
Ni 8.100729706931583 8.372439959114265 6.998526575851247 -1.6813420590849752 -1.5349496157289435 1.0718587122680443
Ni 4.147874819325385 7.133476741356039 3.836814512026502 0.12307459456569772 -0.7096057034618295 0.34113139633625117
Ni 7.607304111044047 0.7491861490616614 8.770609662750426 1.2145924758255662 -0.41690823425724977 1.8426332739297107
Ni 1.738579188210203 7.097389356002801 13.232932377010032 -1.1058756926434374 -0.03997756883420212 1.4119220723510972
Ni 5.585485213689587 5.281425859149232 9.213152045289895 0.2526160278026617 2.1456611785260207 0.3577888023872741
Ni 0.23790840123515106 5.466184018982077 12.12687899950778 -1.3393313454675642 -0.10789531572209805 0.31928216167164364
Ni 1.0931331682282215 9.330347217200895 8.875079867395328 -0.4429164853955533 -0.46631043883946144 -0.3901111686690636
Ni 8.73591395502722 1.8113924280421583 1.2734174175948376 0.986022947449147 1.3972433872930001 0.6496570908223392
Ni 4.140500038267301 7.3876892382302675 1.1804905496751046 -1.006589715856905 1.020197793558643 0.03136360191294598
Ni 3.3771685594647436 2.8012231424028045 -0.04372310596695327 0.2216200936417796 0.9862366061218498 2.21283022017335
Ni 4.6475925747104085 3.5639809243100027 2.3088709149001345 0.9937043752538048 2.391971318715313 -2.139815004157889
Ni 8.94922741516778 1.1267777151883167 6.466451390250394 0.4573470589985866 2.444510012043977 1.006645251685189
Ni 1.9871287415366932 4.277308241458997 4.7445584538369845 -0.19367374494049872 -2.005786738794165 1.990978984357371
Ni 3.255739134338965 9.35838433966764 7.306060497878818 -0.017470388870621526 -1.268223373777145 -0.28096783947247744
Ni 2.143174297074385 7.8703626439176855 5.018559792330811 -0.1499109980322515 0.3342755497566824 -0.34065831335457464
P 1.4098416139936727 3.531844644994158 0.6297924225968349 -0.8926651632215916 0.7636261235423429 0.389651969644458
Ni 0.48699186280135465 8.01479546391222 2.940649994326544 0.6894629099653675 0.03888433577002335 -0.9801610893517314
P 6.809985717779325 1.489141330013479 10.630355485895631 1.7112002800969885 -0.016664862250190652 -0.03151915365420378
Ni 5.872500218532336 3.1425265292628466 9.36488747157181 0.1472319085381916 -2.71703512006574 0.5187781697208742
P 5.310240248377434 5.214534651785502 5.793609492879867 -2.363883302229845 0.25332899470928627 0.9858591681777731
P 8.662240169852225 7.28905963810715 13.072015024449652 -0.6491330999980691 -0.09516706952215223 -0.5252432086199276
P 3.2623736613385215 2.20337545838417 4.058878700456436 0.5509956349936833 -0.5744631219880043 0.3625036913644402
Ni 4.670540450524776 5.5306879070070565 -0.3056481248134704 -0.6269249393321461 1.243472134974394 -0.28243311116409425
Ni 3.037484478357731 5.130645360602822 1.353839543830887 -0.1665987431005776 0.3798362691056168 -0.21579217410609286
Ni 6.576546600422536 4.953280488179525 4.166667093918691 0.4362300745143132 -1.368516708782269 -0.7937026312127492
Ni 2.4729944928515124 5.286061700190763 11.908905640068784 2.4859996466473318 1.1329244692311133 0.33043072208929547
Ni 1.2602640282923692 9.081631106711235 12.004559418876621 -0.49393334276305256 -0.5109869558112295 -0.8426425514465615
Ni 3.1434888595389334 4.628725349393677 9.485298122049537 0.03144433455221036 0.4386152869170381 0.26337223787790126
Ni 0.45139304512674555 6.252648437113633 6.7292795190483154 0.31330306127007335 0.6749382339866312 -1.4392734677808567
Ni 2.20088635411237 6.989691643662717 8.226155578655838 -1.265700093134659 0.2257580270695531 0.4785416907983307
Ni 8.0752001950881 0.9090060749802722 12.774503217056978 -0.9154456514512168 -0.15988045054013755 -1.4167511183086245
Ni 1.4317901468290264 6.974405397354115 10.522973306847993 -0.39147025380011935 0.46620399516858424 0.36496577975168754
Ni 6.065762046862521 7.1427206639119065 12.08583098664483 -0.3339690742598571 0.266190938273619 -0.1939740497897369
Ni 8.249280190126678 8.433011247453315 10.499367530239109 0.13751673813295673 0.7669847556019307 1.4519040120606737
Ni -0.26203883290801583 8.746777183336118 4.996674181090433 0.5139013012445472 -1.0658724127776225 -2.610831076003136
Ni 5.315162937866644 9.256229279590784 11.041993186809131 0.45205521447202796 -1.4270098199221553 1.8019586790284838
Ni 7.292002147989799 5.645908451216932 6.488160265834299 1.5446154209534817 0.1992026451785279 2.261503002788705
Ni 7.870834555879996 5.995391645423707 2.6264806199818436 2.0793200320966254 1.1483929971803577 -0.19461502580784548
Ni 7.446798524803724 2.8276039464135945 5.181630358883934 1.3544594593582544 -0.0042934851690313155 -0.348868874189825
Ni 2.4364074360087686 0.17837069262532132 0.7839817910827676 -0.003836085916638554 -0.11167946535487865 -1.5538479952953432
Ni 6.157840398567665 7.2061881962549466 5.1948346406529256 -2.1943928394037693 1.0790374894046706 0.10860494019461296
Ni 0.13892440448151325 8.91399132198185 0.7303355794612472 0.10603512258490772 -0.7236174443598893 0.006722663435814228
Ni 1.7345262972397626 4.284738541571471 7.210717625775564 -0.01594932424040479 1.5008261916826733 -0.37495991484992197
Ni 0.5821598498832808 5.561713805235109 1.0912945622103527 -0.5759574471453435 -0.48312699617616794 0.6858618228776704
Ni 3.0218281050198645 8.822597705280844 2.954992416710523 -1.3533034913769402 0.7480748060713052 -0.7325911086134093
Ni 6.407768675078165 7.798918874094006 8.842345832927222 0.807774278814467 0.45603142551095655 0.4866344951087942
Ni 4.473623617780609 6.997834438306524 7.957422073106011 0.12687339948649765 0.7298729383512979 0.04546070343596042
P 8.098471932053073 6.662406818036048 4.776993610728959 2.6092315927264997 -0.0946551628827402 -0.7286598918798031
Ni 5.713724976153824 6.168833171336806 2.2125536833923434 -0.74321773508932 -0.9239647446658216 -0.22198724717321122
P 2.2219650884289535 6.845092266505013 2.3950994089077624 0.3434237919148537 -0.1205204606852763 -0.3851281136321754
Ni 6.26303975346022 4.462797402174638 11.748068790137271 0.6046337320341135 -0.1366227655637776 -0.5851902785975212
P 5.68136662062042 8.989774831223649 6.719053834547325 -1.1741994167205005 -1.0367469561665756 0.8545953529330637
P 7.742418983076861 4.897483838517981 8.893172601903323 -0.19255300107249418 1.0261398700746909 -2.359282313122724
P 7.732934477951971 1.7574649198783971 3.2319186840531087 0.0716414755963863 0.36615131541935647 0.08498395834156332
Ni 2.441570708067001 2.257488030062563 7.799606385050865 0.5064664422330568 -0.38644991776739257 1.6734801398383952
