# total energy = -340859.11087571096 ev
CRYSTAL
PRIMVEC
9.41183590513703 0.00000000000000 0.00000000000000

0.00000000000000 9.41183590513703 0.00000000000000

0.00000000000000 0.00000000000000 13.77517321012294

PRIMCOORD
 96 1
Ni 3.9084059764265633 3.4574002186950317 10.693570611624034 -0.3931440419581165 0.11962520256451656 -0.6837247219300095
Ni 7.656462507028462 9.066722565308789 8.40069306664547 -0.29607769853072236 -1.4275978312151414 0.41783923071195134
Ni 3.115769404317872 7.754373834428472 1.6160206704581885 -0.6356206673339312 1.2697742632040323 -2.234050305894391
Ni 5.227738289439995 8.834927874238186 9.358769946540823 -0.5341507955222027 1.971436029228437 -1.292262931224852
Ni 8.366660809724802 4.899067572902864 6.751115436972438 1.90524709210619 -3.998893568127816 0.44703564977024945
Ni 4.10818160224533 4.570801565303365 4.695818979689056 0.831302186733078 0.11920071343258827 0.6158753663862038
Ni 6.791994804407717 1.4186742394487983 10.005913655570302 -0.36181900659258975 0.2858470219416496 0.00436547605754732
Ni 7.624556383805735 3.1939158766241573 13.435904726168216 -1.1881021428445215 -1.1001555023302085 -1.8377520345780092
Ni 1.0680927692649083 9.26662054499242 2.3426887445490574 0.614709885323193 0.5813444224888697 -0.1671679853404863
Ni 4.059682412579632 2.20609665454705 12.928647249656366 0.07826900821523294 -1.2462221869157053 -0.18405550512444432
Ni 0.39852347917266007 4.682717704312644 4.500156326096936 0.6912912214233579 1.1255070937211198 0.9719276456983454
Ni 7.181164801203167 6.165335955907523 8.36560762530338 -0.1966819356392032 0.19851050420750974 0.5720637685178922
Ni 0.6246211860583893 0.7699964011906175 7.3750486178368515 0.12005637656466421 -1.3132608736327576 1.4403345620555197
Ni 6.982725656062166 7.602306804071655 13.009466683318184 -0.17330777968963704 -0.2335674958116429 -1.1480872930144808
Ni 1.7283895187674716 6.327219530960891 11.488577083976821 1.154241999761967 -1.3807772713171769 -0.4617906965922369
Ni 3.6420510244492195 7.5965844079302345 10.463745817777776 -1.1282728293917148 1.1689649077944384 0.4907873409349031
Ni 3.0660560878392733 2.6553235753201463 1.615331724080636 0.2890932967930892 0.17732615682041072 -0.1444170647972158
Ni 1.5643318096537937 2.009182226798994 9.833503883404159 0.6175787222305559 0.07375595083622781 -0.2897129326549591
Ni 8.878015258342508 6.692822291016013 5.599525566772301 -0.5633240746520491 1.4987870497654574 -1.0623482016744477
Ni 9.434894756526095 3.2261890614414828 2.879396796334133 0.14845189698822175 -1.6594280326207034 -0.7481529676074082
Ni 7.7101193826900465 7.956549478365764 1.268685342427549 0.10921069209941191 1.892149378381967 1.2523370415641917
Ni 4.670576436183642 0.42602298089306306 1.0190938111204118 0.17859731022335046 -0.11483395182346029 -2.5704776118867536
Ni 0.5900213954414597 7.356592007913616 0.9417162857956295 1.6555940035865937 0.02072309147996431 1.4951839057952314
Ni 8.005726320206103 0.7277702000582376 12.454492140692201 1.4688635227331477 -1.2136637933637098 -1.2725297144619827
P 5.504653321138844 7.6938933778416745 1.1348537438536324 -0.311320997843038 0.8737863240392177 0.3967438434942328
P 1.9677042666094477 5.955772020899483 13.616001144598663 0.007440001217812993 0.41422503099813174 -0.32771589426129366
P -0.34153857838672275 3.8297606768250554 0.8598144910215358 2.16693782851661 0.1885747331510365 0.9988969751983378
P 8.810786515516567 2.3491753817541023 6.709886890430504 -0.7148306993061947 1.3523321286026064 -0.8705883859272103
P 2.932812729000289 4.472551411816033 2.979928378809426 -0.7172310812175712 -1.7858219213676214 -0.13436713676038148
P 4.700515485732756 2.103940589219768 6.594739668205189 0.5309736833458018 -0.1744282664473254 -0.9953449961810212
P 4.921768920753371 3.74213648590954 0.47828784604590363 0.06998594227083431 0.05608321614681308 -0.3432409864800863
P 6.260094318328297 1.9557512351956237 12.103225488865062 -0.11547724183441403 1.5784863626693137 0.33191142039988003
Ni 3.9247731588113193 2.2191226352373907 3.837432264152148 1.8646228908269242 0.9201883083425251 -0.901649626108389
Ni 4.099663890883511 6.597546277628498 5.894024731219533 0.7057788735165716 0.7306591816980191 0.018902750441773895
Ni 9.138271340748073 5.009929586307144 12.632894428686045 0.28295993020184174 -0.2611832006463824 0.45606176452825975
Ni 6.458919348735413 0.10550291412315319 2.679987290926388 -0.22722021343737642 -2.3945624764812563 0.9142336334209867
Ni 4.358517609760998 7.110952506441648 3.4304861331588334 1.5900342154079132 -0.7181271106692794 0.2065518864547475
Ni 4.0041996407808185 0.0388784111529333 2.9807961500663986 -1.0642472184693734 -0.08199685068878136 2.8946723803686667
Ni 3.6971667346534356 5.5388841677940235 1.2681601619922016 -1.6937193497034055 -0.6384830764833906 -0.43820802417629046
Ni 7.038509606605265 4.175739759322835 11.147420626121912 0.3323611063427889 -0.8553875098170558 -1.240183179810477
Ni 5.997447629639966 8.067505610127633 4.973884137717645 -0.3508118568488087 0.8743463103077458 0.09007705659375455
Ni 8.253059952114677 5.798829659619546 1.0456295408591016 0.3316280848315063 -1.161562701793096 0.32282822715168913
Ni 2.8360967047416605 0.12874073661191865 8.620159194055466 -0.39265733212968507 -1.0460679764571856 0.6422497426146746
Ni 7.231169884590291 6.682544566367274 3.3300100805145174 0.14186215958584603 -0.24038991805011506 -0.396754127906878
Ni 1.1911713454842625 2.3374294107269744 0.11050248127828975 -0.2736671920460061 0.01303086504202917 0.03406017490850263
Ni 0.977221495012567 -0.0075059390177361065 11.064136232674834 0.1485388002750732 1.040910343515646 0.8379718854437698
Ni 4.202384666356328 1.9797420045451024 8.911214567798512 1.785291502785448 -0.2812637734463414 0.12409763651357338
Ni 6.830357446961063 2.945801062347594 7.333254419965805 -2.1350363518223228 -0.4582032363512948 -1.001898738139139
Ni 6.466891173623216 7.569440673601519 10.591482311514216 1.2019495902505752 -1.4628733665879838 0.6987803307115514
Ni 8.777854502196115 6.05535865506458 10.409897881850284 -0.16628635406648137 0.07882128117427716 0.05103176976583469
Ni 7.8820642101696965 0.39832300707099516 6.14751558608159 -0.4684801927972706 0.10422455173873019 -0.47829820732895684
Ni 5.882820881932118 1.246522351582452 4.749514443877253 -0.24070102153263065 0.10770094032310483 0.7922790113923451
Ni 8.247346967809014 3.256024580797249 9.017158897018758 1.2054671164855304 0.5939903933876545 1.0130125886641135
Ni 1.725650674561627 6.827750368455842 6.12193515767243 -0.10532164145765088 0.021941537268097697 -1.7379654640059747
Ni 2.126284287311436 6.3917753124313 3.3092099234873116 -0.4967929236990347 0.44281724081352775 0.6081288896715655
Ni 1.2728754917074188 7.649017744943159 9.494345558280868 -0.20829817972189288 -0.3805122121267189 0.022242099227652013
P 8.03373594342464 8.362623132184227 4.40324735920525 0.7556361633583308 1.993262123964593 -0.19624253410893944
P 5.979574553533784 7.2852502928610265 6.94560725819615 -0.6973713661791667 1.2782635316219664 1.8511829632719345
P 2.6180527057148364 5.067661786852339 6.852886558217182 0.06397907395512208 -0.9834508158465965 0.11850265892429913
P 1.9187909561703573 1.5992120729763393 3.6991300435927457 -2.098773512835547 -1.079814476780011 -1.152406489215125
P 2.6987121381687524 8.196965410991533 4.650566873360185 1.1273397760544843 -3.042908818911972 -1.5247346228691547
P 8.629552206142865 8.289041400221016 10.525554284390156 -1.060543030144909 -1.5541943228911685 0.27692735085451664
P 7.161578770988861 1.990847970740624 3.0417368454218088 1.7114645895019684 0.21038257305474736 -0.013246580597261057
P 9.452118415964913 6.415210783471003 3.2427030684640785 -1.2522827912874883 -0.2834713226206215 -0.907801504642398
Ni 7.542278115601284 3.5266054470303465 4.634960167304748 0.7011169492645279 -1.2982613149001319 0.31340873361000215
Ni 4.370517700353616 5.728975014616865 9.02834486381823 1.2373115146896367 -0.6700860481006524 1.2159561889423125
Ni 9.543224986111225 7.500395446474105 12.543754932213345 -1.2669115969442568 1.5825206806396874 -0.593459717695165
Ni 1.0770057777286024 3.2158454539424337 7.834546674973654 -2.2301386295448107 2.4169426439486696 -0.4219159718844863
Ni 4.531356561637745 7.120119634470833 13.00813020264042 -0.8524690506186803 0.5684721945118919 0.22938508229917914
Ni 2.321890469889003 3.1039199030973954 5.166874771137808 -1.6065607523080268 1.5154778801575772 0.7790249745959164
Ni 6.563823670104299 5.516116937093205 5.937168586338408 -2.5624331443157224 0.6665135002580456 -0.3039537588446894
Ni 6.393478854703664 5.11752569270308 13.089361874708477 -0.6929583247131356 1.0430870394519907 -0.8761270563572525
Ni 1.7463755369027614 3.6268038505197744 11.933928210784396 -0.2357465057408327 0.6051052723538933 -0.776474697370237
Ni 0.4320173790879171 5.443843450300483 8.268395597300255 0.7030488761799183 1.7850896711872868 0.6706470628104451
Ni 3.638474526860831 4.521417663076329 12.695034191917141 0.6945814621388554 2.601410039799552 0.8672932601157064
Ni 2.9297915297216766 9.253481622272973 12.712197615607103 -0.3222026777525483 0.03681794015929788 0.1376434935188081
Ni 2.5980243192198613 2.054415509456348 7.162552895989908 2.717456780984191 -1.830393537330409 -0.027295088270527186
Ni 5.927329453236036 5.558536080858642 1.4359515463514416 0.8737552136909662 0.7684461706388056 1.7693208383888044
Ni 3.1065646289456508 7.200186121271937 7.982368026219624 -0.30640170616454976 0.9825113347514629 0.4301576430679882
Ni 5.723045558088748 3.3828490676486522 2.4256700768846984 -0.5109460752709651 -0.25639349256722294 0.9308190485834938
Ni 9.23597560776139 2.691879145407779 11.281769875662569 -1.9670461276908575 -0.5654904861757487 0.013643044704731344
Ni 5.541284185912548 0.00914830435766708 12.170930470580407 -1.075163094050929 -0.7997776337622354 -0.24058300789752757
Ni 5.544625387606963 0.19981233197822668 7.100481839159853 -0.12833301475115963 -0.6580401726797118 0.07980858478821094
Ni 4.53052832009096 4.179391551597294 7.31376250810909 0.33513198421970675 -0.7488793042504716 -0.1982942744316456
Ni 0.9335562241926487 -0.13624008734462348 5.208213436158123 -0.41514805703303337 -2.060879566003251 0.8913662419045101
Ni 8.970072423900472 0.9187194063022923 3.9620562638031163 -1.7056109589346689 1.7862512955955558 -1.6440875456088908
Ni 6.928202891510761 1.0504455772169394 0.6261750801421866 -0.16860806022112254 0.5375173980015905 0.5558928151849846
Ni 3.064296074552356 0.58791596778219 5.419043263075737 2.215785189036616 1.784806078508597 0.9424286077979641
P 5.7288244252447225 3.7139009786327897 9.40289169139505 0.42717156385647076 -0.1602144368407886 -1.1092430664537736
P 0.4081837873956122 7.582410183277306 7.546756267055377 -1.170633553746113 1.3472796537803635 0.18825694480030158
P 8.93777100357587 0.9860309732829131 9.429973307607757 0.8273036070966462 1.8132406797002065 0.7861376743812977
P 1.5669200644874959 4.3311950505528625 9.658366561235086 0.12203226934411242 -0.4223741424678274 2.3002215024048254
P 3.288504826001271 1.0297489503830815 10.845772231232205 0.06287709914019494 -0.297720633450784 -0.018400099773742504
P 0.48939757697572894 0.33141520784443185 13.53903868123085 0.6313395234600739 -1.5894734578084369 0.2532636886889897
P 4.699028415682847 5.974294513673031 11.189503767350756 0.9336518900465987 -1.5515730832182375 0.45290676383904577
P 6.116752059719995 4.965006894229834 4.003933285828841 -0.8904388449942342 0.26419319111729983 -2.2496700147095194
