# total energy = -381176.27683299803 ev
CRYSTAL
PRIMVEC
9.21179564442902 0.00000000000000 0.00000000000000
0.00000000000000 9.21179564442902 0.00000000000000
0.00000000000000 0.00000000000000 13.48239406820664
PRIMCOORD
 96 1
Ni 8.48928689232419 5.960860854559745 9.790227340508565 1.0308377897709924 0.8326371034944177 -1.7607536655450837
Ni 1.6721896310338078 3.8792437535576747 4.840961668868737 -0.5531054822478345 0.17708498734388214 -0.20162539568740762
Ni 2.7223711836203552 2.477033429769284 2.6512045350583517 0.8659997381152634 -0.4378694098899491 -0.04873603175312252
Ni 1.652540870887961 7.4014935780519915 2.306392284577679 0.9208573093850915 0.06061658524079238 0.1389321304232446
Ni 2.900858936356373 3.41776963810229 11.808231465391009 -0.1344175303823427 1.9768353458671373 -0.3965103873271881
Ni 5.997938332097031 5.771733477834766 3.642659969123668 1.1161547059719423 0.49558733342670774 -0.11843221069767991
Ni 5.3141006811702 3.305671296698254 10.900636534309157 -0.83930011733689 -0.9686985972380867 0.5801558014974073
Ni 4.042053030077925 2.472022212929462 0.10878117378635208 -0.45531408772895776 0.8519036650335136 0.3804132246550093
Ni 7.341358975974126 0.637646943941683 4.44545506450404 0.2725845005047886 0.9733751767781494 -1.3456151215937473
Ni 4.100096554540644 4.53459853229934 3.195974470423155 -0.9039132253315852 -0.46673081420633167 -0.34704750471037005
Ni 7.816871868017542 0.26737421143236256 8.980123606450407 1.0713177521629096 0.35610190160315447 -0.17773907598811325
Ni 2.898076974066619 8.80605290973405 11.187879667803674 -0.07240715011781723 0.8080486155217761 0.0967531830623495
Ni 6.615091794230714 2.8411941358572403 12.941238115128677 0.3217355083081427 -0.23457074026517669 0.9869498301387906
Ni 3.9344131977740253 0.6198912078042618 1.6903285778707449 -0.7096699810408617 -0.7519800546629823 0.8699389252686697
Ni 4.311516476766302 5.459840500329808 10.736138735644166 0.4668485707311186 -0.5809374168584381 0.20074479285466715
Ni 8.929914714197741 3.502324710478627 9.243394884095165 -0.61827112031189 0.28496230534385114 1.4563746462375176
Ni 9.239799520248505 6.165583801339536 3.4887584990080276 -0.4349308960869155 0.45646722749679447 0.3640692360793472
Ni 4.811173485238346 1.2430489183500695 4.182373549849908 -0.9500107910205962 1.689349245660168 -1.3949468779493395
Ni 3.9220141208137305 3.349694468164265 5.395303581105341 -0.7122606245861733 -0.6630803062067806 1.02425448012652
Ni 7.542397204489343 4.429694603306887 11.170177360081091 -1.8798373937838335 0.9565622189858687 0.26958607999809703
Ni 8.377575446337934 4.916713028131438 13.393060111090005 0.08096069611478314 -1.4827932454403623 1.2879614756360207
Ni 7.258756804278014 1.9601779987973358 10.7039554851418 -0.26932691279943943 -0.21232324172088593 -0.5952427777375168
Ni 5.397522702680181 2.332795133302492 2.155188028231708 1.0925396376561636 1.181336284875598 -0.015779374321443794
Ni 6.027102877161143 8.815955590070095 2.76576518944269 0.48659952810580065 -0.10004393799847931 -1.5194461207767058
P 7.440680556795747 7.4891530255662335 3.9683135269876826 0.46154284224748904 0.09191282425091268 -0.6532376090847459
Ni 0.13652065406163952 8.588433449028244 4.7215206051429695 0.3350052288338553 -0.5277184096332976 -0.523726257754769
P 7.910390017572458 2.775928563595954 4.621320219015247 -0.0850898877918083 0.4885517667361651 -0.29916456498616223
Ni 5.407784643047022 8.506991963585472 4.957975424437716 -0.19626901647150066 -1.2624363347817227 0.8043693668979759
P 2.2873533453046195 5.844773805634306 3.866346318452096 0.21815527502163073 0.2915309597003044 -0.07798310154369796
P 5.13424958267629 7.9184871859588615 1.033506360080213 -0.11889423793576298 -0.6258077950085674 -0.7992628989093461
P 1.8167319167574274 0.35276755721389036 2.5954013193004943 -0.018593189621155075 0.3423968933122361 0.5849910181025215
Ni 0.4350316560092277 6.886535776986299 0.3281517968473965 -0.15890111734600376 -0.06484862104426897 -0.5875862896335236
Ni 3.7990366487335363 0.6296934795675977 6.212376959760942 -0.5895917500993265 0.532585765027928 1.3811526523787245
Ni 6.257370133310102 4.594613381033606 9.11536566327424 1.0782792710824076 -0.5774736266795538 -0.07064543023170414
Ni 5.58210866414407 0.08073309835640646 8.004470086662721 -0.5584433495209802 0.8169181500972641 0.30224886033844073
Ni 2.625555211218645 4.866849578216076 7.184039929668092 0.838928078709452 -0.6311711162030098 -0.2662459598812705
Ni 3.2595846830040816 2.414991985989501 9.540411732786469 1.765378823021921 -1.0268170986473735 0.4769470926177012
Ni 4.463962483167435 7.751993191174035 9.558046794400726 0.3665444370927171 0.46900906871754705 0.5377184582688029
Ni 1.3615033987604972 4.384206756330707 2.3470282787789793 0.8534838650364398 1.7511197419997455 0.3517024869838782
Ni 2.492426340319547 6.611305746213863 10.193809004950078 -1.5951622806630978 0.4809616130937329 0.42967273301176967
Ni 9.238049279072833 1.6514538789999114 5.891482215535626 0.3180562596843426 0.059414594512891224 0.07514460365363833
Ni 6.7400682259694396 6.839730643230534 5.873915321209265 -0.15505628967861682 -1.383245273241695 -0.24063108752664367
Ni 1.8037985556487686 1.5504281159809237 12.399218821948377 0.17266474678899937 -0.9200687520455251 0.4083006950938968
Ni 8.41002860245318 4.767656962533715 5.293039752749455 -0.6640544971945919 -0.8675899654205186 -1.4334684310633055
Ni 6.62166901633298 6.322304080927577 12.969954966923643 -0.06628458215984713 0.23752390935622966 -0.12308230787518157
Ni 8.690490933161312 8.593122253019915 2.3564933988211068 0.5517230000780111 -1.1126762605050384 0.7511431605839838
Ni 7.97575691958602 5.417678111587406 7.346515739185398 0.5051585220549106 -1.1835574608966328 1.9672137636169733
Ni 0.6003990481846596 5.336982781593212 11.605024780177091 0.26364888857805563 0.39551434196250596 -0.2601467889620681
Ni 6.056884612534572 1.5908034163650056 6.2698926483322595 0.6176625401936137 0.16144728080662515 -1.917635952688846
Ni 4.965885593372192 6.18560103331184 7.923049788349972 -0.3806569652346992 -0.877488198370837 -0.6975534002829857
Ni 0.7666977529014627 8.253879454196149 9.53709548634835 -0.02192276821502031 -0.42808250570651435 -1.6160478658628554
Ni 1.8481165045759456 4.4115013068755475 9.597401427825519 0.37482338927205766 0.330795818738198 -0.2122047138651507
Ni 0.854233762353841 2.5997345479796348 1.0322904030529032 -0.9842820534986404 -1.4445270028703123 -1.4289183497987779
Ni 9.083742489948088 3.016770961164244 11.817709481947062 1.2435968334777165 -1.485721474830751 0.9216453525040256
Ni 2.603962762188235 6.000655811817156 12.656071320376247 0.384875374191421 0.5007817331434538 -2.022786358675955
Ni 7.50777927639366 2.4047392574183206 7.815905550652658 0.2728400681590204 0.12948152653330605 0.281016947542858
P 4.414928094861602 7.855542986204258 6.750540195277361 -0.7905075213142193 -0.29039658898554505 0.4164084118026957
Ni 5.912517350928519 3.5010719062686717 4.456470529755988 1.36842697728194 0.03422832505525073 -1.0294666204550786
P 4.062429522081025 4.335485569077362 8.745813293185643 -0.44758432318486785 0.9865381965226686 1.1572918423318843
Ni 7.742145781611959 1.3252273474457554 1.8488138375075165 -0.794483732353148 1.5263497898750746 -1.0781031505158594
P 2.3455534702935834 2.3472392288996264 6.699482896644277 -0.2567161660139643 -0.04577952022795986 -0.16458119844991656
P 9.08509662391032 7.167412638499197 7.5013070687619345 0.5276639022462783 1.491732199801205 0.9360311889120524
P 0.9991666282135054 7.648406548961169 11.661677323494931 1.2838423112613244 -1.0569296017620378 0.5290993491412243
Ni 2.5141016955109095 8.240596044852355 4.77063697843019 0.3695739679476603 -1.54466401480323 0.2608327592854992
Ni 8.081084591178898 7.568291562093644 11.77898769888421 0.5358652071101482 -1.0305842789992894 -0.7390450917688691
Ni 2.172712548298027 1.228816694053148 4.641826597337173 -0.11678387646097951 1.3405413066152656 0.21270813586413045
Ni 1.2178546572160371 8.795219838036198 6.870237346922518 -0.47035992631848667 0.9165530255827827 -0.33321008460664553
Ni 1.112545409214481 9.14711043230312 0.5766040588115997 -0.863267683896081 1.143824918193701 -0.1993635962364244
Ni 7.8565562837270155 9.06465564933759 6.538866948671014 -0.1662624428070814 -0.47396178473713213 1.3995967180165252
Ni 3.5954191174331167 5.8268476512771485 1.1180033981438828 -0.45740156638560586 0.7666191447323959 2.6346266357608368
Ni 4.692838758171517 2.6090016144150407 7.76123446458159 -0.13172250004868283 -1.057443822394295 -0.4648639362009219
Ni 6.958756254971972 7.457142035642737 8.05446342289691 0.24787774178672795 -0.29399921873513885 2.2682110109365
Ni 1.034447805596812 6.327996970646345 5.8725934285318475 0.4510977356547651 -0.33462753377946236 -0.4044705227145292
Ni 8.24499007138286 4.121845604097299 2.52215188373944 -1.5512992607315605 -0.6767624316795635 0.07182633791368274
Ni 3.994004303907866 7.239430456980317 3.254178280130384 0.85309665690035 -0.05079317139246736 -1.5040593539079903
Ni 6.126710023648268 4.1673887218474475 6.754841182671687 -0.375923821425088 0.1445438201830672 -1.034447618609438
Ni -0.08855022815470252 0.3504811895307215 11.225050184477142 0.038958126430752256 1.9005442873138816 0.12445733384583728
Ni 0.9405888196024229 1.5423217357988586 8.35033432420793 -0.2289765340068508 -0.17186410526457496 -0.31421914532643946
Ni 2.9948192521030377 0.10490208663332064 8.635325173663226 0.1252875430566165 0.483936893671973 -0.089824060042684
Ni 7.515222407288102 6.454106453251428 1.6642536690714793 -0.19039353152733018 -0.5045800238436213 0.9135026687922333
Ni 3.9980482822032375 6.094376620876623 5.381065829731022 0.0059356487581446165 -0.3569385385718369 0.5341682790236993
Ni 0.318211348149139 2.0800142485569793 3.3688725055518125 -0.062365963831731305 -0.18881050331092644 -0.20042083385634515
Ni 2.3761550554808792 7.128741520312482 7.879124261917972 0.9646308549266162 -0.7878765114492754 0.060569791163256975
Ni 0.5826608144589951 3.678334490181718 7.066581244368665 -0.32682192169211455 0.5514046975066439 0.03737484110403241
Ni 6.387118275201452 6.642708757623704 10.433647316791271 -0.5149850212270292 -1.1813897638213524 -0.21650154146829165
Ni 4.858153643111678 7.665494429913135 12.064451113456936 -0.4540285361483149 -1.3045435483644179 0.23910385224883984
Ni 5.165284122259674 0.5425609467651904 13.095274077460973 0.5701585810753794 0.4011676835935414 -0.5371762126120878
Ni 7.3366609601867925 8.450007795623819 0.3160852657104791 -0.47228516836565754 1.2058175578464136 0.2524869584239652
P 4.950114999199812 1.0027868639084503 10.798305459844943 -2.5015787320325114 1.9537995470935965 0.22533790881299898
Ni 3.1295233400602416 8.093059925538768 0.2007701652614693 -0.19850767599403232 -0.21631436515815003 -0.1966773076535129
P 8.521961131535308 1.1371685390175041 13.191915946924683 -0.2603897582108096 0.8383184701499111 0.6909158403618101
Ni 5.004298781280388 4.888672322138022 13.227981048118776 -0.8569898213071693 -1.7525567315565882 -2.459100508263642
P 1.4282797055102594 2.2092557416869503 10.338488546429053 -2.4067844724687455 0.20311329308684373 1.2598315501690238
P 1.8994630535927994 4.282379567089174 0.19859710266493613 0.11313548107511485 0.03138931294455884 -0.28869811823719954
P 6.074322541721672 4.389650927566617 1.4208282839997224 1.0621491982897642 -0.19108875782214188 1.652788672927315
Ni 6.394939089718013 8.88653636842803 10.754083313592648 2.1558843989159255 -0.2710742345078493 -0.40013924232902703
