# total energy = -340873.2845274574 ev
CRYSTAL
PRIMVEC
9.14856696423545 0.00000000000000 0.00000000000000
0.00000000000000 9.14856696423545 0.00000000000000
0.00000000000000 0.00000000000000 13.38985250348020
PRIMCOORD
 96 1
Ni 6.377200693371747 1.52509355171446 13.811499082670665 -0.25434458045799424 0.7959238072337841 -0.407249371011247
Ni 0.8433203880744194 3.8842710983381834 8.398678104034627 0.546258120308698 0.7261085862128591 1.151402987651275
Ni 1.3173112997661518 2.4685212184838057 10.503857583186651 0.036028354378466985 -0.06941927113408689 0.2748915513714104
Ni 4.719096127168186 4.956849084355252 5.325331403440897 -0.3301671840152636 0.06595316696235738 0.2912206275487372
Ni 5.082980376518484 4.258996399491878 12.667041721198654 0.44932393158379386 -0.9841588976572149 -1.604847883381978
Ni 8.07157017885688 9.13818329924035 5.427603233069733 0.5325564544518893 0.3585045975073762 0.2405182160978632
Ni 0.6501987146197342 4.322139808392337 6.226656450375296 -0.618202986078116 0.18374028787687066 -1.1299278484966346
Ni 0.802015523275132 6.627953764155966 0.9436710186494894 -0.020401446474487446 0.5744600366642106 0.23581592552618738
Ni 5.428137509378019 3.5333595168842717 3.5547516109196153 -0.20848329914950547 -2.033683465204433 0.5330452211628497
Ni 8.20939333954732 4.770081090628381 9.469772192496832 0.7062660975656353 1.2114711565877652 1.5685521342747373
Ni 7.5417309255288485 4.944818718851905 0.27259618916885164 -0.008394394711282317 0.8648697382758782 0.8378528433674021
Ni 8.4510618833773 7.273970668835334 2.9733107807207992 0.4793883550693422 0.30875992198408114 -0.955359199816703
Ni 1.5788688280860765 6.589246177506032 7.160169815170514 -0.17656639583625075 -1.9447847451894955 -0.016719883857842174
Ni 8.052980290869959 5.946211705643463 7.669158569625027 0.0024204365160345413 0.35458109408325383 -2.247363478063529
Ni 9.112695391793714 6.4152587317701695 11.984185367234964 -0.4968019225600992 -0.8092804310463481 0.0059317921034026866
Ni 0.8552638421920012 8.549335789260917 11.838169664865251 1.5240208846315817 0.5850678940870441 1.015363348284477
Ni 3.7809929263478503 1.474831325041159 3.14953413621257 -0.7828104097802776 -0.043539318043531464 0.631127664559584
Ni 4.017895066811105 5.002088747787991 10.255462098098409 0.39008262942397337 1.707124310255402 1.2887703446905612
Ni 6.877426035571006 0.16870780776477437 10.435140867316884 -0.8546357192526958 2.447960175376107 -0.20423866494053858
Ni 6.63777017646402 5.954234998834668 11.725681630553836 0.9594773357501346 0.1327753667932294 -0.6042655500614174
Ni 6.264837994427174 8.008234650051044 2.6163904205120594 -0.6779960469763484 -1.384986424302518 0.021613978725349873
Ni 7.775650633175304 8.770557286018668 12.68186422932681 -1.2456508877932677 -2.938637730206023 0.5913884369884331
Ni 1.2576626434301634 2.092725535000156 2.066362109699018 0.4149817066584982 -1.08531818020706 0.5914717407308587
Ni 2.497677701266443 7.462184136135993 10.409539517640406 0.5028465860922825 0.27456142172550135 0.2453953416845064
P 8.640098721701001 5.444815346878097 3.881757987004519 -0.29277048853436033 -1.3765598908017196 1.4042259892584203
P 8.45170228306189 0.9851268348030014 3.4380588952505304 0.39227269509675666 0.06756627708574815 1.8584275606494898
P 1.123581246611107 8.368212461325351 2.472798173520167 0.9682861922910163 0.23516492220574986 -1.270738941110147
P 3.0481378244382356 3.3320178560495424 2.4133196805289403 0.12512376378524256 0.7865788756837744 -0.16324910990205432
P 5.022627280529448 7.085162544684701 4.523668099992289 0.5791219609162542 -1.9196504120157132 -0.7272051617111476
P 6.670092063401911 3.5158766054949964 1.6849922043893688 0.5374667472693131 -1.3742482119494075 0.26706639890003686
P 6.17620667808008 4.822319407756984 7.461521779890789 -0.6211453565358915 2.1283016042016505 0.5974837512528935
P 5.493568060009153 8.702299828208421 7.899919277113074 -1.1497063166751427 -0.900655637626236 -0.37106932154626415
Ni 8.15537105186879 2.2523954735019975 9.556658877131769 0.28848034579943865 0.14516242760367257 1.1545924411228503
Ni 1.019388217928504 8.817882822709784 4.526894799545924 1.068944881055359 0.4946802482314061 0.4356207230650884
Ni 5.484035253275702 8.938900065963228 5.317418807909456 0.12846156990922392 0.3213992080146465 0.3695783388230345
Ni 1.6213181786073934 4.748819821100031 11.39500576427624 0.5710409836803327 -1.062230702259977 -1.7940167984735875
Ni 1.5306650289703827 6.5157923336836925 3.7780809374963558 -1.0491345311976512 0.23663585032432152 -1.5128612684703364
Ni 7.3437559373216725 7.043234662477978 5.064229473753723 -0.7324077889580095 -1.2413535459694942 0.5609905414228662
Ni 2.9861196892692683 1.038453831395406 12.079025815952495 1.1246961677840501 -3.369307537023739 -1.8213170289504377
Ni 8.289946471301672 3.0253670413676415 3.8266991666936474 -0.4660898381882231 0.16372244999404706 -0.9376869793479204
Ni 2.0068753829975616 1.9734373708951019 7.968769562059912 -1.3081122395522826 -2.3763120149115013 -0.60242309753604
Ni 1.7135357331881853 8.922844331013893 6.982138702854819 -1.5648651723414533 0.5068330815438562 0.4255828792131122
Ni 2.8881476860940993 4.429964818143251 0.30801486601007544 -0.6986705446065644 0.944156132012032 0.5744890901299331
Ni 8.2673861052703 3.893117762552432 11.563141786608346 1.1024088171407596 0.3965384123516461 0.930288115780688
Ni 6.427526960013506 6.779929757875818 9.292477539818414 -0.14029455798840998 -0.20124307264732438 0.20585151795361323
Ni 0.312574511764348 4.550359958845951 2.1377300802629824 -0.6788414256957792 0.36983622047011144 -1.7885236365695003
Ni 8.001977030275919 0.07472915405136316 1.652415072434335 0.6249266779551947 0.5941546868796607 -1.341877766038502
Ni 5.223731078624186 3.106844178381186 6.991203102961828 -0.7194923664479222 -1.0514477527118602 -0.1815481653215583
Ni 3.956215428618278 8.250470405030232 2.982951540543938 -1.698105137475927 -1.2285990745173034 0.3698344206978985
Ni 6.27872551901583 3.8336612261218206 9.977274304826405 -1.7459852489866576 -0.2727886460957947 -0.29650501587612804
Ni 5.984855252324937 1.5956381512553812 8.615540308653712 -0.027955861782977657 -0.4412668656072723 -0.2844383145195811
Ni 5.2207486458073875 6.658262966370863 6.824794330064727 1.2287548833688775 1.2759865626623315 0.12420459440508287
Ni 7.529179091710907 8.807435159284063 8.036723287448325 1.9469341874323307 -0.9543186743673306 -0.0138836999606277
Ni 6.095699289160342 1.1802749158310641 3.014551605551628 1.2374794077260687 0.4400419920612357 0.023603241241236767
Ni 2.7384679826718443 8.771865531088615 0.6468887631071022 -0.5656393530487871 -0.32428372865129307 0.8135708308915859
Ni 3.5826702925976117 7.535308631549114 8.236888442576795 -1.282889717540068 -0.1412669492040083 -1.1681496109819947
P 2.0628554639975483 5.6528629072671635 9.199511632463345 0.41870466403604023 -0.5792536013981121 -0.31531700637630855
P -0.24314420767461123 7.507743999411026 6.527820869473656 0.5469669734502646 0.8779993336793007 0.4860747659505822
P 4.777491429835765 6.785848880674804 11.229467020093487 -0.8775640459140951 -0.11094027319600894 1.3463982796166747
P 2.247601624434504 5.461575521480479 5.383912422017007 2.1576283781902257 -1.7181592279133246 1.1696994719676177
P 4.786594253923849 2.011614340663519 5.0880907660015025 0.5694816096130128 0.5115718817804222 -0.7244412258127654
P 3.331752547608784 3.125461512068876 11.554947415215686 0.23908791140923982 1.366181118670557 0.06070168875543093
P 4.898709941561508 0.09450744088154314 1.2819328766193878 0.29241207675367703 0.7947493273097087 -0.7345171219915285
P 0.7002432054002747 4.614207807399459 13.313677983858689 -1.2969045437619213 -0.5608216199451697 0.0895137278911168
Ni 6.815279820465121 1.7207265067894257 5.665367168537107 0.13656491574264867 2.4112304240552405 0.2009527951004152
Ni 7.633454457495815 3.292578384045793 7.538098944460537 0.8661956561761535 0.684955251903001 -0.46264687394494514
Ni 1.4107730594484307 3.8039009379222852 3.85760302575852 1.571902538804209 -0.10172595368659255 2.1178557262779787
Ni 6.404170668659859 5.559391999017961 3.407128505341582 -0.05829307931393831 0.9918624369490595 -0.833827267147777
Ni 4.707349367239443 8.413516164726548 9.96796838255264 0.6515193408420586 1.909284752510673 0.8320732605711476
Ni 3.5483906123382636 5.336587800182584 3.255796570733087 -0.8301169081757253 0.545646454866628 1.1979319844507497
Ni 5.382230000559923 8.809447844007057 12.303882038348632 -1.2123299050436347 -0.014211258503375524 1.056832156952225
Ni 4.91302744879553 4.6887869249532885 1.5863093575643064 0.30775539197896673 -0.12022246982888328 -0.8306902641806919
Ni 3.163034676420395 3.331715953341093 9.181315132854099 0.5278024847066717 -1.9833232675843264 1.2500834696433245
Ni 3.0067771533807193 3.1444630855673186 6.146531471552926 -0.7469612612921522 0.16636323005100379 -1.3431661458326223
Ni 4.754272366985958 1.669741543329232 10.73816610492732 1.0040037002972837 0.6413912512691212 -0.4989801611583406
Ni 2.437516725182783 6.504713419140306 12.59480280706365 1.2381406954591516 1.5036510627259783 0.9097437159704332
Ni 0.45804587440216266 0.4190949358720853 9.774404833315586 0.4777415634945385 -0.35905224248073003 -1.064614372000805
Ni 0.5166863586632698 7.258765750609811 9.11238342566165 -1.3741661937585623 -0.39640188677378185 0.467895266828078
Ni 1.7345591399765443 2.412724108822273 13.008335414246735 -3.197168066610591 2.186800628878808 1.0509985809895834
Ni 3.6413400522728714 4.812960423795064 7.641656147742013 0.11512628625289852 2.6908679747520687 -0.2850155271792898
Ni 8.610027382226095 2.7556398427857474 0.7859204494880301 -0.8646560796031755 0.30621350141314363 -0.24685212873569098
Ni 3.8883422106187844 2.3803381819159233 0.6499581073096673 1.2276495661198406 -1.6098733616210275 0.2211056158992063
Ni 0.6640487300840061 1.979301602292551 5.64949989406638 -0.3568670619039531 -0.2633233869178368 0.4212595692474099
Ni 7.388144784030601 4.4580875128636235 5.359717207076548 -0.6723175085343325 0.3658798069255247 1.3199025473189911
Ni 3.0941276703586365 7.534576746195299 5.678918025863005 1.3179227978848014 0.04114047879405173 -1.4684729721629484
Ni 8.596322828975893 1.4998801012755054 12.110318489111583 1.1324927810103336 1.9965531360110387 -2.0877475940386883
Ni 5.111533053884223 6.604451095731555 0.23192166063053807 0.6496365219970489 0.7889679447412412 -0.8495007120189756
Ni 3.9345882164130206 0.821207386965567 6.902816968208262 1.5174352609942643 0.009344931550009714 2.1424190174396394
P 6.7918320434422474 2.379212908184432 11.542066232988526 -2.1040049364378155 -0.5720501416711373 -0.011303597938277307
P 0.5571294284584392 0.6392616028636492 0.3250293707729085 0.9267520776029717 -0.13224160577694646 0.1581246441912954
P 2.6745835398506466 1.0491576546949621 5.3483757286624805 -2.7194213609097297 -0.28940645715813385 -2.2293523861980895
P 8.609432725376118 1.4402405935064397 7.540897491082191 1.5071603614308173 -0.5106681390192301 -0.5528691978673124
P 8.075860856743626 7.763913021813482 10.639174951396964 1.6955150081512476 -1.9884464477435049 -0.36319300412198097
P 7.466630339660424 7.133503572304235 0.7701391715463768 -0.3472377663443052 -0.11766473640403607 0.4800074767105798
P 3.068182334565866 0.5343531562476912 9.293186553754923 -1.4889294402450874 0.25104482666079986 0.37347613121554385
P 3.3419989425622054 6.534418815938305 1.456079507419706 -1.0001501308791485 0.21680750274448465 -0.644850156351999
