# total energy = -340890.3646241212 ev
CRYSTAL
PRIMVEC
9.09721309853507 0.00000000000000 0.00000000000000

0.00000000000000 9.09721309853507 0.00000000000000

0.00000000000000 0.00000000000000 13.31469093010154

PRIMCOORD
 96 1
Ni 6.6734515793136 2.225842376900663 11.294785708263113 -1.8023155481472701 -0.1407362735115189 0.26950380469693586
Ni 5.034197491527611 0.654114171459766 6.230476441968603 -0.7673884187982526 -0.7819326351610146 -0.4743243102828735
Ni 3.1546769132979557 1.456300038741553 4.752785216765756 -0.025108879252485786 0.6259060111493285 -0.28130516820723805
Ni 3.677493739839834 4.594538288292141 4.590651958932498 -0.3002955932668119 -0.03285998395281438 0.7031239523922278
Ni 3.6801592232255445 2.6411574383608403 2.2797679259295878 0.4413869361249043 -0.34825360920332926 1.138228655052846
Ni 5.080547791357625 4.500782411933335 2.3888016616671037 1.1272058215797813 1.3061121784031184 -0.16836226275890362
Ni 5.662287265985666 3.320355355006337 0.16751516899703328 0.7093707046328881 -0.7234966025113089 0.1406030903677643
Ni 5.7015963230152025 8.104270324664796 12.39910639161839 0.20193007141201996 0.14110059882947312 1.6537790618650423
Ni 2.009201348411568 6.641120084594097 0.4439121502758098 0.0491234969995283 0.47910116284622645 -1.2199583681231698
Ni 0.9229941257023226 9.129144137863943 13.245680289903236 -0.13889253543456082 -0.15487605534701068 0.5451587165969322
Ni 8.219386456960967 0.055963324723119476 6.606469710301155 -0.06610537626950551 0.18001270251363835 1.009644443522829
Ni 8.640614706819479 2.6164857969204096 1.4156445941997806 0.7385277858128183 0.004105280417625188 -0.9883096866007947
Ni 6.966727529445096 1.0363363014789935 4.768829971193664 -0.8283150790802961 0.22415854379291716 -0.6334336869849414
Ni 1.0090355655045342 7.723506477876727 2.4835627800536266 1.2416885607114097 -0.2976856664477906 -0.05232194933216795
Ni 8.396190790071136 4.1113034351674145 3.5162501894302025 -0.9750227396839015 -0.35720824729345574 0.5705974683850109
Ni 8.044265108241094 3.7924097334517537 12.676610503709593 -0.29857089726622127 0.7720032918624447 -0.7917365086253139
Ni 8.061540715577147 7.61749665571399 8.74341139337869 0.8180226960153525 -0.1908617294130003 0.8953026008444388
Ni 7.315996825102349 0.9265238443154816 0.03800360697544282 -0.20556098329638792 -0.34236681140524905 0.07251436511964286
Ni 2.1130096450475415 6.850365078978815 8.830994810770928 0.029680300673252107 -0.6499375981772355 0.5844706268226773
Ni 0.31007486351051544 5.036762905571196 1.2820492932981717 0.005497275669145371 0.5643448026070798 -0.4363069504988357
Ni 6.632468635106689 2.211659821957584 6.914638707704823 -0.1319479857959276 0.2621723040325291 0.6011647996489067
Ni 3.614677484623692 4.3664347715232 0.4184863498842682 -1.0406586325161562 0.3765187746966096 -0.33195847158773156
Ni 6.3901643689688274 5.97431257194634 4.666932089271 -1.0815959941604663 -1.00667507648186 -0.8665399268894495
Ni 5.668482467984536 3.4168858813059 9.00106356743475 0.1919271945630372 -0.38449716491639585 0.12082307952735966
P 0.41044259421995066 5.745162875691539 12.433231856725818 0.26826324742161545 -0.7124249180781795 -0.0393047111368936
P 4.109993436506861 6.298655504201387 12.73949589774393 -0.0823632328892646 0.8171055835177218 -0.3021925531792086
P 2.7163004170842777 9.004839820518054 1.4554685534806182 -1.7819390413734475 -0.26430786231829323 -2.2133853213458723
P 6.580550840969321 8.111538997788285 5.562518131886401 -1.91691244425926 0.6434525046735241 0.49191836921555276
P 5.090318198034256 1.396676905260511 12.518792053964537 -0.15163363715031306 -0.8034098311981841 0.446886782897211
P 4.245914894752245 6.725396665089729 8.010184219476974 0.2663796572456574 -0.9938586414434819 0.6684387423052166
P 4.896065410542542 1.2576896862609144 3.575673184226993 1.2218031346413925 0.1485729959471183 -0.05840029431576395
P 0.47726435228499436 5.947166488591528 3.822194918274805 0.4287733611259519 -1.2897982717344432 -1.4729523480905407
Ni 0.8112212191544405 0.46127600057719287 4.6339783451877326 0.19092626410234861 -1.0312432527395272 0.12854898741670764
Ni 2.153828839421883 6.773993976511109 4.671711764939436 1.2352399768725888 0.7953453090224948 0.4524089982670208
Ni 6.319033261143336 5.862307686468983 9.080020097814465 -0.4763534248977602 0.43252382930731964 0.42764079018340545
Ni 8.567918878371659 2.6123465650415763 10.229836852706523 1.6145561118086775 -0.8334094628840679 -1.458265178392011
Ni 2.8089646278926224 5.61056051331963 6.82572254861973 -0.4394632367396302 -0.6907985980576554 -0.45260980142391727
Ni 0.8856100389267667 -0.05104810058216633 9.112428009122501 -0.1940172443228465 0.9236700962435382 -0.6128440357590478
Ni 1.8420309637842223 1.4165543154918319 11.150094536762355 -0.29549662921627173 -0.33282879000782684 0.01140721339567713
Ni 4.151504019063161 6.849682788009777 1.5715999347387182 0.5423389877599498 1.110217771662217 -0.44198985981622596
Ni 5.854465888931502 8.188810724335124 7.9088594619683015 -0.43933545291251436 -0.47916544042525866 -0.23865082387182127
Ni 5.65916692195393 3.3631213529456683 4.358830411242943 0.419838006309535 -0.5682168839679762 1.730510550389826
Ni 0.9428260498690408 7.655259186547039 6.733877996695523 0.4857873166171505 -0.397773827420644 0.5773833809585928
Ni 5.344112244090725 4.9738829698646105 7.0277470851094375 -0.118618358566557 -0.42893225530131934 -0.6111501929963926
Ni 0.9028283338214217 7.147698386072861 10.905823453191077 -1.1825830127985053 0.8064517033483015 0.2539709991686594
Ni 4.338342578024656 0.6415272676629443 10.524716641475903 1.1292233662304423 0.24343667529623877 -0.588817076716831
Ni 8.370654913403257 7.2443562733533104 4.926381872600152 2.2277927550204533 1.7818274554962474 -1.123408559320878
Ni 7.320554528775526 6.460995268767941 6.752651914999586 0.4178482295730159 -1.4061442893270557 2.15566097005121
Ni 2.489206690949513 5.349707030036842 2.5398308614095835 -0.1584984825909464 0.9930222615851156 1.1011294362077035
Ni 2.72627096244516 5.484518628305923 11.247731284153051 -1.358345681786538 0.2582133193847811 0.791278852262605
Ni 1.5431602277066105 3.082999972697234 4.038146378024526 -0.45180427480348645 1.0373761051101424 -0.4622141572829008
Ni 1.3191686511777407 1.5140036602963665 2.4139263443109766 1.4621647705567333 -1.857582696150691 -1.1584514098576242
Ni 1.284872158467407 3.863413480296357 7.936341232479879 0.5796865751704726 -0.5217521647475337 1.4787085338480275
Ni 4.075978957397062 2.794518253774848 6.706662774522517 0.05446162138299008 0.7783837414674917 0.5973608525217841
Ni 4.308285386535281 7.360363932515692 5.785765556398372 1.2772145215321618 -0.6162808293547386 -0.4221142039382214
Ni 8.253582880329175 7.281163596829706 0.09284888423063124 1.7445397747893827 0.4478802571587319 -0.3290760078336139
P 0.1303048389882592 5.831413551390922 8.149496208977835 0.40709201949777635 0.8728725539756967 -0.4535356556722963
P 8.860858231625096 1.7257412910213055 7.912614791461889 -0.19516627032562517 0.35121834825860804 0.7421651254550896
P 2.1153021427035106 3.5624412880341065 10.149935121904365 -0.002818957506033855 -0.09554373613528062 -0.12863897602735266
P 4.5204596834804045 6.374317024061294 3.626109952100901 -0.6783359468142705 -0.07748225064787947 0.2577222386809755
P 7.043753631243079 4.320493846274609 10.548363936741486 -0.10808532024571708 -0.6915565592696026 -0.5662942130239667
P 6.51169403637396 8.037596851170356 10.476011982942062 0.5118999545438023 0.9270634381958033 -2.6951241789252616
P 2.713589447633965 8.760934444906182 5.877743837352511 -0.646473550888035 -0.33634374513962073 -0.22770512349359495
P 7.322483137914676 4.3533074932788995 1.446082049189233 -1.5294893639453206 -0.33005276992458643 0.7198785461427473
Ni 2.832435437227546 1.7531148046991287 0.20498385985274994 -0.322180052044729 0.4819717995258022 0.4442786558504026
Ni 1.8664114944111971 1.394793782185965 6.860194617539429 -1.3688414391115393 0.32229395191477395 -0.15385609872292857
Ni 7.006154850242599 0.7085509838548234 9.140415584672459 -0.10743277426338273 1.390295495220257 0.23998985439821893
Ni 2.7501693407873473 1.7948073315138395 8.934809475455946 -0.036568286042337014 1.9889524408456454 0.9613809805307508
Ni 6.553986979241425 2.252670057803256 2.453751213313106 -0.467983198556194 -0.26647581650388946 -0.39386677905675394
Ni 4.434672965639968 7.233530589977899 10.476451378326123 -0.3663248648827433 -0.6292764702834581 -0.6041213111740692
Ni 7.382934117771484 6.338892476948817 11.319244474921204 0.6967738418044839 -0.8119320097365823 0.7009344009400768
Ni 8.00202674865115 3.9898920315302484 7.817374249954456 -0.3512538294822337 0.008770547103778444 1.4699271881109717
Ni 3.349830324868799 8.716549143066999 12.479380198428997 -0.33067163445550796 -1.055864136612001 0.8529853281334665
Ni 0.16882607737887922 4.861923570451858 10.256279721502578 0.5977457466650287 0.48741585335950893 -0.1878280847929991
Ni 8.764991801868732 2.4012184475823117 5.680433476598213 0.3843498407052542 1.1199414267078842 0.09111038295427534
Ni 3.7733601695961996 2.844662091392715 11.589865635716746 0.09822154007775988 0.860248180343467 -0.7771339282207906
Ni 1.4237138220602756 3.647818631293121 12.342398914878373 -0.2258583000928433 0.2430818630599814 0.6226769626890696
Ni 3.4148572028246256 8.830355276702617 8.191637228389526 0.06605241154438302 -0.9520571320266635 -0.5678301900525188
Ni 6.069551294011189 8.420689584466077 3.3116566000117427 -0.39447150252028834 -0.9043503128690037 -0.29819603042530585
Ni 3.5407262407928424 8.53279453928556 3.235549316718731 0.11969127991576159 -0.563091904036585 2.396254776582015
Ni 3.7445947823415375 4.905826720006254 9.250767506562157 0.3603064266028053 -0.27915495463345474 -1.0591101543531243
Ni 5.046269493073132 4.789691699862985 11.488847454283494 1.459852577483789 0.16981982114103655 -0.5005493054176734
Ni 8.26804744887279 8.991912680958006 2.2487709923455244 -0.7348523938437602 1.0010217348508244 -0.10900294696398001
Ni 4.8966749238082175 0.5361515212407667 1.2110628311581175 0.3861519269109995 -0.36760553136737983 0.3239903657805904
Ni 6.1631616149632675 5.857040400188007 0.3947617283088625 -0.03528633400611988 0.33816897127381756 -0.371570686662715
Ni 8.37162831518575 9.118500398746944 11.103093786208523 0.1674019557281633 0.10028073659963375 0.3856125094677617
Ni 0.3835785244656759 4.9825617109907805 5.90045866829374 -0.39915348137698997 0.4392871161730822 -0.40620010381112626
Ni 7.8565805084779905 6.406830463039206 2.5934616607398833 -1.1874858494167613 0.2506483625533296 -0.6803030978429703
P 8.502737347796183 1.7622120176196416 3.460567968586327 0.6364310790503684 0.28493428031939316 0.32070629571267995
P 1.8464067231989891 3.6162785940977025 1.6346045022623146 -0.00023551304957378794 -2.4736316120002817 -1.09054086205858
P 4.855992187627683 1.448339977436104 8.44600075997482 1.1183972221492158 -0.16748757346343413 -0.8315006758971293
P 0.06383878194840753 1.8347077073832092 12.305769896775221 -1.1050984481577806 -0.2821004104150238 0.64286835003528
P 6.627265029316156 7.956922766991248 1.1560810957091212 -1.0539851744217332 0.534433359759628 1.0864890605867095
P 2.1320955977547773 3.5262798666750683 5.9781625124543005 0.7360824095961195 -0.03547376742657762 0.25962794034412057
P 7.198433542530561 4.149584507136932 5.859142766093938 -0.6787570935120891 0.3897558422121739 -1.1534295311630007
P 2.5090659067549925 8.478866261092758 10.453816602858593 0.16830338449651014 0.24330477770406486 -0.650044556068745
