# total energy = -381171.2112394661 ev
CRYSTAL
PRIMVEC
9.26895390575436 0.00000000000000 0.00000000000000

0.00000000000000 9.26895390575436 0.00000000000000

0.00000000000000 0.00000000000000 13.56605096129436

PRIMCOORD
 96 1
Ni 5.597243058284848 3.6595497537316093 11.302067154343204 0.28025950055154314 -1.1597552162707123 -0.9839568089487376
Ni 8.733894059155606 3.0980272708893515 10.146428839940997 -0.0849415351394021 0.7195543300341092 -0.20303333177852773
Ni 9.03285489112593 0.7159849614300133 2.9095384633450925 0.661955448573718 -1.275479541118926 0.8294417364855716
Ni 0.1846635103608349 5.081926309533619 2.749553542155244 0.6105488119669679 -0.37367899125496934 -0.09624359041578263
Ni 4.279114424513291 0.164822388115046 4.438228064057291 -0.40106715345993504 -0.794178028187271 -0.09962124863876391
Ni 7.997457151432343 2.198605081670267 12.36091071236844 0.5880683714762647 -0.13875986651143846 -0.8658639838683474
Ni 2.1659876336730086 3.78809160335536 8.830915904897722 -0.207278737318443 -0.5295078974335526 0.28172168691936644
Ni 6.230340401438225 7.955672708246313 11.101641788250816 0.40098410682782554 0.1866687743775753 1.1759174278528715
Ni 8.024476151407338 6.767161122725299 3.501777331784996 -0.03145898984022969 -0.1515120239707842 1.8483938305625713
Ni 4.371488816880633 8.484503591461879 2.111230362917509 0.985182968046355 0.6031671747909161 0.7034013744233305
Ni 3.1824489009999026 6.804097903137085 3.3266942119470273 0.8151165781121511 -0.323279712866811 0.6754701952307013
Ni 4.477025123472501 3.6364978659313305 1.5827785799074243 0.2760454624701955 2.067712272654368 0.015206532537109295
Ni 7.22301753362418 8.196229863083722 5.909140568905292 -0.5656653211907161 -1.9663352176667621 -0.3387407846168876
Ni 6.512079517472515 0.010860433025969755 3.7996064245110848 1.3584462119201441 0.8568540670602534 -0.4562455984042917
Ni 6.923732288275082 5.402789679047996 5.397551793323855 0.7542210281783591 0.434815967775606 -0.25293818702877086
Ni 2.6352376826383965 0.5484578926313641 12.98933094149527 1.5354039296575428 1.3467456356537646 0.6864536908253985
Ni 0.2846523481756755 5.649881446229272 7.098477091303758 -0.6078452969928757 -1.2805903799829301 1.5871440383443118
Ni 5.039252046794381 0.9141894862208553 11.815949069064885 -0.1063148586088556 0.6685099618627842 0.009961996308718328
Ni 2.4792968059388016 5.072527590502866 0.7114700540928539 1.0217790220028338 1.0367145602667436 1.4910174331223676
Ni 1.0608132106820742 3.6328366292280294 13.234808056945623 1.3677816303884573 -1.453434589772587 -2.927240287002359
Ni 4.8307005890114 6.718610343353421 9.664088247694414 -0.5227821486739448 -0.04351823499760892 -0.5661494599159863
Ni 3.241102839882156 4.749105989773018 10.679683794747666 2.7307421852391873 1.2629978637121473 -0.13746403051815034
Ni 1.1553658071640385 7.997401537710267 3.605787968601261 0.14575506688234896 -0.1530989088419299 0.1560335659902216
Ni 6.153185631012201 6.070284109305046 7.4605548633528915 -0.8108673159174938 1.4804242309875535 0.37902380050665047
P 7.075511404772697 3.02892722121059 4.590520680588735 0.38307431642694023 -0.3121802605195398 0.8083813162708465
Ni 2.6550268987435817 1.3641953335573975 7.991882802689646 0.5097523120731802 0.7728846660261334 0.06119482634176557
P 7.540571886675066 7.116220649331934 13.473136955318543 -0.40046911486462 -1.4738951716197843 -0.6145507340375093
Ni 2.6644441556816933 8.274228108294556 8.782525478424494 -0.02479134801206698 0.5630201702583851 -0.03542208825303577
P 7.6874106508616435 5.125601619270215 8.555538071773498 1.5911647294679305 1.0408275539938525 1.511346631598023
P 0.08248534568695694 6.753359650696905 5.335785339796111 -0.08354953988788191 -0.2506833295563231 -0.4442683714377574
P 2.942243966402304 0.8746573987788812 10.484576954276427 -0.010009818827518245 -1.0069530127335948 -0.5711178596648552
Ni 7.851628703196803 7.65597035998165 9.098438299778788 -1.2357840223015168 0.06559629784357089 -1.248863224082978
Ni 1.878334925191362 2.9564161965778673 5.713776051521769 1.5550096197036123 -0.8410260988890612 1.3004277264238313
Ni 1.2855575305426947 8.530014154026965 10.778647486285582 0.22749763546847918 -1.0265733580676837 -2.478048510121055
Ni 6.2605757283399175 2.9241324309130614 -0.006309376769461136 -0.6899848439071086 0.31696174106858316 1.317442772924589
Ni 6.706189945423234 7.585164822825907 1.8745708031022212 -1.4505040463893535 0.3682153970372368 0.2506733022539941
Ni 2.2789298342545923 0.32156317551715946 1.9051212744290082 -0.5823191276973133 -0.7101476920082286 0.4200784044551153
Ni 2.28299890491978 2.5930546744441587 1.2342538719280811 -0.15941250976478352 -0.12388449206150276 0.3163500756265133
Ni 8.951297367702265 7.8354914548412395 1.4552980254799472 0.485686272262912 1.2973274902319527 -0.18105477062490755
Ni 8.60702062119412 7.220338806010878 11.223817720487663 0.8368627115399909 -0.0032989824662459314 1.7288215927231776
Ni 8.250731310717676 2.7204008290432866 2.4562013540562306 -0.022592540588535284 1.0550593813225184 0.5280878771575744
Ni 8.384463774401802 4.698395544193876 12.079428346351065 0.12104419439923024 -0.7023508216716291 -0.34158236783074075
Ni 3.720659965338863 4.357094131816767 3.7342046873503416 -0.6605248867747786 0.7473615820543645 -0.2995504875706712
Ni 3.6483621266407624 1.9687072235639875 2.9778562133333257 -1.0534275021460502 -1.0038165239871422 0.1363653981373329
Ni 6.184375660142855 4.528977608844661 3.369087625389784 -0.6992405581774215 1.1775606198832493 -0.44889172914238173
Ni 4.380526046717896 5.988569013668834 5.624335282993909 0.623635727057913 0.6077110854078567 -0.4160782821567866
Ni 5.826714544521883 5.35200508183942 12.837498991961683 1.1837628920392194 0.3179953245394201 1.7114566190821687
Ni 0.7344301792517083 0.9935113380170865 11.899515174750844 -1.272734374273621 3.035834171453378 -0.6740206072683682
Ni 4.278604632060933 2.5467747887236953 4.984601369006193 1.0410676950291167 -0.5152269620345061 2.2282347276538785
Ni 3.232510519821497 7.552983015651573 0.24004828928041932 -1.1823888945098282 -0.4289492245821838 0.8360625842361988
Ni 7.932157372762071 9.073221184399037 12.764446660434094 -0.15157321622602282 -0.06849136000317882 -0.08379122358504279
Ni 4.404050651155816 0.2846606902339868 6.825853064317638 -0.19775100033366588 -0.8813903616387208 -0.2531729287473962
Ni 2.050301822802369 6.232008813100489 12.169222262014106 -0.03488189947884961 0.9040119556929785 0.18824974571145
Ni 0.9701350368380339 8.269565824593899 12.92991138703911 -0.41218126109522557 -1.8567625142422408 2.159995335760506
Ni 2.0177863332955823 5.290468498362921 5.445982076297903 0.032061399310918975 1.2099747745478968 -0.6222190492160447
Ni 8.972838416052829 1.8593335701489127 5.345213719478638 -0.6773237034996722 1.059957075734452 -0.23511838523853057
P 5.665054723402194 7.36638044018104 4.045789834231795 -0.525677725054185 -0.8410762354007063 0.013302116425544831
Ni 0.44673483358313704 3.199661347982258 7.593135196094689 -1.8831466606627245 -1.0204433339105456 -0.3942683853705468
P 8.530941049394889 3.4712602286914542 0.5301257560445561 -2.017544393550726 -0.08564884561907184 0.37102484146157394
Ni 3.4977508983067325 8.155529887478163 11.483119480350606 0.35949318667289054 1.4267917903740783 -0.5071441850263718
P 3.6662512072417024 4.090583906677476 6.499793519370677 0.15430578466583747 -0.3957118026852927 0.6542691356730539
P 0.9663625726905819 0.8848782740009832 6.862521971968093 -0.4511465866148295 -0.3263717215285734 -0.21588344826831848
P 1.436196565737762 6.803699338128877 1.9935582152734075 1.5003330540963387 -2.190121208611609 -2.2328745404187353
Ni 8.111613584945907 0.4940046435565437 10.46517703422577 0.7687282206555988 -2.161624900944129 0.8606739550269757
Ni 1.2254854417475165 2.975083869287864 3.587325139767575 0.5885016023589413 -0.7757447611827478 -1.9880970348238856
Ni 2.917644163337591 5.784318350393021 8.126850817899216 -0.4656306391636174 -0.10850878093638086 -0.6316115461745381
Ni 0.12009597903122379 5.566915041846362 0.336348083530921 0.30965492299452474 2.8170245506772 1.016816535791236
Ni 4.950316436242039 4.588456484604368 8.861981730049074 0.5589673403452502 -1.0980299713467734 -0.6468977829096472
Ni 7.2455688979257795 5.132108424753044 1.3777548858947628 -0.24305152404267819 0.07908533346894121 -0.3892588479710974
Ni -0.06129188309936639 4.162001194776048 5.084135101195383 -1.7765826621575405 1.3625934013192986 -0.044100846973956304
Ni 3.7776547615125313 3.354573370823456 13.062844866916087 -0.15995758363497614 -0.08600134386248415 -1.7084196320280578
Ni 7.023076933809215 0.6404735764913194 1.2713408093894707 -0.07255216033611375 0.46837786289145145 0.21863555709215896
Ni 1.9668627017818179 0.6849404548721227 4.689227622109737 0.8334904526336484 1.7987933939266247 -0.7689585914988499
Ni 2.276223299780253 8.185644717982026 6.166095429696651 0.9906984985479453 -0.9074544057156242 -0.03899977830196509
Ni 0.27182875076044194 7.979503188155648 7.385493949563009 -0.27604854779398913 1.113444506129631 0.395510485307764
Ni 4.456309011999391 1.3511168399159847 0.8478562192153484 0.6000926496306503 -0.5197621309006983 -0.36422530204123726
Ni 0.6763611113466148 1.2043244204978034 9.337634772216084 1.0369526444194785 0.023193921617960054 -1.0030593341061433
Ni 4.053100257998615 2.5864366415171784 9.525226345044192 0.9136692762770845 -1.143205025221515 1.2548189274457808
Ni 5.952855735142709 2.3428114630119397 2.6735833440094274 0.13150935559661223 -1.6613599595360937 0.7899670754297169
Ni 0.9812207054384093 6.738288332014455 9.26939766212486 -0.7689544777337919 -1.5272239649499117 1.04749622426328
Ni 4.912536181045442 9.028526289757725 9.450395301305555 0.2538866669849692 1.7199410024040962 -0.7525888918915749
Ni 4.80177218457848 6.166477310588236 1.5748146949062183 -0.1757816951514263 -1.1434513369043664 0.013734833087589248
Ni 7.535464693197802 1.5226110208893502 8.465201922320222 -0.4204805249895404 0.34017700284278185 -0.6046072496715523
Ni 2.248101294317428 2.7980746608753484 11.11945393653622 -1.1532930055851363 -0.8161344778537042 0.7618592614499072
Ni 9.240192115976932 8.92514964937312 5.1566461258281056 -1.218284837075489 0.020823621613570587 0.6508886492365952
Ni 6.6960867859128586 1.2919531085813727 6.106052074657879 0.008501609713107938 0.6521808856854575 -1.50070355006188
Ni 5.387393946986772 8.338786370670489 -0.015038877344572781 0.8876797941918584 -0.02591054921817473 -1.0915860154936428
Ni 0.33714799423343966 1.0259063311260428 0.6041114712076466 -0.4830727458994648 0.8656246141640318 0.5323643930457412
P 6.538820448837132 1.7384293383568588 10.448938754275103 -1.6778736409204005 1.8813656575029019 0.1252173519403134
Ni 7.2181976777109735 3.6814800981366997 7.230840530529461 -0.1196730250833165 -1.1703977835862232 -1.399576406301551
P 4.446632224358261 6.3976264774412135 11.780500882613987 -0.5767485755880712 -0.9972273008053987 0.011519570603825323
Ni 7.082249934097506 5.672052783430023 10.576581515391966 -1.985512304815845 -0.6134109640061113 -1.7625678359356869
P 6.3509943714809385 9.038295766935647 7.614081177619044 0.6703295315700263 -0.03534186983440365 1.703099762477041
P 4.06907993414163 7.3693650432657565 7.446391902131007 1.1899211983311313 0.6379829969185206 -1.0067568375623888
P 1.1530114929295108 4.840173459671587 10.940246132310985 -2.3289834050288665 -1.2490473150693264 -1.0981937506181474
Ni 5.154409527305304 2.435102434796168 7.427372009181199 -0.7599638441994073 1.336103582558886 0.2620725452298713
