# total energy = -340862.02243174263 ev
CRYSTAL
PRIMVEC
9.24622500996522 0.00000000000000 0.00000000000000

0.00000000000000 9.24622500996522 0.00000000000000

0.00000000000000 0.00000000000000 13.53278492483386

PRIMCOORD
 96 1
Ni 8.974940747791322 7.281762781586581 7.608320955746939 0.3235059699450042 2.0476566395550737 -1.7209223924807586
Ni 7.025466671117387 5.4185652302847025 11.4994837876541 -0.4859726931550792 0.4365159811858482 -1.7416367422099746
Ni 4.800741722746873 0.4741473420567591 0.24911549214276155 0.30010944539793477 0.5175386408868183 0.9386537141365642
Ni 8.45702270125929 4.874498859483868 5.134121761704092 0.6334776528489994 0.2670885103872239 -0.4240733845471213
Ni 8.015173347711494 9.058748531091325 5.968458572073583 0.46004774575920127 -0.3139990588958334 0.5121714630376341
Ni 2.305278060474399 2.3221246824042985 11.993430995902235 -0.3687051921894618 0.320964434470073 0.01594186804123706
Ni 7.567073546071155 2.0049514266077417 7.129328591795962 -0.7652744577790433 0.39902441199829347 -2.044885761678156
Ni 2.1424520384186794 7.123717057850157 7.1869371965897235 0.21195120309344787 -1.0518820120358015 -1.2168704732264657
Ni 4.412770122209792 3.0649479055679802 0.17847988096204223 0.3576857011505066 0.044019085893427415 -2.1539005357166774
Ni 4.460443658252909 5.02593353235318 11.848737745672379 0.4549793300973584 2.0414726222315487 1.680952794066357
Ni 6.619779303501443 6.54250860126864 5.39419495508128 3.5950354821863053 3.5565728073347325 0.34211818572955277
Ni 4.389885715362096 0.7610438341269413 11.591831384353915 -1.0749134399339682 0.7596306292297047 0.5838569044980784
Ni 1.2261696344619648 8.753456674405593 5.9301200247793275 0.9870902123713968 -0.013184359900757937 0.062357222080982926
Ni 6.43163711742593 0.3975710313206281 2.0632488751631826 0.18729432377671615 -0.1577546624463864 -0.811097429650429
Ni 3.725877314004375 7.410895559782503 11.049423786316101 -3.2960130992049628 -0.752551096675104 -1.3678865313974375
Ni 1.7254842763161948 4.578443981562114 5.84383517780478 0.27395181316596046 -0.07890201381354153 0.33752388149065093
Ni 4.573626698342862 7.2465531568285915 3.8056629894341767 0.11253795670043197 -0.5239453157441106 -0.09103916339670771
Ni 0.2073956003700407 6.111930395982396 2.8101506081694976 -3.043940602610596 1.3035608727361743 1.6002430376201149
Ni 4.649038909352882 0.804680468339875 5.169036431884933 0.63100373738721 -1.0326774140828925 0.05978097671337446
Ni 4.357209556251085 7.716520280567839 6.213673081893498 -1.8789495918622414 -0.9665329570453353 -1.1317055092223476
Ni 1.3087569160634236 4.352281318331966 3.513950138767241 0.3152532430179087 -1.5371191125764365 1.636563212207388
Ni 6.501889934892105 3.907602619937545 6.331976681382342 -1.0029438915742017 -0.85829079950678 -0.530124705081945
Ni 6.513956258502708 2.6539994359333137 11.511555658999697 -0.2490203400316034 1.0199689653772885 -1.3731184692203384
Ni 7.077874274354855 8.870449159190999 13.04073240795262 -0.599040297106736 -0.38311905362194665 0.5121431809028599
P 2.1991683825010067 1.526912348453126 5.142133615657034 -0.5722146922734597 1.0121209300877796 0.8142902255561137
P 0.36473306327230953 6.6974938245337166 9.483789172231678 1.911522126481624 -2.336740423266466 1.474744406993957
P 7.335723750622196 4.522171456279256 3.2317100456015035 0.46671435914609943 0.5879346741118777 0.16206871644070797
P 3.1695874337681267 5.318595045703984 3.600681578408756 1.790962070807664 -0.28491165461157386 -0.4481841615523959
P 2.2438461416476985 3.2537003424927655 9.48299029839263 -0.2646863287036345 1.200309997764623 1.4036845149326536
P 9.173827047304016 7.11660671083364 5.40634726858428 -0.19443247748339418 -1.3885510017253249 -0.2901327938011971
P 2.867716680328311 4.685173156609768 13.253157030094162 -1.4698068604830234 -0.7166435841452173 -0.8350868505864909
P 5.795968395659394 7.3204027558154765 10.938306352888683 2.3933856825643365 -0.21851162991978496 1.1233018585396848
Ni 0.45940608555684803 8.330543589635202 13.416294649932007 0.01411741323798859 0.2401418065950509 -0.3731614281886025
Ni 4.115577958614394 9.087236150282335 2.5561401645175765 0.06716724187511658 1.5106892005196821 -1.0970802058389946
Ni 1.9128312870426571 8.908201495820954 11.479062575143468 -0.5699891453770506 0.805890688638509 -0.8710175030448291
Ni 8.62198460128746 7.342057414739639 11.611779190145112 -0.49523637784519225 -1.6383976943129654 1.1652110971789609
Ni 5.339648700003863 4.264053839487237 2.333836875597824 -0.5459896971386597 0.7841316996948625 -0.9414505601554108
Ni 8.66264949878894 3.2867740892783024 12.804261128482272 -0.495667808955656 -1.1529736745725045 1.6220043405566065
Ni 4.8344164741566935 6.141407361247224 9.3286356676718 0.8840391121154775 0.49318823706691184 1.1961540666147206
Ni 5.7947571401858395 8.95427543494098 7.346691622704109 2.32214864149522 -0.30447697833801113 0.8052342860014325
Ni 1.9688726567007897 6.850870204650711 4.473410564177437 -0.08975258337480027 -0.528300764499329 0.394660735712959
Ni 6.404480954633332 4.225025523808804 13.357169664240056 -0.05729420573577874 -1.190834197063704 0.9253554543657612
Ni 3.7152626477170405 5.4545885228417195 7.553553715892287 -0.5121742912511115 -1.1692585277754572 -1.9378995880338885
Ni 2.411341507322847 8.043402072602811 9.15049050005436 -1.3101238706656728 -0.975393492759759 2.1746904758788355
Ni 4.643611375284358 7.455564072704206 12.92788315658477 1.5863094582581585 1.6663329872706527 0.8985779291616008
Ni 1.4919431255448503 1.9312775058956475 3.0782347308771265 0.766573379096125 0.5814799196254694 0.934336831928765
Ni 7.606000153274708 1.0831490263326133 3.860091817454234 1.3850998099519305 -0.10014652501461463 0.7044336723425868
Ni 9.238171527002242 2.332221560092251 4.997372867984758 0.7190035997369617 0.316293768467281 0.47443563904975716
Ni 9.0610323486636 1.0484849288489737 1.9967491004200284 -1.3796814671498367 -0.6769681199324663 -1.6646044346153201
Ni 2.3608571188830836 2.6439672818202835 7.486621217819649 -0.26371265193645554 0.06094260112164344 -1.2833592009773187
Ni 7.634598727165585 5.407192373548272 7.5922574890736065 0.580499043769439 -0.7517206303540086 0.1028299853840487
Ni 0.21811382437725196 4.192562027872539 10.917628095323355 0.5412020459420293 0.7219541977248534 -1.6738681193054334
Ni 7.45650718765308 2.8256093717285524 1.6516494712892926 0.36423275824040496 0.42768218494430216 0.8837956286461037
Ni 7.1631614536530925 6.928723419057819 2.8001498912214307 -0.8903696823191957 -0.08541538945202709 0.5961719744200056
Ni 2.4946130095734893 9.033487844421465 4.03600402173684 1.0187731452969744 0.003915533004322289 0.03635025649425998
Ni 6.914160614700194 0.38969047376253096 10.730456762871684 0.7637755046360136 -0.9345718307577067 -0.12740793183372895
P 3.5343232709079326 9.146550683586561 7.812260317216104 1.5400321724581736 -1.0032974182588783 -2.8339269828594933
P 5.384160027100753 1.6409645336920415 9.86407438593543 0.10448243338580715 1.7290751034948801 -1.106988980312274
P 5.458675354286844 7.638093800211415 1.6350044170641531 -0.7470381372766747 0.8094730066731286 0.011173243008000112
P 8.762370035294957 7.8504518495330355 1.6559665337366416 -0.9151726002954884 0.2826992203412873 0.6789450411531791
P 0.8998028571588775 1.917472891987119 0.2309059766494887 -1.3104457727814658 1.1295740647016417 0.16777656545876268
P 6.505958273887251 8.722324634867737 4.54658241487263 -2.322144270619846 -0.8818120225571716 -0.18044439073441826
P 7.588108707921057 4.4867214296715545 9.586259536049413 -0.38873460003651117 -0.07944297391867608 0.20232113620285158
P 8.696906762373066 5.383845655451128 12.884469356394069 0.5023848159645153 1.1384991351054135 0.6319370478347569
Ni 4.870069917714153 8.822858839172783 9.732900965884443 0.07792113795751097 -0.6162075529146419 -2.988724876670401
Ni 1.5081887428504666 8.589456381776273 1.939979128232765 2.3975894362330386 0.4015561772812117 -0.10064146237316215
Ni 1.0100021404448905 5.091063941175468 8.100035200660237 -0.4342315560270457 -0.9630678813148704 0.549423405410557
Ni 7.313911905873222 7.151797843141652 9.276033893709567 -1.8350832294965944 -0.4034348823611632 0.5487631461187388
Ni 5.324753031546636 3.9826449819480065 8.555846353941375 3.2160954996427127 -0.06408654606726381 -3.584345092351995
Ni 8.88261719127648 0.9653983510981106 12.26368058450228 0.14423657335529352 0.026222938252270966 -1.2530055283861259
Ni 0.6062537062091331 4.323655005766121 1.375039404519337 -2.2280850894498916 -0.8618245236916513 -2.37661360531232
Ni 9.02520322683135 8.598249541740781 9.907270899838888 1.4224422551561307 4.080882191286482 -1.0447801108836974
Ni 8.311903200057442 2.504358530711861 9.233283972473075 0.936463905574097 -0.5668925087295978 1.3953364000782742
Ni 2.5504971934068097 5.301332343649582 10.06364213222981 -0.28591489906510753 1.1099786590682175 0.16947632175868874
Ni 2.7100408055914462 1.503158796456468 1.112932041644577 0.3345136339094174 -1.7665594735935832 -0.726410433723994
Ni 5.225291389340312 1.884565577251383 7.304049882299989 -1.0792863721906831 0.5981537807367246 0.9787094445068694
Ni 6.501880688667116 6.402446785135759 0.26736199253599024 2.18374950075731 0.19563112577718567 0.10576001454665011
Ni 2.9890641370835227 1.1120527256481263 9.351993481238933 -0.6723607030674421 1.8732111467165675 1.5439484767934442
Ni 1.8917314016178328 6.617153375604576 12.534904725216162 0.369411474227867 -0.916203612663164 0.11211141068597466
Ni 6.198752448628802 2.683818511522734 3.867602526012772 -0.3802808128422031 0.9618273240395498 0.5581895816389613
Ni 4.349784837584944 3.6717591591439476 10.257065762019023 -2.3544645800191066 -3.1643422783298214 1.9983269400820103
Ni 0.12979573252763094 8.721473982168753 3.8667361547313064 -1.0060749810040157 -0.6403047030731618 -0.8718006610677566
Ni 0.6241146390203218 1.038064433286407 7.321398574246788 0.4012098496853864 1.6710471049168705 0.9181563655141608
Ni 2.774274330589804 3.8409465839920776 1.7068226204209616 1.3179356534006077 0.42496889977819713 1.2764061666982534
Ni 5.339889101853576 5.1358896399219836 4.754987703011467 -3.8500328657369502 -3.4553320208146747 -2.0505244480211715
Ni 4.112110624243531 5.953708993971182 0.8101144747658915 1.1464003922303612 -1.453514551080903 1.6674007664135349
Ni 3.8708858605063545 2.5586523638470795 3.892894649847594 -1.8802950501465425 1.523955835721601 2.164758047256472
Ni 2.05422455957395 6.288533293271678 1.6977825862492477 1.1644896456319043 -0.05737519548535926 -0.5660754121449413
P 5.797632716157408 6.519540978396045 7.302128516747281 -1.0610603361009598 -0.27857491376026866 2.0151311561235423
P 4.5278856233224385 2.1403993764711284 2.053694750882082 2.220790098450375 -1.2262403444771397 -0.5820902995159588
P 8.121172070985018 0.35521592389116513 8.163869288739072 -1.8954046520944712 -2.575582794323803 1.654676891088963
P 4.031714697964458 3.396896628896907 6.375118642558366 1.1544127210118762 1.699330782352912 -0.926472855799656
P 9.093884186049403 3.460778797345684 6.890041836816473 0.6533378821080361 1.1121193595603038 -0.06947994916869324
P 2.8314252472466137 8.604638683208158 13.361635590909728 -0.47372498613597763 0.2573154901608601 1.0625803722899119
P 6.854679649346166 1.8608490101546808 13.38216498425273 -0.1914487122647219 -1.2962489124557934 0.8532866614239691
P 0.9175297197077262 1.3893470130672656 10.377006867953412 -0.5201578236772203 0.2415751966074678 -0.026394430833128736
