# total energy = -340891.44655173697 ev
CRYSTAL
PRIMVEC
9.07003887245175 0.00000000000000 0.00000000000000
0.00000000000000 9.07003887245175 0.00000000000000
0.00000000000000 0.00000000000000 13.27491870341523
PRIMCOORD
 96 1
Ni 6.096027371699357 1.9330156991366523 11.444386971465297 1.2669810167296116 1.008285101281457 0.7429711662961527
Ni 4.577548717308843 0.33516332284034367 6.040114211668681 -0.6671215661556897 -0.30412756541839236 -1.4514970064302422
Ni 2.8081202345874128 1.9025857195916827 4.8422523521917675 0.5270298682067053 -1.2581266516627752 0.4584570042333136
Ni 3.25037531733338 4.399812240658105 5.0225520217544 0.8682142292680789 -0.12572257371150605 -0.6213926966600072
Ni 5.173395833919046 4.347441837709475 2.6343410157833134 0.20264329542896065 -0.2510746514574708 -0.055946433458632684
Ni 7.122583411901803 5.810420925830043 2.3967994255332714 0.3130081557374738 0.8720210046086787 1.816087662230698
Ni 4.783130212499985 4.472209288863156 11.379817366582841 1.2570956392950994 -0.026519900667399492 -0.3115865927995989
Ni 5.781814024046188 7.79311322644741 12.204243061286206 -0.8310957271492267 1.750107241574831 1.0273745138127404
Ni 2.0129045992356365 6.354940693932056 0.37103804656440276 -0.41141095858810434 -0.3990658067591901 0.7935344810660011
Ni 2.2969691385408235 1.4550337342960105 0.4037736299246723 0.42209903442956986 0.44494560001044015 1.1934232979471189
Ni 0.5985645001785116 8.955357044292999 4.468947702978098 -0.9776254674140713 -0.39029268855225036 0.4025812761116163
Ni 8.7441521251621 2.323680402254664 1.5220622266463173 0.9234839483746612 0.3890631870205235 -1.023456666815573
Ni 6.72505268955412 0.7099835755061629 4.650376592347988 0.9477507913418258 0.7074804295887106 0.055670554089426706
Ni 0.6349081448988374 7.0570614529650335 2.469320733267314 -0.13927537269527626 1.7293075312206605 -0.8878029500332838
Ni 7.43725933152421 3.7790678680565626 4.001750921051591 1.0321801627315 -0.21760994404112197 -0.6266462317494628
Ni 7.794138140810624 3.8739948921750877 12.578622510075457 -0.6135451755911304 0.3384859882936041 -1.5377981409213324
Ni 8.111380881360372 9.094709117535597 6.648318348884568 0.9311422362508673 -0.7976847557889487 0.024940214885105436
Ni 6.9537627832071625 0.6409324645452663 0.5562627470936282 -0.46187245767276586 -0.6674085012684894 -1.1676392470044794
Ni 1.7512067751488978 6.664782282973995 9.218753686611862 0.9467927983039307 0.47629223264252163 0.5998345108732572
Ni -0.12871563896170707 4.872188921636217 1.306977144996988 1.7926116905959453 -0.12723849613540023 -0.6601032258563276
Ni 6.6844914768789785 1.9209706878592396 6.995776109064168 -0.8601407082313252 0.5526707087032611 -0.31122483858480593
Ni 3.706044987187248 4.258337778380181 0.4347813709292588 -1.0116169938681676 0.6682839618949071 -0.05899987557297581
Ni 5.857530706383418 5.4866749675951265 4.68702861838114 0.030317420036618758 0.47053373289218964 0.38856567855881463
Ni 5.1380680335233215 2.9346291331546968 9.387916255762194 -0.5049497484782143 -0.36250960490171114 -0.926524534973198
P 0.39301293611479093 5.751855686509069 12.280839537368847 -0.9470115991829562 -0.3710418107424384 -0.37100247286407073
P 4.137016941899253 6.249973137069483 12.550426481040747 -0.405359867298018 -0.4884810613992297 0.7115368590462713
P 2.2066859741919034 8.284673039090979 1.6422266332041502 0.7285225949709905 1.0526826535602258 -0.585915843909636
P 6.374858498725127 7.910279985243809 5.81661757621011 0.04846709436245201 -0.7855036403417245 -1.896658064885598
P 4.752854423611427 0.7869147360136078 12.737695568273233 -0.4687617285934314 -0.6385321845537714 -0.614311878553826
P 4.183092738050801 6.474365892342969 8.260902281895314 -0.6971967882745155 -0.1667668932473257 -0.87250308645142
P 4.767838127399294 1.183821439704749 3.7251011383121306 -0.12149465167308754 -0.793494371856685 0.033100896319026865
P 0.1359299476740972 5.431193541402405 3.544257266432747 -0.5242731313971745 -1.7267048034904906 1.624510137697596
Ni 1.8184248313062061 1.0892572171307244 2.8797680976030713 -1.100194325987944 0.0012891511250687473 -1.6245592457679763
Ni 1.7743625837266348 6.41610903433482 4.889670514057967 -0.15677970012762676 0.4652706847210374 -0.8548056691716569
Ni 6.149223148161726 5.746332032994051 9.141400769308934 -0.10793722470362702 -0.3748547567306254 -0.008714754165178541
Ni 8.814707955528814 2.3445596311406613 10.348223826935008 -0.39577376627147964 0.04516142702798674 -0.2685992906047955
Ni 2.315308756615318 5.3775805431638615 7.170766178023038 -0.7942178802862708 0.19030611401984646 -1.4022835208200688
Ni 0.6350541725204989 9.110037482790737 9.164419620303622 -0.5238311587637494 -0.0627616566082532 0.08542798785751739
Ni 1.3307288551115666 0.9863213489173532 11.554223325055066 0.6262631373784311 0.5785349780645326 -0.47082246777720205
Ni 4.1563814743369605 6.489349596130834 1.8338638510324201 0.5714968402708287 1.737124713272234 -0.8989466253549292
Ni 6.063801524509111 8.353641612700502 7.78471709170381 -1.4905137540130715 -0.35690048624504983 1.8243154494571292
Ni 5.293446864994223 2.850803836297883 4.998498279354025 0.14390901481254573 0.6211312154685045 -0.15074712078030167
Ni 0.8679591590318257 7.518336406681433 6.880602944754799 -1.1584997465970563 -0.2073838954377396 0.8436367970390309
Ni 5.187399973536761 4.884052532141379 6.991461491696198 -0.3784933819244771 -0.7686971103073471 0.3756754528597078
Ni 8.375436915486363 7.068163180226745 9.355723967714814 0.4475562981604098 0.4172483912054879 0.20110191908376976
Ni 4.859608778080665 0.43655909849731067 10.066662618286873 -1.4203398641011475 -0.9807264749368982 -0.11247445045234825
Ni 8.031056619407988 7.017978656583731 4.66708995249926 0.2961736006786383 0.1481078833852417 -0.06360574977610335
Ni 7.259423084448735 6.244259012743601 7.023082367310989 0.505469111316794 -0.028214000540370765 -0.28279049450351296
Ni 2.3635885721497067 5.115855508961285 2.5969189434719597 -0.722057298961621 0.03972637205534448 0.8118101394467374
Ni 2.481698614961806 5.42412798132326 11.412274499757707 -1.0884364141210674 -0.3764817508110871 -0.7645103259195091
Ni 1.0617750001348203 3.377165387097651 4.0265484066181925 -0.37738703623417585 0.7163610199077921 -1.062460558882596
Ni 3.6236799665470487 2.578049635142495 2.5038485562574158 -0.5922672400489606 0.9285734470824265 -0.2571969623051248
Ni 1.2647987444372344 3.4635484348431924 8.42444868313678 -1.2493795015977645 0.403712304392266 -1.0752068028046708
Ni 3.7526014953852598 2.91414898596765 6.912329939821357 -0.1405771222258353 -0.37166144660430833 1.3413524896626512
Ni 4.079141025512829 6.808197733514996 5.995828841139241 0.0719104129870568 1.3440292651638661 0.31836042118832264
Ni 0.8969225133331526 7.7778211413467195 11.424527214919346 0.21544661784121602 -1.699158518441106 0.12205849459635752
P 0.17173483210083998 5.7301873642637835 7.9595348299290425 0.4518089027891767 -1.5988124758211755 0.2833211701960024
P 8.613480078871676 1.735279787345331 8.037883637471623 1.0816430453483177 -0.7799035205461278 0.6537109491767387
P 2.000487716375111 3.327534135809999 10.390783169116487 0.3297192978445676 0.5465512260690845 0.947365125867633
P 3.871101549857697 6.177476318439693 3.8951924794163837 0.1796254943775487 -0.1148907732033247 0.25378639396167907
P 6.7808062169052175 3.897150700752825 10.393836144113457 0.40013692833618186 0.8056446340659739 1.2936448991740432
P 6.552331944256101 7.879623254733527 9.979765299352003 -1.1941450066044919 0.0011613672979528386 1.0535401164645146
P 2.196019608783592 8.683147045454362 5.8109361040232335 2.1359120695590565 0.6099916539119172 -0.06939818808816435
P 6.974342700818947 3.913240949251417 1.2609430710230567 -1.3941449508733346 -0.8069360991838878 1.3104262323974398
Ni 5.217340170996655 2.5081287074786593 0.5624067912497422 -0.017687904198066314 0.9589826555019032 -0.4464250127694441
Ni 1.6329425416803856 1.3425108352692166 7.224330198053074 -0.40718380788063424 -0.21875794160263615 -1.1325187491522626
Ni 7.061922993661339 0.8437929481526553 9.345104766507287 0.6212697979288978 0.662023325697176 -0.5866483512002864
Ni 2.5902760471921584 1.516646506590788 9.381039352486187 1.3014373986352685 0.9691521398357374 0.38596115105643203
Ni 6.486029961998656 2.0259291746832004 2.4340491671109867 0.2356932839053941 0.11170774748965276 1.5536942433262984
Ni 4.410569306452541 6.851470887735279 10.411345853654906 -0.8039366502359317 1.062440761388254 -0.32598117095837403
Ni 8.070710828221879 7.011185197662961 0.2337503141100129 0.5086588218986853 0.3993542845338864 -0.24067068251532744
Ni 7.686821443947411 3.693138322241647 8.447919222054372 -0.032876696123362734 0.847110100299612 -1.1605414596174335
Ni 3.1733162692814987 8.22002180386101 12.823942565439587 0.4541270093993921 1.2160739454670992 -0.5961426638439669
Ni -0.0008988408264996984 4.737516988317673 10.228762348369644 0.26683757071868236 1.0938195328098517 0.6771604384489306
Ni 8.811642282477786 2.2380864478684117 5.80500248476293 -0.007504535907161269 0.32866154600401465 -0.493974223303317
Ni 3.4775253643450696 2.5465312509640246 11.825071911097966 0.2796550341983248 -0.507702628633003 -0.3521238907920129
Ni 1.0912344855482514 3.4130827400031887 12.432200341734408 0.5630350826567208 0.39526494495586123 0.2381006077953061
Ni 2.997647761434413 8.595512332380295 8.043897073071715 1.3038586064822513 -1.127329491641839 -0.5535826789945691
Ni 5.629918087402491 7.838100617965458 3.637725828342381 -0.14266768620627687 -0.6150477282785859 0.026688050814147588
Ni 3.318237346232176 8.427335676427141 3.8660540733698356 -0.7995470058086681 -0.0876591911808813 0.05756545711929441
Ni 3.3624537844681606 4.5857752423303895 9.00618281966592 0.9174932780088649 -0.5013856852760397 1.7034075235254469
Ni 7.094312101546611 6.131337032017857 11.387330986569443 1.072204011422605 -1.3635254262152647 -0.47609631458163176
Ni 0.33576103838490806 8.996870611022455 0.3121798449962444 0.4950877680824699 0.2522154499301334 0.7988561503892306
Ni 4.377354825053532 0.29230466938465216 1.659577617069881 0.053551193753578745 -0.6524634499228827 0.01107914063229705
Ni 5.920757945551222 5.67906862664368 0.3565386828384449 0.056520046573915565 -0.44975896223868345 -0.7884169573337776
Ni 7.846708084608729 9.001088178977273 11.475011956840437 0.3804659322698157 -0.21015451620434134 0.19324077116813815
Ni -0.1451859220781632 4.849921976842506 5.8558581912632715 1.175150210669544 0.14515728539735 0.0406833366519751
Ni 7.776496915709293 8.587775589443824 2.6766346058334456 1.4449676899521569 1.1080629301027434 0.5223193501049134
P 8.701459453413019 1.6765694274065566 3.5590586624445018 -0.8754418573647698 -0.7921553413302873 0.5645515193012471
P 1.7087227142879031 3.583282014566931 1.3448019270227365 0.8556153095571457 -2.125265131368172 -0.24052438674545026
P 4.862220949201068 1.2588034489143658 7.88356237250294 -0.9650671711330863 0.072470656365901 2.5086317822245503
P 8.570460885732544 1.8216537650522595 12.519349807742707 -0.7388144638153018 -1.7684271229299413 0.40866219219837363
P 6.39149294954047 7.6767355610103 1.4594844022431688 -1.7828250435228263 -0.08197885296665237 -0.6241085529292736
P 1.6991175433972554 3.345111870641042 6.16965068912482 0.16829464274576178 0.17851992001819578 0.0007831580229276835
P 6.99914925642416 3.9649129592268832 6.147255856786673 -0.9759989875542417 -0.03452245925690183 -0.1088193701982642
P 2.6502017923050087 8.6491706808119 10.322430451128753 -0.37205482538798507 -0.8996793897558958 0.19119828681681267
