# total energy = -340859.0195936272 ev
CRYSTAL
PRIMVEC
9.34679038484835 0.00000000000000 0.00000000000000
0.00000000000000 9.34679038484835 0.00000000000000
0.00000000000000 0.00000000000000 13.67997251627898
PRIMCOORD
 96 1
Ni 5.057258510492291 6.8207454871073105 4.742860523327199 -0.41971690735063844 -0.06193916070695784 -2.006937307458841
Ni 5.397771429908751 7.456673062478222 9.565529550778066 0.4171817996336106 -0.5770527370920513 0.17347361584353996
Ni 7.884157866146285 8.544321668907246 2.6535313494366455 1.4496496688088583 0.601301582337087 -1.8853310699085533
Ni 0.2818001211236206 3.925913659154481 11.757867831811025 0.8422499439938333 0.6568615789905785 0.41761914428134533
Ni 8.371611676730875 6.408383790233346 4.020379799912579 0.1409401619922089 1.0188186538229291 -1.1656283872220377
Ni 0.9057002466659498 7.405471344914517 1.5622935755113696 0.0014742705526813319 -0.20673417766888266 -0.020546970913416226
Ni 1.5135444557367685 6.303830593324325 3.8328682305303157 -0.5880303191494776 -0.6077648214639274 -1.1817330060933842
Ni 2.9795698293096304 6.667140334416193 13.658604012675262 0.5062864650117668 -1.1140955094500686 1.8697445283242056
Ni 8.414055451732116 7.13711564703727 12.695137797579415 0.17629128779799316 1.8207012497433095 -0.13906145691225727
Ni 8.166075756828377 0.5524747576878986 13.706784847596289 0.04079723652202006 -1.50095526106137 0.2725968417999628
Ni 4.138338163548483 9.493254559680382 5.322850362461618 1.1749236964810348 0.02489367791788616 1.1015523826777351
Ni 2.43382943407238 3.6685123995730833 3.5493511040185144 0.04299475839397112 -0.8461245964578913 -0.26678589154514054
Ni 3.977321006105993 5.210947784296602 3.4897335364193283 2.3543727916362482 -0.037455316632980656 -0.43548111216343066
Ni 0.7229770379824603 4.8675373598701475 0.26062216353766865 0.7108987112416402 0.8784605895864355 0.8530694032068404
Ni 9.23010502403077 5.9873389251197535 10.02019669015602 -0.20755847334239091 -0.3425380468757907 0.3189620593280636
Ni 6.91079246538565 5.538197608199572 5.623521653311621 0.4064867818136096 -0.1690042672182767 0.7748291913470139
Ni 5.9816186894226036 6.256040454240129 12.817368579086507 -1.0085465824729598 2.330524267153425 0.36669741773081366
Ni 6.330740002755853 2.2677182758865126 11.787922436196949 1.563524856263475 -3.422594421372338 0.03241441177496353
Ni 6.103360633794138 5.05962324845206 9.737774072794767 0.10408185551327882 0.9519743425048702 -0.23316794638037908
Ni 2.2103663702693352 1.1472904756831332 5.347870785562436 -1.692726389662517 1.613217338392596 0.21574358025634457
Ni 6.375501781765088 0.6349480317417268 5.3507570744240045 1.5674025940513263 0.3819250333138455 0.19668836339710644
Ni 5.005879203911844 4.6707500357397596 0.9238554522511528 -0.5034927043167134 0.5730695840745873 -0.2398535859306708
Ni 1.4308720950483826 6.253685063070715 12.107104110665636 -0.7956026764489394 0.7454448246476258 -0.8165929055473615
Ni 6.479410050139626 2.480282982135837 8.973966515826309 0.18866549309262992 0.5763775654018977 0.6284663156773369
P 0.37655601238271835 0.4025213959884092 3.179718259251611 1.1011597752250069 -1.045514675056877 1.2254296756503864
P 3.1764225809725017 0.5555573291469182 0.7790428252468147 1.0694971540144034 0.3929933753128651 1.2124458617962086
P 6.7991076674359014 7.91175893806407 4.281379573780582 -0.865371103392329 0.7547185366400679 1.026955681107767
P 2.510043162625585 5.364646404891268 1.9370428533185011 -1.1558085729181384 0.6752629643159015 -0.9830646361517715
P 6.420431803000709 2.6947450868271896 6.464046730833408 -1.4080391923569235 -0.44314839890070135 1.3933551079821873
P 3.2269045956788864 7.706213671371216 5.557652952323131 -1.5410662701496427 -0.8126956273754842 -0.20932764942767174
P 4.34346282467537 9.741879183118604 8.144604310025285 -1.4023177164921141 0.15519487213901012 0.09480505819704317
P 4.888829348298428 8.114004787761672 11.745296398783792 -0.312088729246998 -1.171593603666537 -0.8266865423379375
Ni 4.8187377674276295 8.21349202429838 0.39227450972241973 -4.749706084845259 0.7804043714419463 -0.9840244289618795
Ni 2.6053897710351075 5.671099620254762 5.720773137595455 0.37010258675762064 -1.095501291387649 0.8057639332526575
Ni 4.207354863528477 2.475151594231041 2.176101036828564 -0.3431831366589574 -0.5660363313768896 -1.5308589905993377
Ni 7.126675282210934 3.5718946276753054 1.6180668082376182 -0.43585597900434614 -0.18387424235157365 1.370562021347072
Ni 4.668020772956152 2.4281278919559397 4.4049375995180595 -0.6469846861964987 -0.12666488302011733 1.8014282604463103
Ni 5.839743758626786 1.0681044677970952 0.5734040906504122 -0.10149121196796715 1.0423388484320564 0.49848599513074143
Ni 7.921161809161019 4.594386758540877 8.215822179133838 0.854760160645702 -2.000202045617536 -0.0005034219989797781
Ni 2.134825610621677 4.927655915432352 10.19900733239698 -2.7275295918391604 2.0292603964360727 -1.4969155437743573
Ni 5.501044116539161 0.48949982299326095 10.003028505632285 1.102062489544934 -1.3994769046092093 0.15442714073505018
Ni 8.109022948502554 6.003471485272174 1.8278358894918156 -0.0336714241105162 -0.20446286513620274 -1.246479297231834
Ni 3.4863528023479895 7.360195492435766 2.6510824903636823 0.10299145066257746 -0.81311497430109 -1.0620360697506677
Ni 6.296166225233374 -0.33823604128602586 7.688035098810126 1.5481226627757918 0.890724237445137 0.40987215334607474
Ni 3.9221375558511338 2.02515971938857 10.092098744318546 -1.1310452499305295 1.6236184791212618 -0.1965425818478615
Ni 0.408646347707923 9.037794812480342 10.842048749906947 -1.3079821417323216 -1.6688362133084809 1.2284586922846972
Ni 8.495475342512956 1.5969926000246046 1.9679050203910824 -0.5660980378527606 1.5582957466540517 1.0448045363637297
Ni 5.068297069901334 7.310190164037477 6.870505929598303 0.7020155498193974 -0.40544857035708237 1.1592152846068422
Ni 2.0553965861864136 9.50746168101971 9.295678366444047 1.2650575744546537 0.23833226419013798 0.01589250286054037
Ni 8.183058874903086 8.220707746452302 5.9410751169005 -0.8198047276164399 -0.46854241349377374 1.0494456346801668
Ni 5.2493163587031395 0.23766551174719439 3.246681469390651 -0.12755165650044484 -2.086399564651226 -1.0639361149868578
Ni 9.094670031789423 8.05282069809902 8.81135199191218 0.0036905614777097734 0.8725838190906843 -0.7977348923005939
Ni 0.9332050466430796 8.37245288786281 5.038457441693569 1.5796179051705959 -0.022554488261748253 -0.8952642914073357
Ni 2.075987565338083 8.233830640110469 7.406323772194876 -0.046819788567016137 -0.160073283277234 -0.9019836124090402
Ni 1.6116016333491887 1.4820644658217337 11.206373552431346 2.017303995405145 2.179023556036551 0.4196415740280128
Ni 2.7859604138998817 8.789787077205538 12.480101799960275 -2.275866727709545 -1.8892733423857526 -0.3572750959756492
P 7.861127374712008 2.945351229820633 -0.18752745892586709 0.749612068651438 -1.438338100450781 -1.230809966125693
P 7.792764950056852 3.9875463947541663 10.728546001233186 -0.301727440617332 -0.11707955332452741 -1.4418628257745878
P 7.678061138822497 0.501987134907301 9.443996039831443 0.6703328740041359 0.7252403246752929 -0.34452808072262603
P 9.256453626041008 5.782270344734996 5.712181567901304 1.2699447273436257 -0.38146840539240107 2.1887793498717336
P 7.581125576052655 7.305040082551972 10.66957149281041 0.0016912716594938613 -1.4440544341092678 -1.5908142881070473
P 2.2110299923845274 7.324500100070707 10.285438037487038 -0.6152390183537856 0.07102338239641318 -0.7329533770488345
P 5.658743163405689 4.989849458453326 7.700196207740783 -0.14245299909230952 0.9450652740898627 -1.3571866284814302
P 2.499013950006897 3.560884108637327 11.573858504774712 0.7096129025506811 -2.137661705260312 2.3854731125854785
Ni 8.987032394063313 1.1358780446598975 5.246584291882425 -0.11658821551040566 -1.2656676972348269 -1.0942267955505993
Ni 5.751117492482379 4.259809050999729 11.740097713988439 -0.28936480528692105 3.1518192061621457 -0.007159493862916702
Ni 5.8260133235955545 7.3767393113637985 2.2056630653627893 0.8270243852933306 -1.4372950038982473 0.9367984060953802
Ni 0.6157207493028259 3.070644954527 7.300304063879183 2.4645754153352843 0.7614360578695596 -0.6032841599847545
Ni 3.387304864957958 6.400859623997715 8.000827307392258 -0.5945241544039375 0.19178346989632133 1.1446445858815189
Ni 7.4340257894484925 6.70657444292318 7.757447168022128 -0.7355100820324172 0.8655423388628706 0.2936822017153523
Ni 1.6915073440925479 1.8384949692124528 2.1516956325330923 0.038592515561217414 0.1737610651769717 0.4452145374011106
Ni 1.2197841816751198 1.1354200519325115 13.664062538242476 0.11145269405605321 0.992653051171155 -0.5231899256353248
Ni 8.155756900276655 1.7851341430767833 7.3988267116512745 -1.038837263036701 -1.5468052295159487 0.17854177439506672
Ni 3.7878522188234296 4.436024089559156 8.971942001035455 2.9192017329685984 0.1260385622900281 0.053345248390359735
Ni 0.20022413894385502 3.8674962194368536 2.402298971489429 0.13782809872578844 0.7583851868583779 -0.4359971325679008
Ni 4.3926362887320805 0.8187881818726173 12.122767461942246 1.1422267204686458 1.9611798987180675 0.7427186839657144
Ni 2.8656698420457896 0.001479596913168061 3.2877765025436894 -1.4865676248811301 1.1080369619608144 -0.32258474368231543
Ni 4.5142380312482935 2.8201509730178147 7.48875872440825 -0.4610126807756318 -1.4208160324066177 -0.6993642282394794
Ni 3.9629830297016984 5.8409681881632665 11.345895896094856 0.2670432589715852 1.1924930728233658 0.020382163200777802
Ni 7.3128353057078925 9.182716796931832 11.593133455844422 -0.8380526180830341 0.3159440984373462 -0.0015974263941069264
Ni 7.905001208637534 5.117881792733655 13.264538657920857 -0.8288912632987402 -2.8292480893265854 0.07376674946950522
Ni 1.1030895040951878 5.719142122678538 7.67096225154801 -1.5425528819974983 0.054857571269828105 -0.22581407711846918
Ni 8.750689453151324 1.7347549430643017 11.88667875372791 -0.11166660983907219 0.5171401198968191 -0.7238269892675341
Ni 7.563852707476947 2.8966637988623742 4.850754263109032 -0.7620276687069715 1.0418577950305798 -2.32096053472439
Ni 4.8612563167517076 4.418975543951964 5.6261761417723894 -0.500050511404384 -0.07700736789398996 1.035743711713042
Ni 2.755097312148265 3.639415841198528 0.5887618018824176 0.08477672742676366 -0.2885461660403676 -0.7702302591224219
Ni 0.49905598145202923 3.0696448479590344 4.5052660471867005 0.30395735838911525 0.3534762910548493 1.114896408084809
Ni -0.2091961230054471 2.57351721592517 9.553860083020075 -0.31013751905789816 -0.22206283760615303 0.5238578982366269
P 4.641447847977398 3.099451762400556 12.97585088698477 -1.6985093148928812 -1.0997567242298931 1.5752675986217
P 6.750560438332965 8.25178582438208 0.3113182197431787 3.7862857052869763 -0.3449872797472317 0.653947490667577
P 2.5026965854066963 2.8432188516135115 8.635769731059774 -2.0170522844056555 -0.6349930610522613 -0.1855151203891063
P 0.6654690409663572 8.493054523811058 13.285469860241442 0.39115915031760373 -0.9635353078695922 -0.14290757013122485
P 0.5685886242596088 0.40038565439233276 7.0043099069227335 0.21515685451493913 -0.3006162098310242 0.4493046483100843
P 2.5137631851868036 3.3147270378527787 5.790568425212005 0.2799455688555501 0.3395002884907314 -0.23483273567731172
P 6.223962269742385 5.230893834913788 2.6976220288984036 -0.32376667980555857 0.5943549758159248 0.8786853040027318
P 6.222120952042486 1.9666955457191686 3.0227538701069716 2.1534639623998912 1.7917012629665339 -0.8944973313343241
