# total energy = -340869.2763425877 ev
CRYSTAL
PRIMVEC
9.30793900736186 0.00000000000000 0.00000000000000
0.00000000000000 9.30793900736186 0.00000000000000
0.00000000000000 0.00000000000000 13.62310959816849
PRIMCOORD
 96 1
Ni 0.6597271854210869 0.3585613655245098 13.449115846158138 -1.4395624597761854 -0.7701179019142737 -0.4411732774522015
Ni 5.8202450879134435 2.205274192360462 0.6992403182146806 -0.4454726761585038 -0.7881963566825393 1.929639404907625
Ni 5.64357109353046 1.5227509329894586 6.725402153166553 0.31398054695307215 0.898858179406181 -1.262709128827135
Ni 0.44152675099067507 6.298775551283316 5.540831921979937 0.8580542580159416 0.1065503716584294 0.1609556858821873
Ni 0.4588246252418387 2.496733693235777 5.655293512187324 -0.2749712555694103 -1.743103042342856 -1.0658749838807837
Ni 8.292815370927514 7.600779397671076 10.256403336611257 1.7810746364906231 0.7594637646345372 0.554258107795039
Ni 1.6863100410078868 4.253709608821168 4.724712741741775 -0.6160028931030036 0.7522502776052334 -1.5278518283418978
Ni 8.856327319399153 6.565708632307245 2.702811467622756 0.23223489304314845 -0.04329403480194479 1.9995014200060854
Ni 6.434727311567698 9.22736039268794 5.128133720349304 0.32636940753572824 -0.5633420723741781 -0.31970407970041065
Ni 5.332890698160605 1.07996295623413 9.2773244796406 -2.0676690781212583 -0.18065779229680498 -1.2442005284999864
Ni 4.320801234737218 1.0470686990216824 4.468148705011753 1.2266938870747905 -3.185642582469494 -1.4910948233275223
Ni 1.914764101285846 1.7552446388899992 3.6456805794298988 -0.36488633266400383 -0.7534905777702379 0.654371465578873
Ni 7.3608207245140616 5.35657009554274 9.628950499650397 -0.41645443454928277 -0.04264148881961043 -1.2065567500052832
Ni 1.0367741182415562 4.853662139349042 12.743097486601606 -0.42401913427041815 0.07324430130713191 0.46310838696239603
Ni 4.27697014893829 8.362410832494426 8.843850957665264 -0.3262141129047866 -1.2537958854979052 0.19884140518436721
Ni 4.330165021595091 4.637475942966387 6.741859520505922 -0.6489037575960824 -0.027286346519778813 -0.19095583178870337
Ni 5.661172406600278 6.588299000800343 12.91562107088526 -1.2058638377033168 -1.2243323288211494 1.6154660252174564
Ni 6.886841843424009 2.9051939901383883 8.106118587589702 0.7761540808060245 1.0281255330461518 -0.6593426935412193
Ni 2.3892176872762474 3.0319215826532355 9.047625017094665 0.5800079630656333 0.6168508429255958 0.5529041648703059
Ni 6.231581538035818 4.600467576617579 0.6586502568530394 0.4168781523502627 0.4877904630901083 0.3307508244328755
Ni 3.4239347509496225 7.313154767755447 11.696475568662606 0.027406159927094737 0.48718625384720615 -0.7970656341477111
Ni 6.474109202418254 7.461476779266581 9.008186347814851 -0.3557285774241358 0.4889824265156804 -1.0950204950964884
Ni 7.660545675418989 0.8076806025390086 9.18306577151573 0.9691079168613632 -1.8657696028368576 -1.5916131298592588
Ni 3.9336095789581056 2.7753482379839904 2.8176267595206 0.9196260080811518 0.7782454161174146 -0.21920505644238378
P 5.786271109751182 5.625355456471954 7.9890684594845265 0.08395551707704897 -0.2531940117933188 1.0457535305405603
P 0.8851729197423219 7.104089144878034 12.38079153712787 0.6601847298265404 0.6834879233288551 0.26794545907088047
P 4.145486199480725 9.433131005080575 10.886390725422416 -0.3847149373541568 -1.7267148307928197 0.6682227696396685
P 8.527524366363018 5.5098346227810415 0.8438251921279661 -0.6072475155078768 -0.3003714408100698 -0.33524408431753877
P 7.373526061552825 7.402427212838804 4.316427434096548 0.09425869877526992 -0.7198554062142958 -0.748156567151834
P 5.678615484703314 1.3259997137034623 2.729907809493485 0.170970389805712 1.832305152530825 0.6842188879576088
P 2.046387669831748 0.5816279905804642 5.714063840438425 -0.05662777579637345 0.19113092391398695 -0.20623924031033514
P 6.4620647290642905 4.816625849182565 11.995707198788738 -0.08856087705954424 -0.5025707067230764 -1.2369847274778374
Ni 3.5262103871268637 2.572546858203345 5.5942343616814 -1.9645290176959584 1.847407298279586 1.8267204593541961
Ni 4.971928815110602 3.490728522810551 12.565506660205202 -1.2731742900245169 1.6658928144094407 -0.22280922885387433
Ni 5.363755824622539 8.883692660713413 0.267443156093324 -1.0118288527686574 -0.6716068556205531 0.722935073580884
Ni -0.1373051346473389 8.607842573914294 4.712846980820884 0.7383838040357864 0.043183734476325626 -0.4138038843003131
Ni 8.372575102125436 7.727888615694048 0.36308409319274076 0.17905110993131743 0.2151100604374037 -1.1707435969614162
Ni 5.958160823373781 6.560272795801283 5.898343351960144 0.5561008174307326 0.3166120710386483 0.38341164516170095
Ni 1.9573386152897323 7.923690425179346 9.367685953612993 -0.4797215700390448 -0.32985325231927065 -1.3593206441052976
Ni 8.07271053213217 6.0179736408178055 12.06218729309787 1.7057359145483075 1.106264957662056 0.5591691719434111
Ni 6.354688342193098 8.281664459738915 11.828142884522851 -0.34743651261867264 0.5245284419410903 -2.3219676358326655
Ni 7.91237197108474 1.3184882067508745 3.904955088061524 0.6878798817489638 1.1654160141009156 -0.4784447602091502
Ni 8.355699808314977 4.176956341992124 6.6415115585416675 0.4212166318246165 1.5426058467226207 1.1870713875871621
Ni 6.221119414349687 4.422797632737783 5.003114134681793 -0.38072972745416367 -0.1285135061930819 0.21708235367242612
Ni 8.62331236890215 4.658632888819215 4.223804130893078 -0.8212404316217017 0.09291555448381418 0.23551304957378794
Ni 5.819193290781297 1.430862956984569 12.017721405843961 0.5467080633619229 -1.4953119467326637 -1.2684879402924412
Ni 3.717246531730223 6.632204550113053 5.00739206354847 -1.5192738568648996 -1.7957036992577076 -0.09796108732752161
Ni 7.677616435953123 2.740266615054247 12.910226189311878 -0.6021163649288985 0.5924762707359732 -0.8805920341071415
Ni 5.104548333153317 3.9214720262119167 9.455596647188093 -0.6168055915099572 -1.400752171777207 -0.6790334871019273
Ni 9.349266472685514 6.550564615192176 8.345421981825451 0.18385418774691561 -0.3155844011050823 -0.6049669470038163
Ni 8.532606501178524 3.8273966844897305 10.815986403937064 0.1282491967881017 -0.3124129453556362 0.35892960085993664
Ni 5.245461225043311 5.200978583498805 3.0769291919698927 -0.6536785532769065 -0.025570649380252733 -0.7328075954995896
Ni 0.4265363148727785 2.0606008930245627 8.023916453139785 -0.6276867571988352 -0.02681634886189575 0.9745082619413281
Ni 0.9371791685604054 8.339085136802748 6.980126941106202 1.5444022765014112 0.5918589488669483 0.2981242966471059
Ni 1.5224437709951149 4.151378125008592 7.015083837650364 0.48498461821019695 1.0480333277136724 1.0067267556554016
Ni 6.726130964807678 6.7686682470546735 1.8573471473977015 -1.0335119941690458 -1.1640389312477308 -0.7859728666686593
P 9.42521925674142 4.43367861368893 8.772601475298506 0.06682219983087201 -0.9041945040174298 0.5596990763049522
P 7.346393418719128 2.7604555352279307 5.488723285830405 0.37201445906835284 -1.9217636017039743 0.4070835348573441
P 0.5197869731798477 2.6441062949462126 12.893361134234562 0.6867331697390302 0.02760002110545569 0.8450066808033639
P 2.4443299954128914 6.3668258949392875 6.799389100458659 -0.5232372339334924 0.12465865122336595 0.7022394929047454
P 6.304490625965954 8.97538516999463 7.448830082244919 -0.18080383095636604 -0.8735816642275794 0.2805137826541943
P 6.668794059196847 2.3348407063381837 10.100895596020324 1.4245888691854884 2.9651812850225063 3.4923643909776243
P 7.235442783186481 0.34744303212318883 -0.21154898106198658 1.0585321703624673 0.8711470866441577 1.2753586992703454
P 3.9261166878839626 2.150543509731942 7.739234062812399 0.30392624804086366 2.8882939876461484 0.7568085863998772
Ni 1.389638094167951 6.827587502333336 1.2514691827607605 -0.3697423752047245 -0.05519824243869848 -0.7041277110663938
Ni 2.618369842995897 0.6460826773147693 7.985512826701517 -1.6646350307429396 -1.0995217254009515 -0.15956446196161553
Ni 2.5371953050361475 8.491353714544237 3.808993957852852 -0.9148784660938373 0.8525356421905574 1.2604725261871323
Ni 8.225537586227013 0.7027726811496336 6.543356547058243 -0.21622720476098245 1.7733047627372172 0.4567994140252326
Ni 7.415160473695235 3.4519051083133476 2.412992956432374 -0.25905098479472805 -0.21675762334315574 0.26770326115308735
Ni 1.2114282898132487 5.863312922696124 10.39474630648191 0.018883210057748127 -0.7293823718681245 0.8625382619292241
Ni 5.160451816123876 7.813828818535736 3.6432009444210145 -0.07134888405663195 -1.0496065857380634 0.3536873786243908
Ni 6.8247951205665744 8.959971222642107 2.4912448014762467 1.5063229531311866 0.0946309945130241 -0.7369822957025695
Ni 3.8148868141746406 2.179695975376929 11.200512265922843 -2.1596325531044482 0.3095047705699056 -1.82759617709093
Ni 1.8715659553540496 9.097589104047323 11.277278563866796 -0.35464691432418277 0.8255148906273395 1.1043895950162141
Ni 4.383713595942349 8.549351483839867 6.10199547738573 -0.8858710231178937 0.7950082373980502 1.253583255266467
Ni 3.2531061423983925 5.827049191485118 13.4975869396595 0.8311859728701879 -0.6783665429418897 0.2567009965053127
Ni -0.04759614721444524 8.875548213893692 2.2636843033636516 0.8296183712727518 0.2774654827461738 0.353635699450849
Ni 3.1700979404118037 5.676753896858806 8.824424357713905 0.09837092117143058 0.2296352506367723 -0.23931699670091042
Ni 8.180803630323497 0.3279270759552946 11.530681624436847 1.4413599179962404 1.0345854297388828 -0.5060743490009607
Ni 2.6909624609924663 4.972859609032856 2.1788117211507885 0.9753479842338041 0.528323133096832 0.9380014252645458
Ni 2.5729098678330233 1.475317674711408 13.226813402912352 1.2744523854059921 2.5868897346961894 -0.360475862301134
Ni 4.035242967328992 -0.010052574360340443 2.248371812548655 -0.010064583324853634 0.05591455177943274 -1.5123079670700277
Ni 8.614897991844977 1.6322867617602794 1.1264756593230716 -0.5162505182030142 0.44263803492318604 1.283208020111435
Ni 8.082511792133502 7.749985663408353 6.682775514703021 -1.9642245990816622 -1.3715413545412056 0.09959425205557042
Ni 1.683368732213565 2.9965793374252607 1.3774465553742714 -1.1513147988128432 -0.9735795794794717 -0.39577376627147964
Ni 0.672683836818859 2.0348365172565788 10.847278764809312 0.903424715730941 -1.013525780855106 -0.5977148934270932
Ni 5.073981060746504 5.980788423623769 10.465654187479199 0.5747904234204358 0.9193742970816619 0.7086577377262634
Ni 2.6709410837247884 8.629530072302806 0.10904716196163747 1.3403561871876528 -2.353647740544766 0.4557619738996538
P 4.504400335901769 6.897592513226041 1.632838722556176 -0.10997250996610092 0.3183496225550453 -0.745189256993394
P 1.6653857936356227 6.581076039963654 3.5256882117364796 -0.5493429298816087 -0.9529894140329457 -0.17664404315172158
P 3.7097257168384123 4.41196319148275 4.443899661749199 2.398600651106372 0.14021202557693271 -0.5351537828654203
P 0.3461455053955671 0.19038831203346998 9.467462408108984 1.6192830849707016 -0.4206296489728949 0.23531121797562699
P 3.301209572300466 4.861061951030959 11.086446263132412 -0.827969008594787 -0.30210385012014424 0.2036974477250879
P 1.89027491319135 0.3982541415450985 1.9080530771063964 0.0917341325812033 0.40124301691616704 -1.045446797933419
P 3.796317475425678 3.5086276899354907 0.7608030282325434 -0.4687738127782894 0.2822904149386429 -0.21631102272404037
P 0.1643707603186333 2.9753479280586532 3.2461828972046693 -0.1772521090493657 -0.15414637626983776 -0.8943620913080405
