# total energy = -340891.2236631557 ev
CRYSTAL
PRIMVEC
9.05503503504477 0.00000000000000 0.00000000000000

0.00000000000000 9.05503503504477 0.00000000000000

0.00000000000000 0.00000000000000 13.25295907075888

PRIMCOORD
 96 1
Ni 6.442077774342207 1.9977851740983 11.489811479617103 0.8008292149552014 1.1757114824896526 -0.45754734793485075
Ni 4.737440298514102 0.185595616322519 6.099064904650373 -0.003898820833773931 0.6709401685708316 -0.16175787006850853
Ni 2.891924590472255 1.7463902415266244 4.837449536430795 0.09926720773345485 -1.3950258108163909 0.49332527686540845
Ni 3.3866916947375136 4.048533247040807 4.805284241632642 0.9797409710951772 1.962908194263084 -0.13206111433502418
Ni 5.3153416777475035 4.602737600068824 2.9003177022757596 0.5710296708264231 -1.0643117531587216 -0.9302143251199593
Ni 7.378730579342177 6.180396322179657 2.6694767933126435 -0.6167320579595443 -0.7036571991878784 -0.3892282518434781
Ni 5.085054031413791 4.822693451637408 11.52872277537934 0.42150665226120954 -0.41938472082220035 -0.6461979286291452
Ni 5.671512418581502 7.76006526202744 12.442540593491753 -0.7022230378445132 0.3636468038299479 -1.2406020125154504
Ni 1.666379953582118 6.592454738114776 0.42996203084275453 0.78009198240785 -0.02413006027898425 -0.810085957666779
Ni 2.507810012087697 1.579496894185611 0.3574918704187768 1.3311081862268237 0.23938178850057482 0.0475720933520084
Ni 0.26778182914174964 -0.31557520858945204 4.658189727993605 1.1522820478221185 0.5746497840775135 -0.7175928354323642
Ni 8.900673672014062 1.995774956361351 1.2533798140224837 -0.540046077960715 1.8344167995571892 0.6867794495959334
Ni 6.9787968550727095 0.7277160253417151 4.769753190380329 -1.1883926775017468 -0.040861256990736075 -0.5687946108483173
Ni 0.3569295527545222 7.338173078244005 2.300753057664536 2.035821080372726 -0.20484724505881496 1.0751859768690644
Ni 7.749018119509072 4.044693912263932 3.95078686233341 -0.557033613657647 -0.6682160847714492 0.10159302765315407
Ni 7.527912278514396 3.927413100872211 12.94396586488304 0.12422953410574736 -0.58287654286268 -1.5948817733082017
Ni 8.08272331887744 9.006164828029622 6.725226903129794 0.06266858267381466 -1.1942504218341046 1.020096234983772
Ni 6.815353476009973 0.5994550786895249 0.24507632925256342 0.31965085786497205 0.12890148566011994 0.7478148675416991
Ni 1.967957889298707 6.554812958238665 9.207785139528172 -0.8715147543962216 0.2075088510513781 -0.7664232266715059
Ni 0.136262880950126 4.794840164435359 1.2227004504434003 -0.18781574349782493 0.006202786376602221 1.5179055157624632
Ni 6.587927220689216 1.9491505819129284 7.072998193635893 0.7716225114842582 -0.6146990866899156 -0.09945515537454484
Ni 3.5068338971421884 4.654496179277833 0.39811185125742105 0.20215735693147766 -1.7837066747968313 -0.09154875604327459
Ni 5.809547369851992 5.574668820848762 5.061941054956304 0.6138637352728137 0.5464946617995362 -0.937437839451592
Ni 5.2320081920126364 2.920683381159416 9.470829374435814 0.21521110479164227 0.12187106117589978 -0.5774211761750636
P 0.20401627372015468 5.434542156527662 12.411555169734699 0.0018771624180548313 0.5271177999348212 -0.2446116694409465
P 3.871163224377047 6.3162490100510285 12.529837467980954 0.17341268069861748 1.2739595049299737 -0.16068597716056843
P 2.3156893376514605 8.55586699991822 1.3876379102565712 0.05128193810342781 0.05690314094494716 0.719328072955916
P 6.3974545625958825 7.789439795084477 5.695631409410948 0.5273756815818982 -0.7717333260305097 -0.28440668995069723
P 4.841410208674675 1.3603559957536286 12.784824532878071 -1.212638437422989 -0.8299040208339707 0.052036813991581346
P 4.1206294345254335 6.391650285256314 7.90273910765216 -0.04331177541375767 -1.4787707545445308 1.4653560238005214
P 4.881623618448504 1.1774352367261307 3.7733824305372154 -0.5482782360625202 -0.6305535372236689 -0.6950139216905836
P 0.36168978457575657 5.376743869072956 3.5286800742240034 0.5930110601935206 1.0848996046124024 0.17505227318456948
Ni 1.6933458473687568 1.2878704417704039 2.7627518018105572 -0.8625302915094242 0.04530875123912843 -1.6775841347044398
Ni 1.912405250487079 6.537237135592639 4.654133977883788 -1.00971874840419 -0.8281297025423674 -1.0692863235551777
Ni 6.02848905751725 5.298671358586589 9.192212290591213 -1.063723741865736 1.7704485242353443 -0.267868583086358
Ni 8.701453850254545 2.308064998306816 10.098940016415197 0.43126270320670884 0.9082625034392166 0.8306954063870146
Ni 2.4102510666017185 5.434107514854809 7.049168963921682 -0.9629627231955739 -0.9522201399670891 -0.8631743528513263
Ni 0.41220872951364645 8.995679097672024 9.066945843964287 1.006131545273564 -0.7298009474627818 0.44690246662649485
Ni 1.366522474487242 0.871829621507763 11.394947312502818 0.04564350887072784 1.0258655333673816 -0.44714132211017826
Ni 3.935544522168518 6.951305769264707 1.6067353445212682 0.03445329658186324 0.06481802491664966 -0.10084715062606503
Ni 5.812490256178607 7.726063606161481 7.862490383242411 -0.14129497422846635 1.0134285931556095 0.65145814858682
Ni 5.100655856462273 2.4890027047019183 5.422382150226092 0.4623997909311455 1.1919814232942696 -0.9627066413207096
Ni 1.0623819639077858 7.549092005031169 6.670373313008673 -0.8419390976216339 -0.5477506456938245 1.520048787357711
Ni 4.918350839804652 4.513237635600343 7.056895625160144 -0.1295784571224865 0.3638260097202895 0.5738272881762182
Ni 7.913801643729775 7.180280435545006 9.184406850549545 -0.1250736272735975 0.016740709793448588 0.1889971654004358
Ni 4.519494664682468 0.607993976554132 10.620391402883223 0.36283664922382675 -1.0703798137296727 0.019002509244431788
Ni 8.254714650839633 6.647201478824654 5.03355352069804 0.11068959063778355 0.21168740790909996 -0.5666677943133015
Ni 7.107758661422376 5.881000649862189 7.032696044520522 0.5745965622420749 0.33159800292451924 0.4530913690460262
Ni 2.568152764335568 5.162130488066534 2.459179041916266 -1.752234315220163 0.19325285535299622 1.705187241133689
Ni 2.280338481592684 5.285876594341955 11.373954119703978 -0.24878534120266182 -0.5869062328473634 0.16247777895366855
Ni 1.2060582018905246 3.1962824218881387 3.951184378363375 -1.0215321960993504 1.8783980902341455 -1.2266612340646423
Ni 3.7463486239891934 2.864994916825021 2.563572727707871 -0.7084980722199475 -0.9379991112717007 0.17996950798052877
Ni 1.331606260101319 3.517998755113621 8.261390928035366 -0.8296420254218357 -0.05671313642132813 -0.23112134826399547
Ni 3.6143896011038055 2.6298899919505123 7.289073962770771 -0.6228191446938887 -0.007384979610161475 0.34181248156367583
Ni 3.867061293589489 6.991021152121723 5.7651958091512014 1.326767906980257 0.24452219505093373 0.32883483835708527
Ni 0.6203233120074185 7.168128578774802 11.149833857607364 0.3945103261780238 0.6328567314355489 0.4948468557162574
P 0.08472796110194035 5.779040957438566 8.010843546725754 0.948074750340148 -0.1715090359180014 -1.1898497216632478
P 8.616490458246476 1.5764906226150386 8.039867649934054 -0.08640063618343184 1.0685075364076242 -0.7570844657690833
P 1.8199533446571323 3.256878715111841 10.400909129637354 0.7682692787413091 0.04167038315559275 0.04356245797198304
P 4.092640321800618 5.997529893361267 3.8015979191333087 -1.624600640528873 1.5003171132567386 -0.003659708239774342
P 7.086017522744834 4.034307787289696 10.43735473940963 -0.39068683866687554 -1.0267672192460446 0.7605027474220128
P 6.137873878518794 7.9853998042975896 10.162753563521502 0.668019909600243 -0.14163950205207862 0.8859712961411838
P 2.516539065684178 8.711206122789203 5.693881976677712 -0.8649687257475878 0.793778221645691 1.2716092595302422
P 7.070569633288822 4.044549031706314 1.7553674030780257 0.11463777665225419 -0.09968784021064123 0.42417417179104366
Ni 5.362708565053718 3.046720411252171 0.8014412135960581 -0.5972911756261133 0.39699272628024534 -1.2682729960681576
Ni 1.6277511749072353 1.186943023319808 7.262276492632362 -0.5267761003246862 -0.354105439998416 -1.6986095879161713
Ni 6.800738649760263 0.9092069943662208 9.265276461301424 0.19816957592832324 -1.0912144910868367 0.37331158061322156
Ni 2.6773927047794936 1.5472428600459174 9.34153343730014 0.3167223713642674 -0.03370099179687099 0.29148930782909155
Ni 6.476658952438639 1.884370862588008 2.4868385513725006 1.1652085260757998 0.31848974767733534 0.720985663163997
Ni 4.1022477137776585 6.949947514037037 10.348307526683707 0.860188530750125 0.41301738384327574 -0.04674394102375821
Ni 8.18111532756972 7.274054376463217 13.505162515823091 -0.9312772191668348 -0.14070182072915768 -0.10040569221327224
Ni 7.755148378103281 3.7714129604570967 8.208113819481824 0.47836685578336324 -0.21400602873994753 -0.0069106110769042274
Ni 2.9275923727508215 8.35630308683436 12.38548662990181 0.8624379889059339 -0.30811174687712095 0.23912570662571073
Ni 9.103026535832065 5.0304159511221265 10.040242563999774 0.2461939263264018 -0.8385493552137945 0.5744901185711977
Ni 8.856204395860205 2.1802260162786884 5.614827900413484 -0.35122503312682735 -0.39783527678619873 0.9817659719450059
Ni 3.8797292873462075 2.8308755455059966 11.46692397352741 -1.5348436862786987 0.005251221096610312 0.3367283821725491
Ni 1.0223043796567237 3.1827451447857125 12.445654619977052 -0.2494008632994737 0.8717286701792406 0.13740206693196336
Ni 3.2356808785253666 8.358349524710714 8.068162822836836 0.3177515839597302 0.9604083322048363 -0.40605612203409425
Ni 5.537226251739376 7.837757461050059 3.4196212344771006 -1.177036629058979 -0.0549555303002731 2.2770671757755494
Ni 2.889733272038284 8.711858085298484 3.6592210786517056 1.9080560223098948 -1.7349662721683345 -1.036191597883738
Ni 3.3895983609247238 4.5374236336876885 9.229744504545625 0.6099574582398721 -0.1442561137393193 0.13003199972013735
Ni 7.275131925610499 6.0593123961504665 11.611076506343318 0.16212939447531433 -0.21604182822305376 -1.4197006878552518
Ni 0.5949384273057855 9.14594740102638 0.29060866649794087 -0.5884509516266639 -1.7125719636335344 -0.35020944737811943
Ni 4.482477682211085 0.31339566170078714 1.5555526655287912 -0.28748147222127907 0.9747214063933988 0.048167303733846076
Ni 5.87599321558952 5.685583942740144 0.40493663102471106 0.275412456871887 -0.06672192680758188 1.1923372639717917
Ni 8.130905159320255 8.863231102904676 11.248766451880257 -1.6239303539347256 -0.32616988993041246 -0.05247570130121285
Ni 9.05856631471306 4.5450841931717365 6.04226267102929 0.18657312933997547 0.7173228696004291 0.545496559552325
Ni 7.602625371070997 8.660253441681943 2.6059294642309605 0.7012223644941408 1.0075803619049486 -0.31826477615072285
P 8.695260206416378 1.488819775186484 3.530031990927276 -0.7362281911453643 0.16861268820681283 -0.714623468391395
P 1.863508062291025 3.4496694621270607 1.4079809515531 0.24749850407043825 -1.9944286334688683 -0.188741597746204
P 4.9538013012467905 1.1173098053146864 8.182284332569001 -1.7593426441301698 -0.7645812883667606 0.3981803188304433
P 8.473040596135014 1.6465403722233116 12.294054320996098 -0.22741304617447286 0.09769163571621886 0.899745981327773
P 6.013466754699239 7.76548017286841 1.3608268575658868 1.7921722890656813 -0.6222373040484896 -0.7217222842197054
P 1.8323587424031682 3.3060203892488755 6.024264883759202 -0.2526918753459197 -0.340735189339097 1.5005204875167963
P 6.72591689678545 3.822329421424951 6.065601117854571 1.6276530542019518 0.8256653001622747 -0.5896274884332684
P 2.446036564333349 8.497353364710275 10.188397422219877 -0.4297825191167565 0.08944405099544596 -0.2436860723028835
