# total energy = -340861.70023399143 ev
CRYSTAL
PRIMVEC
9.29668876433928 0.00000000000000 0.00000000000000

0.00000000000000 9.29668876433928 0.00000000000000

0.00000000000000 0.00000000000000 13.60664373031383

PRIMCOORD
 96 1
Ni 6.646342355730032 5.92916788275341 4.053610166585686 0.18740745231581274 1.5160201258142922 3.9005995229409076
Ni 1.852383859709085 4.869363939811224 7.487640641087559 1.0681455250825151 0.6450476170747859 1.8250106757519409
Ni 4.201350357817587 3.4569272896308423 9.864749146210922 -0.4343215446376907 -0.26582661295566473 0.28532303111737956
Ni 1.8389222541600376 9.2916036262513 9.039601068836687 -0.30319219808831654 -0.009147727937539084 -0.0018241976929323422
Ni 0.8395700308882112 6.869565153270206 3.872273600952439 -1.3882632952815768 2.2175353389585033 0.9291046369955483
Ni 8.192976710399707 7.7222946473177245 10.133752558644556 1.213836057275516 0.5101125236260763 0.12713102402325846
Ni 3.88895372020389 8.498689028683456 2.6546425593054823 0.8876939352592454 -0.7365943162355314 -0.25774435016816255
Ni 1.6646558204467157 9.065470965080703 2.778014269553156 -0.7267719308284709 0.30639193597253683 0.5745942482492297
Ni 1.2515109650602114 7.001680399442519 8.861340777565443 -2.419508604903633 -0.9937424275805918 2.003007633387131
Ni 1.8000806878728004 4.985209980382135 12.791633154699163 0.4499628507193734 -0.974355795523864 -0.40115482807773495
Ni 8.419546315949313 0.3645733744807361 12.781033999667072 -0.7928510818457313 0.18949364542088012 0.8372203519897258
Ni 6.958329939031465 8.938831468679375 1.3515833135488917 0.8791912971048729 0.5769984868153482 -0.6774370891490848
Ni 4.219590461468989 5.972964584232389 3.9379128730374173 -1.1571915693085943 -1.5171817502225613 -1.3456644867744438
Ni 3.5978279068279138 0.9458916136656136 13.426614671308602 0.981883985580109 0.004979455492462392 -0.6328022240485296
Ni 5.5652118084166355 6.761240134031603 2.049568490935881 -0.15305005788186546 0.4681696035353873 1.0589222067120345
Ni 4.929011495890429 5.706149612369367 9.239210276532539 0.5181911868691527 -1.058353735803074 -0.6156113140915399
Ni 5.94923013743217 0.6055612148687519 3.4932066884530815 -0.03116305586636569 -0.9200841786644928 0.11755546451968142
Ni 0.2625217609220338 4.165520918738839 4.968602375304222 -0.9653854737044536 -0.15836761344003694 -0.8191177288517442
Ni 1.6017451265583162 -0.1322565558438228 12.878076557238325 -0.20111297482736332 0.4397208612763911 -1.2041496832256875
Ni 8.59219512579141 6.118039414752334 6.024436632079664 -1.1478576935021778 -1.1476517481389588 -2.7626426334922094
Ni 3.113795798463865 7.385670838391308 7.957818823630343 2.4052731780305416 -0.24632453836699514 -2.652154360231955
Ni 2.7340260562825263 1.0581212422485542 10.919794114097474 0.033985355806509215 1.936996873713961 0.19503951493977376
Ni 6.811200540261284 0.7666402953560216 8.270322373166563 -0.7154426218585808 0.5069009586673141 0.9625099519288713
Ni 5.986723683826718 2.8874121266925608 3.8417674459464703 -1.4669110269924672 2.073027514219694 1.0480459261191628
P 0.04680418034300979 5.339004773734717 11.375398807096968 1.6805465597668734 -3.4987407268176134 -3.993943937432025
P 4.01276702317503 4.215118754100833 7.669453197193257 -1.9530153606294043 -0.13466152807234874 0.06749197220438699
P 6.354314763529292 4.824005394594511 2.4530057437572506 -1.1914618033453737 -2.402580718800043 -3.125974220074584
P 0.8073477071085169 5.479951874376365 1.0223745437011498 -1.6041205182976501 0.7262499968867299 1.7238760757924438
P 4.943505033909051 0.208362969978298 6.989760184915594 1.2292547058234315 0.049585267127295246 -3.009968616540526
P 3.0262953623950577 8.005806472472242 0.26595502813837574 0.6330099691839615 -1.176222617798116 0.7180553768910795
P 7.299258114925567 2.2213694427489217 13.442697943131703 0.4201629937491215 -0.17214435550915516 -0.7501995657237918
P 7.511138951989334 7.889913948456758 4.603317804121481 -0.364992519224565 0.3911455234708489 0.9204577599538277
Ni 3.8452871723697224 8.594017276818768 11.752616608171115 0.5569965897721245 -0.3884170687960924 -0.9871020394459387
Ni 8.852158437924011 6.318717741673421 12.917793871621363 -0.06912102316737774 2.0151046737609812 1.2480119318262763
Ni 2.316428086905695 4.960889842180264 10.15448882326966 -0.4728369271040695 -0.18721076292397434 -0.2011649111112213
Ni 9.146547389109184 0.22252554587154283 7.408559286500255 0.6839023851584544 -1.3670990024991359 -0.40553753052646285
Ni 6.206069762089301 7.258650177744463 7.228556795726324 0.6700775634602202 0.6196916548085005 -0.3278123106298419
Ni -0.27930228441376737 1.4590874351562932 9.203643004081195 2.5862585288700943 1.6989353466867063 0.4438014591036679
Ni 7.077950435301901 5.118068961667655 11.025082834736411 -0.05500103882622786 -0.14850923258871843 -0.2946165406041636
Ni 3.1758976804166514 5.831924516701591 5.9818206100929014 0.808883966938878 0.19855626984378064 -0.6941222631142497
Ni 1.3609329935907954 7.267454142147051 6.461182991614901 0.8273313750107881 0.8504821020956386 -1.829711680772036
Ni 6.320363255611391 8.627810741025112 11.528854602673864 -0.19302788382638367 -1.292845286090883 0.7334997364706077
Ni 5.279812755412353 2.271153211889217 11.945367648454306 1.6303547694038307 -0.8021484479872573 0.39634943626929164
Ni 0.6630686731597024 1.3038792137189013 0.934512466433546 0.2225631742813393 0.46225246672000386 -0.7211548417520097
Ni 2.6788223175047348 0.3638259206919631 6.574948433206615 0.906998034904496 -2.132758097311108 -0.7799973658115148
Ni 7.4125847528004885 1.110294260440027 10.596119663160884 -1.5215693377672956 -0.3576448206102421 1.9589664360065167
Ni 4.717046988626425 3.3847663902719303 1.7866069966281637 0.5335255032333779 0.42435183501948853 1.4610522542188449
Ni 9.080847688546257 4.888264108375599 9.25287176089326 0.7056148371348815 0.03437667770765693 1.435733315838082
Ni 3.3320727575012126 1.1178431718390784 4.282569021186469 0.20562551798573622 -0.42562735929780243 0.14631531026119315
Ni 1.8814546059465644 3.597846500205744 1.3191899306931596 0.6499203717860549 0.40743886131423374 -1.53749012276261
Ni 8.924272853838348 3.775310994905856 0.09267218411227023 0.6122863634833648 -0.154424826742205 0.21838101787919165
Ni 5.269744441317314 7.87043738517965 0.12063104635550544 -0.8789483278561314 0.5473531531450896 -1.2006758657444743
Ni 3.1201082502372093 1.570731372337583 1.9136657736995608 1.0485586040895232 -0.4003289897423299 -0.06722689146845842
Ni 3.753566039533465 6.371113880398855 11.94310948271683 0.4309292311266901 -1.7124719477205603 0.4344873807915936
Ni 7.4427803983966925 4.885995716280317 7.720994970207395 1.3706278415880009 2.878867552125926 -0.5722324328852725
Ni 1.640242715355695 5.0663793712997665 3.364991403280647 1.708043993856194 -3.214933103903496 -0.5142419724134176
P 3.5417967627366793 7.079753992951427 9.946742223766432 -1.5307283785587444 1.0973499145606134 1.4007447155780393
P 1.8025350137463838 2.7619626064723652 9.91048048865313 -0.7037099068026849 0.4062152733197778 0.14686758322023738
P 0.9665488564349388 1.6181537824934462 6.201581320681097 -2.326231553315342 0.21191855008329952 -2.2448761928653016
P 3.755007026315304 3.503252690494725 4.065351884685442 0.2258855537863529 -0.18388915474990913 -0.506874733415069
P 1.8334372077001357 2.4502725172162148 12.723626945616404 -0.7963058731635512 -0.2597351553459462 0.7216842318929184
P 6.934084174340916 6.4306777662778245 9.072379334613505 -0.4418343080749681 0.44091976668049865 0.9923856564423812
P 7.023992452838731 3.5621472147718065 5.978459857050097 0.6615605271281446 -0.771814058669774 -1.415336497349285
P 7.37467285540476 2.936396380586159 9.510921814447137 1.1790798847412534 0.7775915845834995 0.04154594176258652
Ni 5.523330224854165 5.128286022785336 6.342260676681989 -0.9427538523478667 0.5292975811949595 -1.7613000249668571
Ni 4.529021455318774 5.50165034630418 0.35554721921307736 -0.05087364692141561 -0.21274181731554329 -0.12936171312599012
Ni 2.0216393780971744 2.1509842109727915 7.845767691474572 -0.19010222553915646 1.79642875034919 2.4475919934034103
Ni 6.630147523639948 4.4539599890183545 0.013880886219117672 -0.43781207428945246 -1.1101969457266105 0.37100067309185786
Ni 1.6900543745627359 2.544522349437375 3.2327209024034516 -1.2141913837324059 0.5363382900918247 2.7339015568037754
Ni 3.761096357554687 3.3048613490467504 13.36382018603164 -1.2107183375821406 0.4975033195024981 -0.5308487277321632
Ni 5.039205149600965 7.7001034508774095 5.096218953710524 0.2675734204434424 1.466559042969687 0.7194987942058254
Ni 0.34147575087120036 9.120470176702362 4.970140047650777 -0.18866420754104926 0.6984419735355262 0.11066053717206102
Ni 2.6867802832160494 6.20062190238506 1.6782708213628619 0.8549473369558438 1.6122660302229204 -0.49398785015007185
Ni 4.724865504004014 2.2182457552734522 5.9550294119774 0.4327043207492419 0.4379347159102458 -0.17620515584209007
Ni 2.2622097971529023 3.251805145408344 5.715607134002686 1.0488139146334388 0.06163499920297772 -0.7318058937079526
Ni 4.264465578862119 1.7635911838810807 8.338205865955644 0.23692921319502422 -1.176264012559013 0.32211937401012264
Ni 7.775499597978772 6.589102642079836 1.1773689412934945 -0.7775902990319189 0.09198790046322224 1.8301140584167772
Ni 4.8594164826720805 8.587714121734336 8.76005242216667 0.5788082863305773 -0.40840945275761914 3.4583399544030637
Ni 5.986416893092521 3.4631653678928664 7.953845418788035 -2.0344259997974126 -3.540794204344237 0.9413950243271271
Ni 7.540972026717851 2.8347184939218426 2.050630172809984 -0.5198300080241564 -0.6223838569286829 -1.3693291773812355
Ni 0.6192654639984829 7.881342401277047 0.9296865552177239 -0.09772094629225751 -0.7627861441395508 0.4941192335216135
Ni 8.419992557017238 4.912351829354591 2.9183803271376094 2.3666855475653303 0.05669256759603784 -0.5295472353119203
Ni 7.936518249988094 1.9798693548016844 4.483851632887037 0.9771966074067688 -0.02486591000374427 1.5424019582419306
Ni 1.4837701442258513 6.896460474301556 11.321490097085048 -0.28339958884242156 2.4285172361601464 -0.1560839596121828
Ni 9.299756822429831 3.8030709080063083 7.16836073500113 -0.6228188875835725 -2.7579886796599666 -0.48095081446045557
Ni 7.273264572718981 0.21930238382468187 6.126881495579474 -1.462150115268714 -0.7575644907292953 -1.8703004008276758
Ni 8.600236761702961 8.452298550997169 2.8570686637426053 -0.22830213364764554 0.5648538810330144 -0.06995663169479566
Ni 9.001983876479567 3.0188208245073276 11.413810866356329 0.4207643747785463 0.3557715148469292 -0.7473240439482097
P 5.108121504528511 0.6515156778449227 1.4234457891936294 -0.4514684887306225 0.3655936431436736 0.4188383614004271
P 5.077321574152825 0.8011970177222947 10.4334657235714 -0.24360559677393528 -0.16874252891645777 -0.7618530908023202
P 4.756892597316492 4.334051295391551 11.724858554408446 0.21599606258678283 1.6249659942880916 0.4861518990454208
P 9.112112453367697 1.5739666200800337 2.8152688910425874 0.3655936431436736 -1.3146523546636455 0.5550271247505797
P 0.39839008040936824 9.070444693650273 11.17574869396989 -0.0790897043443154 -0.21892583463906815 -2.493040612654513
P 6.638728367508574 6.43083580998938 12.746377802729407 -0.6757905546845975 1.6420185788950044 0.40064574965180033
P 2.644805732764428 7.909093017688585 4.527107267071156 0.47527381868033625 0.19660377410310012 0.4945236680488838
P 8.92347333859165 7.30861988066306 7.560477409730597 -1.3376197620930963 1.6949624780818873 2.4523570188922217
