# total energy = -340896.0687497827 ev
CRYSTAL
PRIMVEC
9.04536520544243 0.00000000000000 0.00000000000000

0.00000000000000 9.04536520544243 0.00000000000000

0.00000000000000 0.00000000000000 13.23880629769886

PRIMCOORD
 96 1
Ni 6.077598965918008 2.060516100916786 11.389159521435172 1.0942159969173222 -0.11427987909220318 0.36951123303052485
Ni 4.605529097826539 0.43834292008041287 5.989394896282322 -0.16360649324147308 -1.1400646798203204 0.13078584716702638
Ni 2.7749280894614996 1.6273516524110787 4.779394584941316 -0.13117691195785794 -0.16927063350578592 0.44312474475161745
Ni 3.497553269604175 4.414445758061189 5.04843359557529 0.29532462241478175 -0.2046191882084089 -1.2922063669553034
Ni 4.921746019713253 4.631742566164526 2.6404008955840954 0.7634248061648142 -0.035449599056861535 -0.12436503124234712
Ni 7.263980019659238 6.102003361216796 2.582970967418217 -0.014889258407006617 0.5018988774670324 -0.32752357574482954
Ni 5.170041294343258 4.515518668761213 11.533343547195818 0.02403004436601023 -0.06800130774063773 -0.10387539592942757
Ni 5.622372871699274 7.697886188111016 12.212216295885476 -0.053631155061894725 -0.001658361539029402 2.0646981684183925
Ni 1.699506530579514 6.688170162012723 0.4014866750528203 0.19967007173324966 0.3526242274671991 0.06756807685796104
Ni 2.6098773107302176 1.6187766462052777 0.4204032472872003 0.9039931866399012 -0.25135233059888973 -0.9332595397041863
Ni 0.5365330728924744 -0.020353880764023176 4.691820072723272 0.5189501765223643 0.3511640979819049 0.8819081818154038
Ni 8.69854780364812 2.367398205921236 1.4573675315019023 -0.24198940132675095 0.502451921757025 0.04822309667244598
Ni 6.929482414711421 0.7402138927662834 4.953007706367124 -0.6909045275079004 -0.3922948065839437 0.45774480865763745
Ni 1.0215654545050437 7.766106332419194 2.7527316678070526 -0.7511714427187579 -1.4369175659541704 -0.9082157093616811
Ni 7.6193091006534255 3.9736832027908475 3.776237353146637 1.1833427737826652 -0.7851711967029703 -0.7997750626590743
Ni 7.629023822873922 3.725785924229467 12.497684403324934 0.04826706253650397 0.2008260397145638 0.5841407542870843
Ni 7.87047175605056 8.753570760135345 7.092319792579244 0.05552400120923341 0.11749992869139764 -0.5417676886375121
Ni 6.813801239219868 0.8068040622661437 0.45454136007339696 -0.07098404451804549 -1.1251376261968429 -0.6863781003924565
Ni 1.8524998375045378 6.458327432382544 9.177775774414421 -0.0692565203039775 0.2716007964352806 -0.09931194492846122
Ni 9.180683859324933 4.948628845075744 1.4248268302093179 -0.5746585258282619 -0.4859840060089888 -0.25284382754275164
Ni 6.177939202037157 2.121879858406402 6.997517129033081 0.8128961734220645 -0.36771737435489577 -0.28031169394571726
Ni 3.223786246582254 4.274224506792907 0.41559654022204967 1.0395214335879195 0.20807937884286745 -0.7403758947651506
Ni 6.106652678927537 5.716254717068484 4.690495831258578 -1.0108407778237753 0.2911324387103051 0.6327757416859683
Ni 5.17488961008831 2.9742065300944187 9.226030988662004 0.06734233400040016 -0.6512516890029688 -0.4055434440637338
P 0.12717512104610107 5.643575207718682 12.482526180329488 0.29898484487518834 -1.0803302400741652 -0.1752193948900531
P 4.0088787187684565 6.101578229052584 12.626789805303858 -0.3673563914710512 -0.1631794330063835 0.05046741262193243
P 2.3517768602277567 8.681768651209554 1.2311836520935024 0.4369756944310862 -1.2875650115285502 0.5241090950154844
P 6.31930921468533 7.775558739049007 5.743430612263325 -0.28795558364422025 -0.359246103659091 1.3671190571037939
P 4.537706949586984 0.8920593428479353 12.7313895038938 0.8980323410707759 0.7610611910286441 -1.5426976351054786
P 4.129127803683986 6.04167982072472 8.068112081046484 -0.3196778544481656 0.721901232999731 0.6720531991293522
P 4.795725991802681 1.0548162169655135 3.8390022377051114 -0.10986323808174626 0.875734448904524 0.13235139188193334
P 0.21439324587542322 5.663655918453785 3.573683585776249 0.3819556294414648 -0.08217091437280043 -0.43668593110480924
Ni 1.576570972200775 1.157119297332193 2.570975908631811 -0.9728409015412344 0.7581913256800168 1.0842390882102682
Ni 1.979125904883242 6.4487755267355755 4.700067636708978 -0.5418265668999056 0.3053642660389709 -0.08997524090856762
Ni 6.18192820808859 5.572143958765925 9.10967593346335 -0.7194517430179739 -0.11319898732319858 0.5845562445579481
Ni 8.687503412743812 2.310882764176673 10.241275541968088 -0.34890204142060555 0.6375135134812698 0.3511275883170147
Ni 2.263928273444274 5.322482833991326 7.009577314448898 0.2454933007149514 -0.5510673687718832 0.4531793007741421
Ni 0.609912693508447 9.255398575843834 9.406727535572793 -0.8056993985633091 -0.6061470833548463 -1.4014592251465607
Ni 1.3206504547105482 0.9558961031821355 11.443941871208182 0.5267704438977315 0.7762893208323083 0.9106045213088316
Ni 3.9701555103644104 6.801318635249398 1.514598461633469 0.6603333395892628 1.22836818945342 -0.09466184775095955
Ni 5.714047647960662 7.698935450473751 8.113138099919098 -0.6017366129919766 1.0811403946802862 -0.6769262109509374
Ni 5.558901544118992 2.9749030232145097 4.732899598760873 -0.957172598876358 -0.24089822514510123 -0.3629940007372975
Ni 0.7499240923041816 7.321418088653792 6.86894178545464 -0.33339957490963223 -0.016375356034229863 0.08992716127945158
Ni 5.0063473203913755 4.499653098207442 6.859382643515515 1.4502587631477668 0.5464848916075234 0.2649326403864856
Ni 8.318298741538971 7.317718534288631 9.050550903859742 -0.5667392709811853 -0.7760370956121861 0.28886138328794125
Ni 4.916418299612814 0.1740183537865894 10.48264568500404 -1.2058234713836846 0.15089958719776592 -0.8775632745831466
Ni 8.173663352055046 7.1799847584492476 4.768777135274259 0.16619405146299118 -0.3928828178769298 0.21928090398564173
Ni 7.281980296399263 6.010283358129429 6.998205481324496 0.27247008641411136 0.41181025090905204 -0.609491317236731
Ni 2.374833496112342 5.278359542565273 2.4595849498527174 -0.33641496469718835 0.10036558300395618 0.9868868381113391
Ni 2.1383062416023244 5.414401835113005 11.466302013972678 0.2315743766410141 -1.0690677797864685 0.17806509186896433
Ni 1.3103387383871163 3.4466640450115187 3.844708054070744 -0.9499187455274221 -0.030716969467882577 0.1964613349879649
Ni 3.6463947539042376 2.7062375861631294 2.6395271133061624 0.05438474539846763 -0.531700019988865 0.205729133443136
Ni 1.0034204519218821 3.3204269283362424 8.274518269453846 0.9306498699954812 -0.390423814813476 -1.0030390223911694
Ni 3.7496114161557124 2.592654935397047 7.073732471637998 -0.989737934406889 -0.2494263172207704 0.1302986231179627
Ni 3.920686408107526 6.96408998195129 6.011715239439954 1.3114243346446512 0.07455299281622645 -0.09004980290024492
Ni 0.7266286587784216 7.396033306155538 11.214513419303982 -0.3264141447307346 0.36810818203541124 0.3736064861458211
P 0.14461187153441654 5.4591311660071895 8.004473414210077 0.518393789798262 0.8663036425089273 -0.6050942166102998
P 8.592083855291284 1.576634289757147 8.000872454325552 -0.15458192114535957 0.22787790162603339 -0.05204941239707165
P 1.8569772932765543 3.2006934292368845 10.389616817572813 -1.2853703178700768 -1.46552880193296e-05 0.4286278366870231
P 4.067474594508098 6.216336777294146 3.8134119950291283 -0.5530149794165573 0.6439890939032845 -0.3755265859866694
P 6.901342283586687 3.8255834384368566 10.193748479618783 0.5210456255988124 0.3349584347563199 1.4312991913261286
P 6.419477588865755 7.598097719268823 10.232630886450277 0.44390790277454517 -0.3688293764721519 -0.9085368401465257
P 2.274212853672118 8.44710474192991 5.8067526913178735 1.4518315069515253 0.21390061351033482 -0.18641140695113056
P 6.749398239024398 3.726744732940242 1.6690164135768613 1.193443352551777 0.735351959187998 -0.042594694742075036
Ni 5.25883964447232 2.7224287898639568 0.5429299551590806 -0.8962140569151147 0.6552487259775037 -0.26450352326886706
Ni 1.5174323745493734 0.9849407708264686 7.05785876025555 -0.2138635896248123 0.8404041490343461 0.07373563912125365
Ni 6.993487418838266 0.7220815536943959 9.180648582400668 -1.0203559164030618 -0.05295084116541848 0.020878129000589853
Ni 2.7619118089444656 1.4461729875353415 9.304537522271065 0.7064139359974092 0.2312128795365373 -0.3437973732041885
Ni 6.6548289459002925 1.6660386793543402 2.675906667587926 -1.1397088391427983 2.0983184275759994 0.233763670982849
Ni 4.119991984836033 6.601904514138539 10.483334037295455 0.11537594036985936 0.6988649200055577 -0.9900881186574563
Ni 8.034898404583318 7.268339885683706 0.1586801280237443 -0.45296127122606505 0.08023513080266827 0.5931594128459269
Ni 7.576832065693043 3.7178531389525813 8.037981065042112 0.7949161919048762 -0.1620463478432048 0.39051843140981135
Ni 3.0486408402922436 8.34315540509756 12.212891080129097 0.3572550413709912 -0.5397858823207929 0.8073454188071645
Ni 0.0823037779183392 4.782031308895948 10.010284955494537 -0.3138666470830272 0.09093400527741113 1.493802966287305
Ni 8.575169022374778 2.2985177499537506 5.850771056507654 0.6007025153005073 0.9530778599816939 0.6712656702310503
Ni 3.686076771019058 2.7058576808248977 11.33792566842855 -0.46813077987765184 -0.7202580409693531 1.0565652764440836
Ni 1.104077275822891 3.2769639485694966 12.69741873036373 -0.6126393759474094 0.4559396371280986 -0.939765202033188
Ni 3.1592566112740412 8.313359972141958 8.057454831772567 0.6494637438646106 -0.19001866468641468 -0.5748230764305843
Ni 5.653751243564174 8.027833974365247 3.653235763601967 -0.983481411974216 -0.5464838631662589 -0.05093509628697035
Ni 3.1874419692247544 8.540570500500104 3.4916556914963874 0.3326233588652401 -0.8181504798424684 0.4868882629908131
Ni 3.3362382266988377 4.439781825975165 9.358154829006832 0.2064127897737219 -0.06833760803413391 -0.014333385903536604
Ni 7.278687783467922 5.873246075410137 11.448919535675538 -0.1596768191697637 0.5178651709883016 -0.8144414064219972
Ni 0.3569310151703986 0.15314888720639463 0.39449370321979826 0.13008136490083405 -0.15859901272455268 0.31153439940542477
Ni 4.7226937132102345 0.4565440039277898 1.6750270587495986 -0.7932521739388919 -0.7442484903466795 -0.22788844314899462
Ni 5.99549418603398 5.47775557294574 0.4908693557735436 -0.0866520900726056 0.4876493095265538 -0.3191096406495214
Ni 7.8018717064041505 8.873087170469999 11.382593490839401 0.21985683109376972 0.03911444950295844 0.1621239951586756
Ni 0.24056691460654822 4.83462106214545 5.726630655484807 -0.547547785654399 -0.16126447537185776 0.11699007893451466
Ni 7.771298372041694 8.733435777209065 2.8297420980126966 1.488864391335107 -1.0827686743123288 -1.1672332698153123
P 8.565056304085656 1.5991934305559532 3.7998285701143057 0.5692149862151874 0.9621834218273881 -1.9175197388259555
P 1.7461715696256412 3.2792252898684944 1.6533019006218628 -0.3468855252112091 -0.222052810303824 -0.12003709329095455
P 4.770778874592132 0.9954876666449963 8.214348500170102 0.0805320932177968 -0.664986522090558 0.7713150075461683
P 8.339338260984851 1.681632888952232 12.410255521486544 0.6675164876012634 0.0023916401606281393 0.06213636431942847
P 6.229859598262156 7.79130671985523 1.4082113988807985 0.45145511899418383 -0.5916846280726134 -0.08188192237747188
P 1.952396850729083 3.2699537905426017 6.07262763320629 -1.0565367371989933 -0.3915640990655063 -0.03619804718711185
P 7.083506893268788 4.081422547640319 5.88863405068156 -0.6835861394696162 -0.07159750973232831 0.4834226730397158
P 2.4800491840721315 8.397038645570088 10.123860369968464 -0.088946285423421 -0.005638943453332224 0.5495753576073891
