# total energy = -340858.8213056335 ev
CRYSTAL
PRIMVEC
9.29182490808781 0.00000000000000 0.00000000000000

0.00000000000000 9.29182490808781 0.00000000000000

0.00000000000000 0.00000000000000 13.59952498504206

PRIMCOORD
 96 1
Ni 8.89542618388602 0.9769982018186655 10.527324271214756 -0.05207460920805225 0.24140087581313263 -1.3598870581317288
Ni 8.391140272780483 7.839466055612187 6.781362303375867 0.08609313224534205 -1.761329849763528 1.050979040605558
Ni 9.149009372270106 8.062525599797024 11.64574869115661 -0.5284396040700383 1.091161012141082 -1.799359807953056
Ni 0.4636007273944744 4.317539273553546 2.5557990859777844 0.7834716975133603 -0.6452049685882565 0.028193945935712734
Ni 5.130072177860272 2.7133150277829907 1.5355771739350488 -0.610431312552497 -0.7147443102399754 -2.6689662895829716
Ni 8.605865050193106 7.302380003251445 0.1370283974840719 0.0665918289876208 -0.05173393803918187 2.172224530836846
Ni 2.905321293759641 1.0265236275666112 5.019924100103448 -1.4322713254314108 -0.9128861182541569 -1.4960123152337979
Ni 4.058892040698046 6.9796377634898805 7.781307595518572 -0.26597008051206456 0.7922720694138098 -0.31296804652815774
Ni 5.219106442309955 8.802275641086178 0.6924044776200957 -0.4814863752489515 0.19123531070233515 0.5379945947483251
Ni 5.937150781057421 3.3922779517657546 7.525976614904994 -0.2860488535398106 -0.659999867509244 0.6512267493023043
Ni 0.7630762380616951 6.958015687370656 4.860238517226544 -2.714697987292131 -1.3830359854443666 0.4771093292271783
Ni 9.066302840453508 3.023996479060347 9.067509848484402 -0.31004933021946607 0.5432388738663999 2.7036296452931117
Ni 2.599722470603134 5.865009053945404 6.021107992481086 -0.8317256474237418 -0.29569614682158757 0.06573153786985454
Ni 1.4088636310706384 1.7245255003969437 8.214384678713797 1.007899178696948 -0.9264057500071465 -0.30717303711293553
Ni 6.715861443389941 8.608345967392863 10.804265248575426 0.3067480337603749 -0.07457459008278124 -0.3397836240591051
Ni 8.830476329105881 1.2060509729467341 12.748615808972804 -1.4747930008437051 -1.7469275582952688 1.8535342371129304
Ni 4.422704145714005 6.852943733457377 5.368670440521336 2.321765032903556 2.192436487008347 -0.8869588568654337
Ni 1.5210809981922029 6.961723125433212 2.1649087453680798 -0.013989372300556554 -1.1110099285462092 0.05951949552187169
Ni 3.734876820950089 0.6094749420102619 2.838261265586002 -0.13164613828479263 -1.1021715043189726 -1.6938471335305216
Ni 3.188080811758841 0.10126881005612282 8.368467291285631 0.9166450710759568 -0.8627346942107466 -0.4915941531069147
Ni 7.311262987682034 1.4473317854039396 3.6475689775330444 -1.2230822584641323 -2.2364162350234063 -2.9557396799936324
Ni 3.9030030974009944 7.0547621663364355 2.774194134154091 1.414425041278609 2.1437981571753535 1.070278255154802
Ni 1.7142859095574996 7.576656085282938 12.67804811696805 2.1045523243008533 0.10599269938274648 1.0771551847802934
Ni 6.535767296702008 1.5401199470397715 0.19855607322050178 2.284593566059582 -1.8280728596170326 2.731775254489392
P 7.665876186226986 3.4851961989476417 3.2745477450388885 0.5176872506495407 0.14457133098689295 -0.49926452516797887
P 6.802321872392685 1.1308057763788424 11.812547165855289 0.38205256003064525 1.4129607980282568 -1.2646438839560026
P 7.623821387552463 6.63004215029275 11.99433242464193 -1.7911019388196376 -0.8875322128704005 -0.75615424064533
P 7.614483103710684 9.228222177992665 1.5492575274676381 -0.8074361787487577 0.49647050736260956 -1.1801512634285611
P 2.4905156546902627 5.114759250724696 3.4524164997068154 -0.3601480466480701 0.30674469132626525 0.1211688929025526
P 6.73114649505136 1.2783785365531148 7.223563958444354 0.26102456358133114 0.9025189160872198 0.15645779801183377
P 3.076262993100158 8.19320582263363 1.1116032914162337 0.13019037967487254 0.2820235344305014 -0.4220380992846473
P 0.20056868245446147 8.077745608685417 9.465133045284905 0.3241670005677708 -0.21255027013002753 -0.6842996205968731
Ni 1.9881252758272379 -0.01736177448593552 10.188627968412062 -2.031655636141127 -0.029520120946303994 0.8923478890914889
Ni 5.29833783168195 9.170101814380395 4.384024137777129 -2.332101638942874 0.933650861605334 1.2137987762796774
Ni 4.076146959199722 5.389314087497736 1.5267778159269243 0.3023779297171373 -3.476151528663187 -1.4540246579481024
Ni 3.1893073326216412 0.9794512435442673 0.3012957791295139 -0.16202680745917905 1.9260874258903087 2.2121661042267897
Ni 0.7053024595114135 3.178658901494597 11.421166216900463 -2.747370794934804 -1.525810886652469 -0.7259082972765949
Ni 9.0047909608191 1.741733959775029 1.8601025148600345 -0.47000974206791957 -0.2252764594474443 0.8153299796745378
Ni 9.198637008089952 2.436650946798923 4.5638785553873324 0.9501082358304088 -0.667054203252864 -0.37910633291812773
Ni 5.233360101427657 1.2680181519923346 8.785048598058657 0.1276861251957801 -1.2331681819452247 0.788851730878351
Ni 3.1379514174042122 2.8620028069234453 2.6328403922637023 -1.7536329953399026 1.6367503885175296 0.07562205751068911
Ni 0.8653513527347978 4.494725079104685 5.1879054240887506 0.714429350102718 1.0409162570529171 -3.1383229714479244
Ni 7.000144820642922 4.473614053344961 1.35963833126109 0.8874764199318006 -1.9844890057576532 1.0731267803471907
Ni 7.674099451102583 3.3491824687227956 12.087896453641731 -0.4074386042039177 -0.9907926009236485 1.9589134712813943
Ni 8.856781484883072 1.4326507023492012 6.800061171438751 -0.010207793770937258 -2.5108354747440886 -0.6575274947093515
Ni 6.770311536238526 2.515705791501272 5.493568360835813 -0.8954452970698902 0.3468161054258543 0.0003710101861735546
Ni 5.642795065809922 5.688715263567211 11.027963141118402 -0.07555135217375375 -0.22834121441569705 0.1435392901779528
Ni 7.841408046978287 9.286844300139718 8.635303409265271 -0.11594415416850355 -0.18197419711538337 0.4085017553611094
Ni 1.516565171379163 5.050664243818631 7.941034062424236 0.7750338511586523 -0.006032836457641222 0.34241309126215225
Ni 3.974875361596184 5.043648916156399 9.110131448466733 0.0866276645925734 -1.6627455270297105 0.133500417884712
Ni 8.309381507085142 6.146439841009903 2.352500465421119 0.18579408508210582 0.2633974346888819 0.465827842776088
Ni 1.080053829768096 -0.12951688638188819 1.0181451892182203 0.0005970101540505847 0.36771814568584416 -0.43993709105225526
Ni 6.7733035037977825 8.017218662471135 3.2709982679965406 1.4290301927862938 1.536530329952502 -0.411828248631181
Ni 8.512714507393264 5.91571454143256 8.466669799184752 -0.057884788131926115 0.5011781972509239 -0.29287538954334075
Ni 1.3935971630586543 8.287675804543452 7.200322317276748 0.30748825436050914 -0.041800223865237685 0.15107853597779142
Ni 7.461205163159444 4.7142630217213295 5.066380436146976 -0.45266610858314943 0.9717044739439458 -0.05425181936502915
P 1.5456114154482208 1.081289642455615 12.180495991235786 0.36729108545075456 -0.08588898665433595 -0.5784457607848361
P 3.808077816079979 3.824673015026664 7.234212389571398 -1.2843809573736138 0.8623202323811472 -0.8528896830958667
P 1.7012123121790084 4.62094522607656 10.015288049111778 -1.8657611181964255 1.5022783507481676 -1.793623162579595
P 4.473028668387714 8.539697966374884 9.886364910329382 0.42008534643365075 -0.46376967469547875 0.642408636790042
P 4.50460228878012 2.7552676163856127 10.146877012405824 1.2248491205565681 0.617335238761182 0.8081262628372469
P 1.6147797586504173 1.2830523243863639 2.9733727596307116 -0.7834477862539604 -0.06050371381201193 -0.09825984951486304
P 8.941857432002807 5.613284230504956 6.367120678066883 0.07093750755082621 1.3437713835167888 1.4321173163520495
P 0.2536045595809387 -0.2699646753622535 5.307771821318327 0.06211348150129303 0.4703355008384545 -0.30160916987191283
Ni 0.7348197990936833 2.79611447784677 0.06537170362234454 2.300631850469367 1.6906803057667656 1.6056791210340218
Ni 4.460847086182169 4.58427039391387 5.21688662538478 -0.5497501926223564 -0.8066841310740818 1.944321432399832
Ni 2.592484139147665 6.967075216470889 9.583571289055296 -0.8649018770653945 0.18765324977803166 0.9123929806678222
Ni 6.8428435199887065 2.70618819822414 9.819822436792546 -0.0770418206763512 0.18842278095420453 0.9118479067976297
Ni 2.6111607068312246 4.335453911610213 11.802143109718331 2.966710062962207 1.2853196671377993 2.6912680384039653
Ni 5.344220862140366 2.8423227221703216 12.591745648985514 -2.5865428928797325 0.9253042894128515 -1.8665825856564564
Ni 6.193140552043518 6.648718717976309 1.2577218810221096 0.11995996019611599 1.6571351228214688 -1.2650614311093955
Ni 7.298142931179951 9.24891507164007 5.407212000269911 1.0260267415355941 0.5136755583869863 -0.2954477782562073
Ni 6.23657983260105 7.06233500348176 9.109111206112676 -0.22691836592624146 1.2197071713443122 0.19616180146967507
Ni 8.13447219858996 4.907700228704581 10.577547512999038 -1.8958898192610059 0.2757266456781961 -2.4141409128338167
Ni 2.4248689130562595 2.630496994069775 10.217376874090137 1.4313313301156445 -2.210022575521226 -1.3142818586981042
Ni 3.877385536652948 1.6855555875288604 6.8901035988703585 1.3111811082855933 0.7333488127150403 0.2660397574077354
Ni 5.823186550888837 5.090916428497825 13.254069702445417 -1.1990534996497026 0.2068313653683793 -1.5000373772327908
Ni 4.903351654736468 7.738872761213075 12.071862480908026 1.6312471993111133 0.826045566319829 0.11711426321720475
Ni 2.459787590347213 7.952547562432542 4.1448088979547775 1.135331278900393 2.5701001739426768 1.1666221185938745
Ni 1.9262045559052288 5.472290082231161 0.3801164698489647 -0.012519986843881663 -1.0703553882496404 -0.7173560368312097
Ni 5.288349120109897 3.837895281600647 3.3581174873718056 2.6963678215243756 2.3409068959393298 -0.338987610520371
Ni 5.914199974003496 8.65001050942922 7.258011540222094 -1.5918859239046712 -1.4044000529424394 -0.21024321926340564
Ni 6.068723019066972 5.691140429818657 7.223944923257799 -0.16255208383502973 0.5411333974876229 -2.445251261085376
Ni 9.040508735035816 8.367130197708684 2.873321178612671 1.0146125861613817 1.0534642689212566 1.2094081034111495
Ni 0.24270246163908796 5.26714517610299 12.13946608082768 1.5760070478908856 2.408764993233884 1.381359883293524
Ni 3.5379830551716713 0.2717068924969139 11.913768587605349 0.9443147690770832 -0.19567226342776625 -2.185563671147913
Ni 9.26953363068973 3.4897306094101173 7.027744327603358 -1.4427192602376122 2.2484708521950956 -1.2426555526103693
Ni 1.9324207866416967 2.812049957238463 6.0541144122450365 1.3124910853462686 -0.3334126875357548 1.0705399934566209
P 5.9052240713257245 6.254931186419474 3.2636279926300733 -1.3902178479047864 -3.7516951117963 0.7581422176096362
P 8.975679673977014 4.67106532860647 0.4505159798263211 -0.20569262377824574 0.3019243871194865 1.1343684007664914
P 3.5164538972996278 6.3350174236655405 12.273774761216739 -1.2069848386816373 -2.202211821227556 0.445906935482445
P 3.1577615877033907 3.2637627240884868 0.15045043828949542 0.9302109826858496 0.3278637326930676 0.9256778707021865
P 6.373067445886524 4.914120879584849 9.132706865802044 1.0034946218713492 -1.2912712567355438 1.177666035112862
P 6.728498325006677 6.937610840289513 5.543057548467357 -0.40800578956129724 1.1302507790536922 -0.3956953476250605
P 4.625423885590727 2.1571900265746806 4.299502912593069 0.31297704538922233 -1.6910924536035197 0.8814939770961207
P 3.4762388799193076 8.61728470277176 6.338915344134821 0.048865872462767454 -0.05634624000021264 -0.6222748421546445
