# total energy = -340871.26700729306 ev
CRYSTAL
PRIMVEC
9.24988537370879 0.00000000000000 0.00000000000000

0.00000000000000 9.24988537370879 0.00000000000000

0.00000000000000 0.00000000000000 13.53814223716651

PRIMCOORD
 96 1
Ni 8.668086021632979 0.9687682379332098 4.215033061458861 -0.26092866143341514 -0.48566698898920235 0.6087662661452483
Ni 3.524520798340949 6.256872169043637 12.912368145423374 -0.4567359077771489 0.6291965089751422 1.2389328523431435
Ni 1.6145397308062213 1.1354234215223615 1.3623434578683564 -0.26952463063254223 2.2724936974722536 -0.43968692271466214
Ni 6.514139229107192 3.8546584548587055 8.143950520556457 0.32987742068898673 1.6563457941509538 -0.35960322988819354
Ni 4.253735506574883 6.269803508703827 4.4662331217490845 -0.4395673664176623 0.4312099955919025 -0.27267757443922713
Ni 1.0894792411989271 6.952047299345169 9.839534971463308 0.13938695857247607 0.6678435319233789 -0.05435697748432574
Ni 1.7036161263195437 7.993528885682349 0.8415878648832744 -0.26736130443263634 -2.803181988367153 0.5807718378148514
Ni 8.103241775317189 8.286186006933233 7.769471688839093 -0.22201655774924992 -0.6613239856373062 -0.6653490476362993
Ni 2.1462046385232254 6.059377867838554 5.845986713743627 2.104105980792054 -0.4906199621191034 2.12386465147622
Ni 4.521880431760315 8.391625449555908 12.067520620957659 -0.03886916626137177 -0.5188067089659646 -0.770200434325751
Ni 4.823361943594762 3.5402363534787615 13.568197038591466 0.3251823292061625 0.2930196284306889 0.8089567291583423
Ni 8.46027809830979 2.7203912689998084 7.677128233835084 0.22256445983291992 -2.8096033185124645 0.1474512236378493
Ni 4.233654005571828 2.6157750661695203 2.6397886934168864 0.2446180971988497 -1.003076303387008 0.6192877345018625
Ni 0.2544976444024248 6.651065281317339 2.7606708195607967 0.2546587692643033 0.23320368471432096 -0.9994006543076337
Ni 0.22030081841979207 5.370890404614502 4.926218818239522 -0.36693113100817454 -0.9250890880782519 -0.385411192090233
Ni 4.243884378722163 4.666354390381558 8.652957834212206 -0.8840812782073225 -0.14881262276175017 0.15085844954718536
Ni 1.8983724614735422 8.925223583302225 3.077490491212501 -0.8855905157629974 -1.21918266629941 2.130616882598389
Ni 7.059863962491928 5.679984572057201 4.594155335600698 -0.22680652293872552 0.2993337435741748 -0.754928595768345
Ni 6.3907365092169295 3.7026365898263633 1.8103746025870995 0.20273019871581216 0.780043902778734 -1.1051951216366451
Ni 4.128584558361461 7.556749301451914 6.411853997374449 0.6233523914895394 -0.386476914350586 1.358743174335273
Ni 0.8491820207209108 2.834756850944432 3.2704634484791715 -0.8241205813829743 0.8929011904917977 -0.6691301119452863
Ni 0.3333418167883499 2.2757492822578134 9.921183709074533 -0.32413743288141594 -0.4109360758342148 -0.11493191085390528
Ni 6.138936131370235 2.7312228846951463 11.792520605770678 0.5255661391769852 0.20293383008618598 -2.167322722659854
Ni 6.44014014664545 0.3852318233875853 12.763895461383601 0.23193741640738766 0.38948201972549695 -0.7160424602261087
P 3.1169061024857485 3.130642182167709 10.226170927440604 -0.05881912702073741 0.615348033127824 -2.1651696808725935
P 8.174364143448232 4.059663662933655 3.1737327728737124 0.3746614097728967 0.1626443864385199 0.21643572122736274
P 2.5353473134189137 1.7493475592809007 3.860942826936769 0.8793576474794081 -0.7146172977438079 0.12864360401304295
P 5.864011040254247 2.8708591533004544 6.5505791522769465 -0.9254431289835611 -1.0145117989174592 -2.15271757115217
P 0.8258787846651772 1.6924052653265895 12.25955933980825 -0.08474613129914438 -0.09000815102903209 -1.0129763361095394
P 6.988501097342884 2.374935802412472 0.17613169108690874 -0.37136371285823144 -0.7159763828748638 -0.7242072554250882
P 5.060381004719722 4.9636642039422245 11.821871416840597 -1.061754791064823 -0.06892870465091354 1.5341160640840545
P 6.209503506382814 6.956394745439797 8.064468106084298 0.2167195710163687 0.1832173254938651 -0.9059865629208462
Ni 5.306011709066169 5.22993140241019 6.3958785204594895 -0.8164172992014457 0.8002298908083058 1.2481345734470697
Ni 2.9978230790341893 3.872547733043832 12.143537103405015 -1.4966625472232868 0.33391868063789587 2.898786145426724
Ni 7.0193772145000475 0.9279207444143279 6.623482123329724 1.2824960816460753 1.5009758298866602 -2.015471055961464
Ni 6.546994821720206 7.730101402003854 5.754265776020828 -0.5148850053140552 0.6102433649114071 -0.212481364565305
Ni 2.559656012007596 2.156028016720022 8.424866762386253 -1.4522441690089118 1.7575356728284184 -1.2029119541638444
Ni 0.91251043549167 3.2834040380246687 0.13867798048742852 -0.5050425653023366 0.3420564792536819 -0.16722429249971846
Ni 2.67892403316531 3.857868165060484 1.6767128349020464 -0.9148211304933407 0.7017545828485269 -1.4970911501202733
Ni 3.629442247386392 1.754675493218146 11.907838000913467 3.6792180276724955 1.033849837124439 -3.087973572461095
Ni 1.6070843232482006 4.494195525034315 8.996460650011084 1.16626113571003 -0.09310170235269127 -0.572421408967627
Ni 9.027980559185663 7.640109267845067 5.377349599524881 0.2542219388372009 0.8248348338411795 0.46929163295497245
Ni 4.2983014539874675 7.202127198524629 9.092622457670117 1.1121116462508203 0.5194492276459699 1.6566628111707404
Ni 4.061883635407508 9.152928009922315 4.271676584117732 0.8796713220650849 0.05448244731859649 -0.5428652925770651
Ni 0.1423834845417003 9.100490410112862 13.230270978644612 -1.0581981840618162 0.9087301871042542 -0.7761096007213343
Ni 7.571188372417262 8.15917583177296 0.8413048183928583 -1.224462940861743 -0.14650788588797348 0.8423155071244462
Ni 2.5944910800764616 4.4841686493607495 3.8938270941942363 0.5241168083249683 -0.050570770969016125 1.151262862528985
Ni 8.076315359186422 8.350592958330871 11.306866477551322 0.9821842904293472 0.8093506221626514 -0.01938071851945694
Ni 7.884851983201973 4.282252902978577 13.100779059256277 -0.4512707708975196 -0.46724529194890496 -0.5345536873875761
Ni 7.19607777353338 5.902102067951428 2.2122543695515153 1.314843130518213 -0.20090265858877013 -0.3383422636268883
Ni 3.638072390378493 0.42356889803395253 9.154072220734879 1.210320845033406 -2.0733597007481324 1.4652804333675797
Ni 2.5712276185275513 0.2385082926595038 12.739987282828745 -3.3300213378296064 -2.549473755941577 2.1801335012712775
Ni 8.71371570585595 6.276148930024921 0.27331838603803826 -0.63553839203277 -0.31374683367571127 0.9359717964290268
Ni 8.540187857483163 5.254378849278488 9.030130232531176 -1.4294073736200543 -0.6164209544770287 2.0748781942751875
Ni 8.105461747791042 3.4806485923264434 5.281093443035708 -0.8771632109312506 -1.1934554367366348 0.5049389498449368
Ni 7.194264796013068 0.8808018286568133 9.509962482937853 -0.11523941479199509 0.5622588666123285 0.5291551420798242
P 5.35549859546246 7.982799018725396 0.399669969364402 0.06785706885328958 0.8568316984627502 1.619085624247915
P 2.792706872335547 6.385242077344144 8.014999719458624 -1.4990580440386572 -1.2780542438246376 -0.6845968401223177
P 9.193165011010887 9.111581022596816 2.0206087708265024 -0.7747422880601624 -0.7858288848916273 0.7110570911963755
P 5.230412396446191 0.46627376852262414 10.619751697306935 2.0631333950344337 1.241308808774488 -0.5114857498245191
P 1.4772899326103042 5.501609783783169 0.6967170861823289 0.7078570962018389 0.6214433473922846 -0.22151673529469593
P 0.2443893697381508 4.3740857643136 7.278361978265246 1.2332136904711795 1.2236620422270021 -2.5613581660839886
P 3.4931359374918625 0.388775454448972 7.032320579011137 0.4921415409699524 0.5964455397963663 -0.557135429342834
P 3.457893874469458 1.917353226124979 0.490896963211769 0.4762924897528378 0.39018058845441833 1.5324438185879543
Ni 5.478216823839952 7.478116026451005 2.6398293929122403 -0.2880697406245813 1.4514052180473842 -0.3485402872058126
Ni 5.261566010162585 3.986913314988455 4.507686482755622 -0.6879369602391443 -0.5019127614241032 0.379750651370346
Ni 6.456836189625881 2.3032861908188895 3.512795643724886 1.6225715259139863 -0.4705676714539186 1.272040690640706
Ni 3.910120767163782 2.1386289824562046 5.6316502213702515 0.6441410461001164 -1.946630025928351 -0.8738912250481982
Ni 6.313148471255792 6.880693684081434 11.48567878540041 -0.13035287339466584 -0.34861382075622543 -0.3748730115630705
Ni 1.5217356315138881 9.11715870343737 8.175873724730453 -0.4916787424009209 -0.5616821681732521 -2.040871755422756
Ni 7.657369553829268 7.985342737185019 3.443968172138688 -0.17858342626627954 1.1183470856375706 0.059319720806239776
Ni 7.481186988373167 5.589502193977104 6.889736371958259 1.875794076952395 1.1751689797226212 -0.11851422888852492
Ni 2.224245920864441 8.596723156483934 5.60572464282978 -2.3053045733546877 0.4854129639968673 0.1311180336954645
Ni 8.375558398776402 1.9230881550157641 1.7362802463066875 -0.006057519047989568 0.09939884821531268 0.3610703013520233
Ni 5.543928009065978 9.162788387660342 7.836594406563077 -0.82266045189768 -1.286526800072023 0.8132705260423476
Ni 3.189887697563642 3.9060323178577705 6.556860749389418 -0.9068795070487606 2.0553023290257895 0.6344500440645976
Ni 3.0508434216180276 5.520405550728452 10.765923009882147 0.01901536476023822 1.9997572447706333 -2.0992843910336942
Ni 3.3964931357968267 6.386796058075841 1.9568576362971803 -0.8543762949437222 -0.7670181799430275 0.1501367408898124
Ni 0.9906812162271932 6.6512965284500325 12.281667490682226 1.905190013616009 0.18895782752206813 -1.0359748538872415
Ni 0.5867202250685408 6.509347788517794 7.496800794772594 0.38044973431989965 0.5549253090653927 -0.25392060554669815
Ni 5.854465158616682 0.9472437548221503 1.6084940057690968 0.2907917675414347 -0.22343066448795712 -0.07612213707555922
Ni 3.6440385664019708 8.980630396295455 1.5894725416223057 1.864950706479988 0.28669214355076433 -0.721501426458151
Ni 5.174432090563884 2.2991237424304165 9.109328675524386 -0.7695129213404232 -0.3643132337693532 1.0666128904880727
Ni 5.9536331790007235 5.965204785520679 0.07210933089337575 0.22848236797925164 -0.906711871122645 1.1539836038942577
Ni 0.6309494766559244 4.246317098558094 11.24403663159865 -0.42607318858596943 0.8018070054874386 0.6152606156203403
Ni 1.2877227831139353 2.219648727866505 5.698149496824496 -0.2321708725744324 0.09511770434145554 0.4701064155467839
Ni 6.184556565707899 4.795270041915223 10.130700086214057 0.7934069543492013 1.136647169498339 0.45044827499622425
Ni 1.74825607281459 0.4030406275705344 10.416124722142836 -0.8993392328076576 0.8554422743143913 1.2206479379910267
P 9.070678029766087 9.079890915532575 9.472665095400073 -0.018887838043438437 -0.046297083294326725 1.4314609137149734
P 8.447328258878985 6.205942300539343 11.078113113937338 -0.05187149205831067 -0.659546067801277 0.2591072919539602
P 2.667343176760047 7.943709003414981 11.181368658638862 -0.7030329353403182 -2.8606024352681505 -0.14840638846226697
P 0.03293791659225236 0.6180976860093812 6.643152929425118 -0.13861537051377418 -0.13179320538561817 -1.4588380201763458
P 1.9760159987465256 6.767086592732044 3.9726731165572233 0.6429513966673895 0.8265448745537507 -1.2427871930922274
P 7.5581460341333795 3.1341663884699495 9.862888156899704 0.28618872155178454 -0.870005773950863 0.9614177473059571
P 5.194596840534708 5.280926020111639 2.799078193335503 -0.6031759165416645 -0.02121545773535056 -0.8393664517984513
P 6.174372441984102 0.419627521904334 4.222708616287205 0.9039589909678561 -2.3273319854683727 0.6740599451467358
