# total energy = -381166.2526842256 ev
CRYSTAL
PRIMVEC
9.25771074108053 0.00000000000000 0.00000000000000
0.00000000000000 9.25771074108053 0.00000000000000
0.00000000000000 0.00000000000000 13.54959545331405
PRIMCOORD
 96 1
Ni 6.850687461981899 3.551202309048787 2.969908797613167 -1.1622833820092047 0.5899079957881647 0.23161859961538822
Ni 8.831485775951087 0.4913039337959572 1.496850557159237 0.34440878153594234 -2.1484649665234032 3.3336365659846914
Ni 8.955946439681103 0.16436232296407938 11.05268924923353 0.008383338967688787 0.1739688103124036 0.0015629736117456954
Ni 8.72351309512074 8.48076666075115 8.987419879020804 -1.8923031303510123 -1.2989850804400338 -1.533730398609862
Ni 2.4908148585653147 8.962639764575242 5.267053272426208 -0.894075413305557 0.30969297532131174 1.2103846083918057
Ni 9.233464835741405 0.8559614583466751 5.330383420331913 0.41833391096018274 -0.47364836726177134 -0.8394672390423735
Ni 5.034398668578197 3.1492510223908092 12.23708651293202 -0.4279696342777339 -0.24232827272340846 2.2513157778430584
Ni 3.1711455083861595 7.927914688374691 7.770828926083908 1.0247579021254998 0.8402959055912561 -1.144103111555752
Ni 4.923130242710072 6.1261234700528995 8.74321535520332 -0.8593338960593135 1.246351770515034 2.829203095021263
Ni 5.17423638991425 2.479039050452805 10.174079727233991 0.20383268775137156 -0.06136271937819754 -1.9776547564446392
Ni 4.861529435178122 7.532378995287444 13.083137591888411 -0.41754123985555835 0.5584700889938575 -0.5747510855420683
Ni 2.9590420966992808 8.136129861533854 11.576178540328192 -0.2389128192839563 -0.4481409670192863 0.8494860567309563
Ni 4.149102302082064 5.0040611503512356 10.784882191781737 2.701435208744954 0.11796761235643553 -0.313322344543783
Ni 8.170855534670666 3.605304370848714 8.815543072216375 -0.30725916906883854 1.007104964930427 -1.0258048553327752
Ni 6.650322827564407 1.9446284379506533 8.133402539937986 -1.0272688414728115 -0.14306312187248263 0.5403525534575404
Ni 9.164689302354743 1.4530902840719553 8.373256865459817 -0.24719279990456133 0.6015712910587059 -0.256359554005494
Ni 2.841302530995744 6.806787397461835 9.621025936762523 -0.277347983331703 -0.07864901726247099 0.04546995940734105
Ni 2.921696491411651 2.351014168072383 8.98148476063957 -0.038288611167553416 -0.5319231917432645 -1.2623702574304774
Ni 2.8662335461270243 0.45529884502931195 2.8362283797170753 -2.260808547824842 2.1629845002958166 0.20939218411702004
Ni 6.0067452895412545 7.116448565351251 4.57159274587716 0.8947498136647623 -1.6609704374071588 -0.7505808603226105
Ni 1.5502314432893802 9.156718413372925 8.925728345923208 1.8576084071823038 0.19500171972330288 0.673150545958589
Ni 4.213878504411648 0.27136386993357525 9.489879354306991 -0.39784478986789545 -0.532473922040412 0.8741187676779721
Ni 8.053375184868976 2.7110557980280556 6.436261410047501 -0.7530007826180127 0.744937288883588 -0.830920120803311
Ni 3.6297076964655184 2.5638119080677826 0.8367378219114342 -0.0872501286679207 -0.23983173155379983 -1.622845091290347
P 5.541499034278536 6.701064340351095 2.3581305703491804 0.40567919831064975 -0.34157079786651495 0.0432958345741577
Ni 6.72652304499685 0.5913436822586863 9.970009231191156 0.3087424384825844 -0.4474781366243068 0.5768599043549548
P 3.0904645589360635 3.1268566200133243 10.918358940040665 -0.8090176643032647 -0.22055822803616854 0.9416413360099782
Ni 1.517357312308624 5.742372842788943 2.758982040966461 -0.61773118864802 -0.23904574531739478 -1.2803831490681303
P 7.906621953580059 7.336837628186476 6.5422862685296765 0.009776105550157357 -0.7463364832239598 0.11340261869357245
P 0.15085161985134612 4.950755251678412 1.2738350817756476 0.10867950218629024 -2.7089767685376382 1.9616110727182154
P 0.6985313092148656 8.945540772764074 3.3015755440272976 -0.5714536457377192 0.22615860494208148 0.11394049347491345
Ni 1.6943277115843596 4.844828524930507 4.847882643716919 -0.10640536144013286 -0.744583247978279 0.5410282393683263
Ni 0.8492070325613865 7.71776465366245 6.972879060799669 0.3864450326713861 1.0926944180664728 2.274363146580825
Ni 2.6373459047955063 4.405337221058514 -0.5318388204473911 0.8181463660774104 -2.573671179123387 2.20297261065298
Ni 5.322470854928012 4.019392516339632 7.905349018347771 -0.5874628766817819 -1.1684658566708328 0.38399811379279025
Ni 7.219431340071029 4.192354326847508 12.31750361762488 1.4122007799337808 -0.2095348803424714 0.21472285230131408
Ni 8.370424005961054 5.5097450863021935 3.1685727905603214 -1.6151469513151409 2.008876176352766 -2.565924702408749
Ni 6.561633958289375 4.857696742915089 10.14898577639298 -0.5553726810154564 -0.2816080441596376 -0.8373494213684224
Ni 7.178197496255685 5.2750806334437845 0.9634221877708727 -0.10608603042750117 0.8616422324775161 0.6233968715742296
Ni 1.7097973462981992 8.478979922570558 1.2266892638560194 1.0756791144553992 -0.4593525194643895 1.9376381068423854
Ni 0.6836495391355737 3.3572902990451485 11.616433844114063 -0.14777518263617131 -0.48915109088306075 0.155318542201068
Ni 6.593119432653089 4.646046959056442 5.207881688203003 0.11205304664421346 0.334630619103256 0.5993835393787678
Ni 2.8120481649300753 6.622920003654794 5.921715067566585 -1.02167566365575 -0.3837777702518681 -0.9060829792893943
Ni 6.553172410636202 8.317284746082276 1.1664660036881749 -1.226470458210075 -1.0386022642077597 -2.379020672091916
Ni 7.500995355742313 8.137157467430464 3.076543739235764 1.8620242768618125 -0.36333672878869683 2.0867122107956386
Ni 6.809361041058751 1.066432735622992 2.197473183239367 -1.190324604417137 0.9177321334925485 1.563029147573979
Ni 7.358704341049487 6.903160166684497 12.60243836579126 -0.06438633669586975 0.997927412196217 0.8541207272894903
Ni 0.17069552290886547 7.35615847058491 4.929288471921112 -0.49690759490002806 -0.5271391400910598 -2.4567309795902013
Ni 6.440728255498983 0.33176672969055715 4.80413070256934 -0.6005711319289657 -0.7519422594465114 -0.37874843535807673
Ni 5.550303117230579 2.5677094043062785 6.099241855260216 1.0908928460813598 -1.4196022146041745 0.4057501607579012
Ni 4.0271041894196005 -0.04728468358133231 0.9660791507648115 0.885475587451688 0.37788274492367174 -1.0633244495447882
Ni 8.78511390265269 5.910761344171363 8.94026665493255 0.8057978718143864 0.8386054052627107 1.5473040235292383
Ni 6.852918570279945 5.806334366569862 7.801965384751206 1.5281876144147617 0.06554770399382259 -1.4980979941182326
Ni 4.8304420423779595 8.308823198429105 5.970331009958121 -0.8810856859141084 0.7226854194639231 0.21378902763313504
Ni 3.9637907053933006 0.9179788628637371 7.07418989295253 -0.40140371086374743 0.585857736978191 0.7062694399997449
Ni 0.9207182194836204 3.3305632880224945 6.904751567167627 0.6800956098178546 -1.3258988741117421 -1.1895113644872224
P 8.45989978065241 2.292236962328417 10.380629438223783 -0.04179842409302479 -1.1500439025202194 0.46768340792758806
Ni 7.323089927677769 0.031104056679567758 6.870078662982262 0.9219253456382897 0.9678383061203203 0.47616316326382513
P 2.8360441512725476 6.404382482975623 13.370361771930755 -0.06568063002726107 2.3680132652378183 -0.38401328330144185
Ni 5.0494979948608245 0.6443561114997747 11.993167126606572 -0.24560205837867383 -0.29707220123350775 0.198403032095368
P 4.9359892029838734 7.486377430420259 10.759042995222913 -0.23022069082659702 0.37695637645466046 -0.24042205683963108
P 1.6555841919689092 0.9772254345442626 6.832627519791738 0.040160631379285675 0.6018001192400604 1.0917911895259134
P 8.751110330956738 4.647315265433341 4.818845833854588 1.3453014470080702 -2.1811470301374563 3.0147192438516335
Ni 2.1687020696764283 1.0319570206772481 11.019778087409653 -0.11680624505848271 1.108404372602562 -1.7547210861977587
Ni 8.825347913703764 7.053607224574744 1.2817587564324848 -0.04067510912185898 1.0723281957052953 0.6450697285619729
Ni 4.90218004321431 8.916869642477563 3.1466764530228146 0.9662218535628198 -1.7880916912384046 0.17403463055333254
Ni 2.363780551238382 0.9170438340749293 13.136387018525475 1.5907430685494797 -0.008158367441076272 1.7580187831124237
Ni 4.435387750251286 3.713110412885016 4.615561317456997 -0.6337473615706182 1.4249789055350555 -2.4980815175125297
Ni 3.8546700684262 5.893745671757218 3.5294939030401205 1.1361373197414562 -0.8149291446916933 0.2949294438588921
Ni -0.11105920160449036 5.449505162254945 6.718011505705467 0.03801838822530226 -0.16459662506888426 -0.2759179357533958
Ni 4.633049133120937 2.1024816644651216 2.7500390923527154 1.164281129165524 0.6929516398449163 -0.3888711256143754
Ni 5.409410016865574 5.359705367686278 12.940636427160873 -1.2790330627981392 -0.07918792048507652 -0.10783515190812396
Ni 2.0487313956748454 2.460662494553959 4.31785000264276 -0.903491050192502 -0.45003458449757333 0.5053762944926715
Ni 0.7255388288741618 7.122845643500421 10.710589062770032 -0.9016200584220343 0.7938630680500134 -0.1300685093850276
Ni 3.986851662946965 1.3217418835214145 4.666819410505224 1.3087994954272943 -0.20405328840260986 2.1360213414434113
Ni 0.20176347451639018 1.0393354161691273 13.188417204652776 1.319289853435657 3.1144618485596105 -3.0122005911948384
Ni 3.206546994409931 3.3439591955215517 6.431600152669632 0.016117474387152886 0.1858902443403379 1.2957683732749488
Ni 4.884386723094622 6.0367773033124665 6.5424899381668435 0.593587758632597 -0.8159699272513818 -1.7537414958933089
Ni 1.2729907785524863 4.152536912781546 8.90789706918932 1.0153319808259094 1.277796619287877 1.1688636063298838
Ni 2.74959564800634 3.8108810964354993 2.6204237352602417 0.5189134097471578 0.18807439647585028 0.22150593666141852
Ni 7.36424970980687 1.86942805328248 12.242899429530956 -0.8860052347029127 -0.47566359791958723 -0.5033543789666363
Ni 8.874941470353697 2.354059954919093 2.920601304226345 1.0597758129615813 0.03846858838884343 1.9382402592027588
Ni 7.857000623797784 2.9869726101233702 0.9110568725133255 1.386648128275657 0.0818191874603365 -1.1167751131647605
Ni 0.7209562620379256 8.002337425337322 12.994794035225484 -0.6004387201161595 -0.33039755485851485 -2.7924836281130423
Ni 5.791771987512489 8.332763638506895 8.221311909965321 -0.16579527336267577 -0.3620709747023958 0.4161273902271672
Ni 0.2204353513891267 5.65173985425005 12.970349975681243 1.095933493829061 -0.11614752842856126 -2.422933828535098
Ni 2.098232375216975 5.343846909119667 11.183104472537421 -2.9905254202142495 0.5194901081862343 -0.7917359944046816
Ni 2.3994875417179022 7.567789739021996 3.522311771016783 -0.12975894856440875 0.6134333326036145 0.14259800931060604
P 7.751694163672158 9.127658459233643 13.08716099299352 -0.7497287967349605 -1.685363778649859 -0.7276093391281018
Ni 7.088212547471413 7.275060924149702 10.29441330349816 -0.6939600265047726 0.5938366414186095 -0.9800610734387574
P 8.361138522048437 5.590185335272002 11.098501031029722 0.7169222917279008 -0.03159165876335204 -0.6192296275704174
Ni 1.2318309964233842 2.6416414825975543 1.1944104036784347 -0.4347673739258577 0.304808650645817 -0.6901771624235726
P 3.053822539667735 5.397550889356042 7.844727676616374 -0.4271548516859224 -0.7036214608539366 -0.4739373592570999
P 5.869323830718853 2.3191954161205777 0.7732521444646208 -1.632236045586944 0.8366557377355074 -1.0223616339791812
P 7.254064436100038 2.136059381465179 4.492422654826404 0.743413396039894 1.0436897060329962 0.06801442036676028
Ni 4.998886090025061 4.481667046441881 1.6254503433791143 -0.46390440050113013 0.17455964981886712 0.25004749574453705
