# total energy = -340892.7162256563 ev
CRYSTAL
PRIMVEC
9.05498729857056 0.00000000000000 0.00000000000000
0.00000000000000 9.05498729857056 0.00000000000000
0.00000000000000 0.00000000000000 13.25288920360456
PRIMCOORD
 96 1
Ni 6.543188098832907 2.003397813594937 11.45400829661976 -0.07725239402526049 -0.19445407474994897 -0.06254594105302132
Ni 4.5011164347992585 0.3590501644499799 5.764927340307624 0.09030537055447674 -0.34586299748396565 0.4710271275888404
Ni 2.6517258439300537 1.6051685304190813 4.888726028957432 0.5393169131041744 -0.5222005651388619 -1.0416438792475609
Ni 3.6644718351422325 4.250764147997693 4.9963925435609 0.641626764318695 1.058239835933029 -0.722275328509698
Ni 5.045538486725523 4.566547772488355 2.8296509099123557 -0.24731981240072887 -0.2993779665485489 -1.2204041974113369
Ni 7.117591213461717 6.116308836076606 2.6179887725265067 0.7345592880833737 0.22737859339211164 -0.3546016629085441
Ni 5.171484304040445 4.495420847834626 11.448137042902959 -0.03914298874804872 -0.030295565659747826 0.4684372553744771
Ni 5.619398302120821 7.695924192546252 12.272520284358379 0.03144587721410713 1.014703088992659 0.08133299185253734
Ni 1.7341749334161118 6.549562809839428 0.4748652620573796 0.6825062761418762 -0.6723221365200227 -0.9959232372819944
Ni 2.4151461926979754 1.5501957029750597 0.5671265268946609 1.0371778730564074 -0.20948654360303923 -0.7482072178841114
Ni 0.2486472327070658 0.10271977508235539 4.823123552009781 1.3474202931232857 0.05187149205831067 0.3468281896107124
Ni 8.535067968677424 2.126590914793407 1.2211039637595626 0.7005361370603935 1.1231272806350334 0.5509382993931866
Ni 6.825477325577656 0.7041158066294037 4.867149805397292 0.5930694242352819 -1.1199437407007293 -0.2648992160453889
Ni 0.797224618270961 7.336450254694133 2.418175085924795 -0.865053057931278 1.0949212505144625 0.8031092692386298
Ni 7.28793363314166 3.668437919546858 3.6247974086151395 1.7669420537439828 0.20690798424258558 1.9211938452434334
Ni 7.629469641300711 3.9961016872769455 12.580397999502743 1.0632295758381367 -1.3304782659523087 0.7910083722100377
Ni 7.687801869005272 8.79828739232596 6.954917462462773 0.4463396521444894 1.1060117040006694 0.9901644804213463
Ni 6.839910975214581 0.6370753977103949 0.3638556461703789 0.20034164387897754 0.03839505483843065 -0.36900678259028064
Ni 1.7894646854130145 6.711846290888968 9.013090704780222 1.0762373009517143 -0.2641183720153064 0.34162196281942453
Ni 0.058322267218612736 4.763376029801926 1.4808118633621765 -0.5447794788806425 -0.7293828860887568 0.18153042470974542
Ni 6.278936406640701 2.0843675093624285 7.02002915910282 0.4723936689190639 -0.8230677146384276 -0.3577111550718033
Ni 3.474072618758533 4.339530187766058 0.9092320937501758 0.7545241612410747 -0.018063285259614054 -1.7664538012536544
Ni 5.8980293140266005 5.650103763801381 4.647297432066274 0.3556118493406134 0.21139713036219077 2.426824678949072
Ni 5.555234662643251 2.6491813925197802 9.167527133900427 -0.49669033668289947 1.7062043695442939 1.3894254339104781
P 0.45210283517074124 5.416992172676544 12.303903059083382 -1.1013227831654324 0.19131912866539308 0.673988211368536
P 4.143299559609347 6.111219933256058 12.618367371935335 -0.8735042740224248 -0.9396243055799495 -0.5625949097955085
P 2.219413588838649 8.61207158004029 1.3051949136235708 0.7072577720549432 -0.7277312094179468 1.1282226928800698
P 6.166310475534007 7.857247844949922 5.832835217002804 -0.4934052381737245 -0.8591156094009204 -0.2954860876933105
P 4.756376524676868 0.9936309131798399 12.490609651676657 0.28368858083775017 -0.5188632732355127 0.04300015771060982
P 4.04362226023465 6.17142654331623 8.218010307484182 0.2645135505711961 -0.1301628688710468 0.05244176273948388
P 4.525012546086489 1.0129180359694572 3.293051652643945 0.18715651264727123 -0.11062119929369336 0.9722639459918417
P 0.12021219940394338 5.671573138512265 3.635744888170373 -0.5914015496145556 -0.8544434007362317 0.08532231551758854
Ni 1.5275401249376785 1.20323575746813 2.8596156736378964 -1.022151317740588 0.3442077212687298 -1.1914414916303997
Ni 1.7417539577235812 6.730825544112929 4.660338424667968 0.6443477627942837 -0.2598729664753912 1.1412622996728472
Ni 6.349619636920397 5.744574445521605 9.219915667990383 -0.7135829429420227 -0.3275204904210359 0.311918779328037
Ni 8.766522497140055 2.5905141302878882 10.28307530057871 0.014372466671588152 -0.45721284741356744 0.0854182176655045
Ni 2.541119174974573 5.193641857780443 6.966103088182027 -1.1509959820208435 0.3710878334890254 0.477202660271933
Ni 0.7923177206936401 9.100443261042738 9.016841280488888 -0.7240439903743466 0.1288894014752619 0.8089179055006068
Ni 1.6678924269278501 1.1854608175451167 11.310108250634766 -1.0279586684509845 0.059920073394400024 0.6860641686964636
Ni 3.8627670003862824 6.743620241062097 1.4244201194199704 0.8638693220358218 0.5078391542108672 0.7259514918097046
Ni 5.545256066721111 7.909766770855922 8.138121777191376 -0.23245652213565127 -0.03888716398350076 -0.0016442204716423294
Ni 5.366320464164478 2.406199865319505 4.755653031197577 -1.355780749272839 1.580690055188852 -0.3261878876525415
Ni 0.5879339820393844 7.566772909753618 6.8832327505959725 0.9001900108437271 -0.1444098657083642 -0.41864475733238216
Ni 5.200043733748639 4.418408181484534 7.342882917618895 -0.19896738923927024 0.5735411243943671 -0.17054615778409982
Ni 8.369406977392895 7.1635724385911415 8.952962873108909 -0.1307799336297554 0.6828549177305465 0.40526422226041814
Ni 4.821490937813083 0.38017001665397193 10.304704043064756 -0.5193345564449765 -0.7610185107161668 0.5695150339541095
Ni 8.004545322141801 7.265513484772132 4.756263337336554 -0.11170389083491084 -0.8627755747510109 -0.2528062894365969
Ni 7.248435778865457 6.106149140409962 6.852247489810155 -0.930265747183185 0.3842997041936091 0.424636713249759
Ni 2.1622766194478116 5.276558375801345 2.684173485152736 0.7127280511408951 -0.12423570475333442 0.38425548121923503
Ni 2.3732034918709766 5.376588819677825 11.254883694545885 -0.175663167295691 0.34610365273986204 1.734631514536735
Ni 1.0405629119679083 3.465334556086242 3.960320905256677 -0.6420556243259975 -0.07387267891975019 -0.17727627741908178
Ni 3.5000604320947777 2.8785985488567474 2.9340177871709696 -0.6755013055789527 -0.5628126822332694 -0.48792493178544355
Ni 1.209375038806797 3.309434841030449 8.325942133213346 -0.6881274789833955 1.0314111457759592 -1.3498474145075399
Ni 3.7170541459588082 2.523480059859937 6.9945438975575716 1.015133234551542 -0.17030961629326152 0.5183045725185654
Ni 4.084098053131171 7.052757504929483 6.104108146289409 -0.31590681744150756 -0.7807864373717134 -0.4150459842375303
Ni 0.931015676517773 7.428403649965759 11.602679415373697 -0.3957637389691507 0.2847033952555097 -0.7291720556295314
P 0.2529936265751485 5.5815394005323755 7.7262221798016775 0.5439222730866697 -0.38062379800391866 0.9156192009146038
P 8.668955009788823 1.6401026711337963 8.142628444333344 -0.4618937978290046 0.6848989447437689 -0.7913616417843983
P 1.8404170985290595 3.3906309114785693 10.44945254135275 0.6957849955286534 -0.5581245327289807 0.006057519047989568
P 3.947766165468975 6.287013455245556 3.6770537398916097 -1.2884435574787616 -0.9051100738531638 0.8448552428271644
P 7.013875389784593 3.993095431518188 10.480994683852916 0.21062837051696628 0.40564500263860453 -1.455249531494139
P 6.658494306158252 7.752744237384207 10.178430435212283 -0.9930217473644833 -0.1793789255843814 0.24818447439386931
P 2.2579063395328567 8.587478234736723 5.76615972406897 0.398297818244914 0.06758993123483198 0.006135937694408788
P 6.8070323165999795 4.0528130722682 1.6717724889538366 0.3426915417345195 -0.7742638057618472 -2.3775104060949763
Ni 5.433209654796827 2.660626896372398 0.38821175080864756 -0.23058912990960936 1.3929028509361172 0.7070803659368144
Ni 1.4416988460430444 1.3217927052073117 6.887712252776266 -0.46497526496780567 -0.18598640359857002 0.6263785799103728
Ni 7.1703002940994445 0.7429064664033196 9.397663256223073 -0.09211619851097039 -0.8599298777720997 -0.4486832126760015
Ni 2.767783615195088 1.8452886816562022 9.1878700682005 1.3943565526635082 -0.8633463596528163 0.597368565831268
Ni 6.5132794760281625 1.644865594414237 2.5742676722084843 -1.0650008088059464 0.7034193721454595 -0.49276451926593207
Ni 4.1782246453368375 6.86483935504548 10.322821261504881 0.06530396341413269 0.4751185240493946 0.06420378837141846
Ni 8.387335852098737 6.823675383119846 0.47652775771192124 -0.7985270491845861 0.7685914379674182 -0.3581855236050605
Ni 7.7423853319986105 3.891534694800655 8.160333660854723 -0.1529842376409365 -0.35357604985750724 -0.2288461790765736
Ni 3.1524032525715096 8.444083457038893 12.545012920424213 0.5478468049520565 -0.3249938673444403 -0.231712187770459
Ni 9.296574284339972 4.962540473819593 9.916792012333262 -0.5208147405349288 0.30973462719252465 0.5622835492026768
Ni 8.440705946803904 2.2448943228902842 5.950705796710319 0.19551285503176652 0.8730844128761868 -0.4080572116245231
Ni 3.541106689186484 2.6647559705470765 11.86657071907434 0.20234838989636117 0.8865117420256862 -0.5773795243038509
Ni 1.1308139696412012 3.3222929228901936 12.673366458842308 -0.29327905273966265 0.21749090196475446 -0.471238215158382
Ni 2.8206375756284188 8.73076435258785 7.9645757030311675 2.0796010536721536 -0.7721292759173476 -0.34156565566019237
Ni 5.472761838996381 7.788384667102486 3.60616405590318 0.4402841899790288 1.465655300208495 -0.5580599980396325
Ni 3.0151205912506716 8.471619673190641 3.482395057517189 0.599835796424838 -0.548009812892482 -0.15829176589677899
Ni 3.643482374754283 4.439633071540339 9.632517932388756 0.6940497580051015 -0.8229301606192989 -1.9836405417144287
Ni 7.534347000500275 6.114887203082254 11.496762324302134 0.022548060503845037 0.27920586247604817 -0.8858620242568293
Ni 0.3901848325250126 -0.006421796940092246 0.2732903804403724 0.03276511024616292 0.022918299359070207 0.24787439935261824
Ni 4.679490628147929 -0.006504197323841315 1.3431805850331688 -0.9106073495223093 0.7437355552660031 -0.1356056371531729
Ni 6.163376659673052 5.575445394129835 0.27787310947503213 -1.0685882690468889 0.8999632395449016 0.6912464842283516
Ni 7.9191296276467495 -0.3914362317595314 11.73135168934212 -0.09761990193801898 0.1830615166422912 -0.8821267255841132
Ni 8.872176088083366 4.843847701272033 5.747181376343732 0.6823594661513668 -0.8217032301907332 -0.8889100670545337
Ni 7.851262498394083 8.775061350093393 2.779740725825928 0.3817196021712588 -0.8842846524673803 -0.9591873153135415
P 8.542601718048768 1.7035690765950293 3.5888554478222625 -0.3401384362953626 0.1531917256660523 0.20749573842525557
P 1.7293305152506449 3.256626155533244 1.5861322307756014 -0.5036613686840938 0.41972102111569654 1.2606550745115837
P 4.817307533715053 0.9334876880302451 8.171996484400745 -1.0518717276231562 -0.07441621012804603 -0.35700358748181743
P 8.621579316626722 1.6650672709135963 12.301716279668502 -0.42358590338774144 -0.4502721544296761 0.29741132974048134
P 6.423146133188797 7.763664551977765 1.1891860392895526 0.8124194908959621 -1.311112716941503 0.9689662490771763
P 2.0461554632722008 3.319621701658768 5.980194268107815 -2.286197677321908 0.3411218832545544 0.16966041274503685
P 6.726135060730289 3.8817281436357933 5.837049408057401 0.40531178766890197 1.0217520254196402 0.3978864417391083
P 2.4381911351860386 8.448502290804777 10.432674555523228 0.5103986874079275 -0.3078165842342054 -1.5378544480805643
