# total energy = -340862.94286863884 ev
CRYSTAL
PRIMVEC
9.32292211126356 0.00000000000000 0.00000000000000

0.00000000000000 9.32292211126356 0.00000000000000

0.00000000000000 0.00000000000000 13.64503888524636

PRIMCOORD
 96 1
Ni 5.3317230495185 -0.11527886055737813 7.142740701003008 -0.15841877839294652 0.515114604826358 -0.4747012340063179
Ni 4.461838506476655 6.670783632992695 6.573019745652609 0.12279742964491111 0.23805792748282872 2.1721633385816075
Ni 7.595990394095654 6.066788820167057 11.701698880922205 1.2335222228505338 0.5711111747966359 -0.6555837407194194
Ni 0.7977941178009672 6.114139940074775 4.5895224468035165 0.5809294464386382 -1.4113996241887241 1.115844116710059
Ni 5.603831168586537 2.038950970107825 3.6190193377612703 1.4555992015240737 -1.0060068467702417 -0.2897838951022106
Ni 8.726739612494432 7.362730890238379 13.876730947037318 1.6805984960507316 0.2365106376003669 -2.569110299225582
Ni 2.1192213269507962 7.208902680260559 0.32863019716697894 -0.9218921784075091 0.2950006634164597 0.5731415749631033
Ni 9.615568332668092 1.5797691018631246 9.610759569594967 0.036176192810240926 -1.5838810513223238 -1.468973823058767
Ni 8.62332976370207 5.818892329057346 9.094063664370013 -1.786880958759755 1.3845858464299896 1.4459575646692515
Ni 5.6065254929916035 7.286627879447534 4.74204638001916 1.2670622635895081 0.5966337445477725 -1.0531135704500574
Ni 4.0856213194799915 8.716642888166797 0.4175345119045236 1.235998195194852 -0.06502319894892027 -2.5513938557824254
Ni 7.509967794491694 8.788531938296432 8.247729754129681 0.9588800684857679 0.450397881374263 0.5700840190837021
Ni 4.8086139063757445 8.367564726578948 11.746576629671916 0.3706309484572649 -0.22924392873562455 -2.637118548944755
Ni 8.25423528897347 2.100864493893443 4.421674426997536 -1.7157231076680064 -0.28301443758886097 -0.4006496063065422
Ni 3.6625750961973536 4.396652637133326 1.9113555975382228 -0.7120271684191286 0.2069095269044824 -0.7038168646941942
Ni 4.55910454979172 7.208595023840604 2.2361624644681166 0.9601527645506044 -0.18157181947064213 0.41369949751196494
Ni 9.034974053602715 3.030518288703034 13.885873004170907 0.7764461581251466 1.4413953992198658 0.21841804176471416
Ni 4.122129881314727 1.9412094577800998 1.06153304995403 0.8105767812602684 0.03499708490047521 -0.06751434080189019
Ni 7.929760318060256 3.677454479417026 8.12971368372688 1.060633018755554 -1.1130518986769025 1.9980191790336042
Ni 9.133237649552184 7.946243243832425 10.531199520772978 -0.7048005687637022 -0.1876635341906768 -1.132022012021502
Ni 2.187362562510062 4.230797858011786 4.136220545348696 -0.8473085894636634 -0.566054843319651 -0.5372322626610038
Ni 7.623642180204395 0.4230835149699053 2.8451403790048544 -0.0854776101485302 0.9188513346986562 -0.27286295097715585
Ni 1.638400957169216 0.719731428844223 6.990052684363388 -3.2476275088127227 -0.27071659405811443 0.4579564104478113
Ni 3.3466958591992633 1.5886724921982045 8.184840120429842 1.530979318227286 0.8079177463708667 1.0134406773404674
P 5.4730958359490245 9.250613235226169 1.9892551353631722 0.5534541238365049 0.7232646890061608 -0.14795258875430004
P 0.6543124864554739 3.878186309055356 6.212627286147847 -0.12108224672601729 0.054632085522583335 -0.6817110339340905
P 6.950070401859698 1.7394241379764677 8.270394709358596 -1.9341848581864625 -0.6775095942582332 0.7891715761116151
P 2.9440575117736825 2.156140097345473 10.164899125712886 0.36883477578879054 0.1257436567574286 1.0276755899929269
P 4.0499052059996865 7.15548233825008 9.664630208729198 0.06712121912852956 0.6544833085663889 0.5744214701167913
P 5.579843290751815 2.242339832463953 12.804313385862129 0.06337203649874247 -1.7155927527377293 0.4443637593650412
P 2.857839130811569 6.748378311274235 5.160703371710431 0.13156823385900568 2.11154109691386 -2.229434147278618
P 4.0374031678433075 6.247467044977369 0.2331299152440217 0.27734206979443204 0.21080500530414661 0.2832682054708799
Ni 2.9805008131557007 3.017540781533996 6.2104298734756185 0.19859535061183217 -0.8262268290926997 -0.17206619397305203
Ni 2.091168655203932 2.1335506577832755 2.588491528893497 -2.0154427738266905 -0.14839456138772508 -2.274467790479489
Ni 5.421698567972799 2.355370936571292 6.5169796626115994 0.4736997893249971 0.01531297620798653 0.14844366945810564
Ni 6.553398724396893 7.291177465294151 9.80641600059621 0.1958213874111208 1.5369656177177078 -0.16089243674441966
Ni 5.287802764839378 5.896235288449831 10.981867696814541 -1.9497287194583326 -2.1348458330780717 0.5318733123419356
Ni 7.270079693222647 9.178621632956549 5.90326663608409 1.1639545990640405 -1.3980512279062762 -0.5877179301153813
Ni 7.246240982136993 3.7966853265325615 12.388821526127675 -0.04566690590949554 -0.517707819474831 -0.5437808624127989
Ni 2.5051809672460545 7.2641876066344055 11.481985582464793 0.4691419947509856 -1.4990449314125343 -0.24236889615335677
Ni 1.406642443724451 7.578043769598243 6.720481332321711 -0.42641745929926556 0.10428240155985911 0.42023729863048265
Ni 2.452180156717333 4.940262885351307 13.029974708438681 1.613471620495247 0.8087723810616781 0.0016393353756358863
Ni 7.137591651283569 1.3237243770854978 11.452225883733266 -0.4733629748108686 0.26007017008786176 -0.4883013412882558
Ni 5.148956490221216 4.236083954681933 13.38617837917114 -0.6911356696821 1.3360269636846795 0.9706852886508122
Ni 1.1578695979639577 2.029404298167383 4.733381656482592 0.550775291452761 -0.22288636194871292 1.0993414910693455
Ni 3.4249617878516143 8.520516581905985 8.072978110718333 -1.1621602261677793 -0.9990646111244534 0.970481143059806
Ni 8.626350390370725 4.390247789845159 3.9536227309362966 0.04280886763541015 0.4266583716654781 -0.7305992749943611
Ni 5.800358360485473 4.8531122122075105 5.710257914878828 -0.20983492808139345 0.5473513533728768 0.3982404826444174
Ni 7.238381759045399 7.833827452564998 1.6501767397160634 -2.499222573095509 -0.680252704221009 1.4416579088526333
Ni 2.5784591327263975 5.183097029914475 6.396138746898296 -1.2896586608327854 0.13713801463729933 0.19971352337667542
Ni 7.620220667897615 3.7948020963255606 6.026017818477663 0.8494968553642338 -1.162485470717682 -1.9132650773146598
Ni 1.6723550384261385 2.8796547678629687 12.22210624132244 0.15111118898793977 -1.4490619146261883 -2.042201272867457
Ni 8.916479717310711 3.7841832883761826 10.325650537431887 0.38280640747753425 -0.6453219537820951 0.8152847282588991
Ni 1.1672671031553299 4.908024221708683 1.7911570311380993 0.20480019387096346 -1.8539199025871231 -0.6907394626849458
Ni 2.1261482578607067 -0.11743618466579434 10.334929641516187 -0.696076301516827 0.5104747920615015 -1.5574696512083306
Ni 3.1527417937217748 4.835258816928266 9.791652221607066 0.3476514568429561 0.5285267644672058 -0.4771496955468105
P 3.38927364313676 0.9603914680397044 6.026618214642667 2.2388492699449314 -1.1397985706431273 -0.8947019911459624
P 5.597109341956598 0.2385763661694182 4.901734046358863 -2.768782684951677 0.864519296914995 -1.4680268857644654
P 7.984840140154132 5.391072769804487 13.913573269473096 -0.7122266860244444 -0.6900848598200825 -0.004702547681991901
P 1.1525555325283603 5.555575725262586 10.2374762074726 -0.3221954786636967 0.41225093799089646 1.6990412761369513
P 6.847732689076272 4.532795264424605 10.184466074022064 0.16019232535360153 0.31421271756853625 -0.20200977561001984
P 6.901917510675732 5.766674643961239 3.537244261337061 -0.4658877494797461 0.04579571817787598 -0.10710855815474457
P 0.4819670891650514 8.886972669760418 8.549762587645406 0.36467730197699133 -0.8487077838040351 0.5001104181080419
P 7.231240400933702 8.469986345658725 11.889345057498423 0.07551381406759898 -1.1825711857239634 -0.6570724094498039
Ni 4.2468798981458304 5.292165892249658 4.181290346287834 -0.09776928303168969 0.435451801587392 -1.2192654558212033
Ni 5.232116952827407 3.3184287602506117 9.183697963885816 -0.02613654918605176 -0.16946243780161782 -0.5594406804372429
Ni 6.988098599950579 0.44996988919748315 13.703712434791719 -2.844153288573192 -1.293957031097823 -0.09023363677627684
Ni 1.1925788358880438 3.144313872399353 8.231983339181042 0.5305998449461506 0.26260862023899934 -0.525793681806759
Ni 6.734263407643542 2.537913745744971 1.201346111564598 -0.07528267189339938 0.5465879928442909 0.24437178551599853
Ni 3.3720635294628782 8.741674933245006 4.2857704665047685 3.5449822742836563 0.04187530007754723 1.8929207093303528
Ni 1.2081667611657965 5.547259679001967 8.101482011881131 0.9142883979183222 -0.1248424850993979 -0.4335137040244147
Ni 6.455461430711015 5.424514090361484 8.125429801152043 -1.8847723691916058 0.4762202417540057 -0.6058377796445437
Ni 8.402870631499312 1.674042487274986 6.729678394694021 1.1735658969015594 1.3768185437797449 2.1030862812782876
Ni 1.9906862038620567 0.7832158649559785 0.2453569272068042 0.718160535010376 0.833001685922688 -0.08977932284767763
Ni 9.033668844548359 0.8489816200363139 0.5038498512535324 0.8680100836770729 -1.8785235600684167 1.1367219886003326
Ni 5.885812261858606 6.919938718547678 12.984072370581302 0.9783096379652892 -0.49406421191396205 2.8353997107502784
Ni 9.292612998011021 6.639039084206363 2.3589266989522333 -0.8609084396352851 1.0578076334916169 0.9033434688710443
Ni 5.481234746695123 0.6503800780331318 9.553914918401162 -0.26638351390039927 0.20408157053738402 0.07956767242199846
Ni 0.8101339371177335 8.654468322570308 12.441737498067864 0.3664557340336527 1.0290722132301373 0.37580709334156565
Ni 3.5794332794347956 0.8313892665679414 11.93066238240628 -0.23257813531518007 1.9620633297642855 0.884834097212947
Ni 5.859437716038773 5.252357016091762 1.5518637322809663 2.3194422983076506 0.9326237058924003 1.4411048645626405
Ni 4.309790974565851 3.429530019541865 11.541327844413328 -1.7089032565326956 -0.8781273746167328 -2.1107995907621455
Ni 0.25147742537955803 4.749385384073375 12.392164725891194 0.033213510637491186 1.7761933971389217 -0.004434124511953654
Ni 2.417862481509554 6.643308982398476 2.865485791285739 -0.19242573146601052 -0.09082859004779842 0.33947971966544116
Ni 8.191687806504309 7.273426622154893 4.553826843751209 -1.1334446034006416 0.8959502617307668 -0.29820374373478964
Ni 1.236834745752572 8.342933567138864 4.313101544103009 -1.8286343885474572 0.519435343688899 -0.5216354366640114
Ni 2.8720845553476964 9.08274470499219 2.179645047830084 -1.4949939012716122 0.13869893136651598 0.506530719812089
Ni 8.52536450125074 5.868191939624784 6.620818365807535 2.4287028698083915 -0.7706840588303888 -0.1621677039124175
P 2.112797833818995 3.204027186636198 0.5725113058501777 0.4372631437645179 -0.6544704530505826 1.1220736425595386
P 6.96583546265197 7.118358463575433 6.780219818447462 -2.077415873095377 1.3765701752143646 0.20667632784775372
P 8.70392642280863 2.709912330343807 2.3676054068715278 -0.676627448763596 -0.06478254369302391 0.5431046622813808
P -0.05580048395031785 0.24329376460873803 5.508597522227542 1.9663506442857297 -0.924801124524188 -1.1132843264026826
P 3.7401697744788924 2.8439852689917484 3.4243045218635273 1.4557449830733187 1.6447156661111932 1.620454222460667
P 9.224537022904473 1.7372239284276942 11.585634098055666 0.07201917065077919 0.30620938764808553 2.305642930530713
P 4.284926742080345 4.5614539260895635 7.451418913189773 1.320381800948255 -1.0877928669997976 0.8445510813231841
P 0.82349275178908 9.660504815825249 2.6218936931788623 -0.7898801721428655 -0.12080353914333389 -0.8580414025001352
