# total energy = -340889.2412162883 ev
CRYSTAL
PRIMVEC
9.11370375173751 0.00000000000000 0.00000000000000

0.00000000000000 9.11370375173751 0.00000000000000

0.00000000000000 0.00000000000000 13.33882666795952

PRIMCOORD
 96 1
Ni 6.367644503388623 1.9280495798765689 11.4491285128131 0.5008280130003568 0.8511505889175729 0.9690716643067891
Ni 4.7718896730187055 0.30062827473536646 5.897228840654189 -0.5377873638335254 0.812421290668175 -0.6394487828307697
Ni 2.6747535489552816 1.6027268136773583 5.02372226693529 1.0568367849379154 -0.4957693675305268 0.40214033191945575
Ni 3.370985827110327 4.439248602772599 5.178746366359555 0.6033440666884126 0.7212929099917706 -0.8541101857665291
Ni 5.174569555967661 4.814177258046841 2.6069539732441154 0.007766274208980172 -0.25473178859408385 0.08096943786553151
Ni 7.399498032889817 6.18378464555293 2.3116982268221298 0.04996141951979138 -0.6863932699011083 1.0057834179055258
Ni 4.990171989615447 4.701349606614012 11.491426122915273 0.35333539460161084 -0.10566154129557287 0.9412986079585789
Ni 5.685921241475989 7.831350881285984 12.098169121995259 -0.43367028420693704 -0.016083792935740044 1.0465361743428558
Ni 1.5412275413131642 6.670128328191171 0.3012744363255593 1.5100736784228703 -0.2113228254808296 -0.9523610364203275
Ni 2.4219849776718014 1.2029542021990869 0.4828084769847042 1.3319101133028286 0.5781120315945011 0.7922576712361066
Ni 0.7853460726389057 8.97512069185302 4.419513788845891 -0.3572185317061009 -0.3476062054273175 0.7959688015391067
Ni 8.697152729922387 1.8108291232748701 1.4369521894041297 0.7227946913482778 1.4064841891649775 -0.9443947303853993
Ni 6.9257586024269875 0.797428109594035 4.587502131740528 -0.05218902329872947 -0.14312482834835352 -0.1646202792179681
Ni 0.541016790953713 6.897724849938507 2.3082568923163915 -0.17937249782647818 1.4045160096950133 0.690805540036191
Ni 7.3856360896079645 4.150827222732639 3.6956815704970514 0.9060819508481298 -1.1465050361290254 1.2429954524482916
Ni 7.8853951440482355 3.5815123818840204 12.790134364092077 -0.03576738740759647 0.21575772132373167 -0.14622866408465782
Ni 8.275115340378655 9.178593239986245 6.46942452323285 -0.4953230240217276 -0.8799852537610781 0.6124390870111451
Ni 6.537560394609434 0.6433791764624444 0.2609718159567183 2.043482453572726 -0.6156853618625848 -1.1921835120027469
Ni 1.7401796924261395 6.369303197456537 9.467311726765843 0.3630960735328005 1.0118414511741476 -1.326831670338657
Ni 0.41346777398296525 4.736218636854884 1.1875620680710657 -1.2775173974845613 -0.8101841738075402 0.4806901045999012
Ni 6.507530741017256 2.097792310727653 7.376771190048294 -0.771812001787245 -0.17096653315097007 -1.4528329516328462
Ni 3.7086120932638442 4.489556247030209 0.5997764839947483 -0.5643946820084086 -0.37055227270052954 -0.29607846986167075
Ni 6.169476130791256 5.8724331870796105 4.927802358550781 -0.8291856546107074 -0.7398346775497001 -0.5627427482272824
Ni 5.237071335735538 2.974512376360544 9.40313940511528 1.0198406673295404 -0.315687759452166 0.29995517920825765
P 0.01459559642727577 5.548158496802433 12.452714979011866 0.8721482742151625 -0.7585831618017967 -0.3255569389367619
P 3.9836636700201247 6.277865408536862 12.799777573945153 0.45834310436326864 -0.14927722110299452 0.15212703184696383
P 2.0739417482236373 8.326662448335364 1.8093855126135647 0.8179046823802495 1.6484203686562902 -0.04105897482383897
P 6.4346484527694106 7.792581185874414 5.736976209434527 0.5217375094595144 1.3561808129247355 0.31902993645152156
P 4.498004650332167 0.9680940586268756 12.653223750711653 0.9354902288069179 -1.5961729813157992 1.5531070033642607
P 3.81331943472683 6.266327459690824 8.263789740828123 0.17239349540548374 1.9663501300650972 -0.28113830361207065
P 4.8810991840946 1.2336035876408156 3.6235721243204098 -0.3006419208626371 -1.4000222355897178 1.4491904697842526
P 0.2224427223220314 5.39300680552679 3.698243432598648 -0.35652536229381826 -0.4615053041413342 -0.21382039509170273
Ni 1.8988492733183475 1.320356932874183 2.8355675843210064 -0.14707327147314025 0.17245777298451587 -1.0950904291024754
Ni 1.688204240396946 6.513390852476974 4.937606880958813 1.022795121972174 -0.5041251956943898 -0.9388845992004475
Ni 5.800043038829937 5.476679718919746 9.415344477069953 0.8380130230943503 1.2585269724249875 -1.0985315935735402
Ni 8.77781812110429 2.4806225470836605 10.433550235325535 0.31777395255723334 -0.21113719183258473 1.186925091817285
Ni 2.2036662062603805 5.268331339323148 7.1596016566696425 -0.7120353959492446 -0.260604445324777 -0.06715464346962627
Ni 0.5084972735189297 0.2768843425642884 9.422173375229777 0.39578096536033125 0.07984766555626248 0.06638665495535018
Ni 1.8759283085886573 0.9351935883786923 11.588319374851721 -0.9192686247417329 0.6612558514035322 -0.7214613172488349
Ni 3.7841191281686086 6.973140747806573 1.6443035298192452 0.30798422016032123 -0.584691998804864 0.2194040598270673
Ni 5.78842306665087 8.361130475614765 7.7430153970955296 0.3856639315309874 -0.2397057474988968 1.6807987849869956
Ni 5.10896911695203 2.7940883848083873 5.196940052995691 0.6588205024891621 -0.23989883734630943 -0.4463298819524764
Ni 0.6579501658898115 7.351204517143246 6.781512368962694 -0.5298876493704745 0.1032238783883577 1.4220121095972476
Ni 5.031584659091276 4.994546567376978 7.051263415664586 -0.20552370230054928 -0.9719027059976809 -0.16331647280488004
Ni 8.319854511693983 7.426529277974613 9.007162651215504 -0.4163384777967088 0.0976093604150577 0.6339178257102115
Ni 4.7239880465299375 0.419532943775255 10.480435683855115 -0.5823288978893262 -0.5790252874373899 -0.806474843276753
Ni 8.33198485127856 7.104924902872703 4.722358516313767 -0.6092666028204345 1.1383464115776332 -0.4277032679902246
Ni 7.170343067814937 6.078694528535811 7.347866167488977 0.2817119167273535 0.4373071096285759 -1.1127883606028706
Ni 2.307662678837117 5.1707144593153105 2.7732489899968926 1.3800650757415005 0.5801786843155428 -0.6412333855350182
Ni 2.367630848984775 5.336839049809462 11.600977397878786 -1.116985943623986 -0.742923857997985 0.8921838527097989
Ni 1.3365884391101983 3.5189194650794433 3.980172210144202 -1.3384831385346563 -1.3656221608432932 0.7596717668802853
Ni 4.0944407381272345 2.5171684987997867 2.1769767250632044 -0.7873664045820763 0.8046429322743368 -0.22592797698851413
Ni 1.0857610867083975 3.4001679062612085 8.643879486490604 0.6002106632657533 0.3233699585877722 -0.9338506363209659
Ni 3.785094294461283 2.865548935283735 7.27331516009918 -0.9047704311255579 1.1369636722974934 -0.7188272220600975
Ni 4.020929604326169 7.0795067833374725 6.0066999150254095 -0.1617586413994569 -0.4204242178303082 0.5884604647083607
Ni 0.6063392620074122 7.504788651387673 11.498308791926748 1.236370490932606 -0.6128898013953187 -0.5747960798473907
P 0.10643621104915736 5.594656612926043 8.122224758983503 0.15909420719341633 -0.04812359498010421 -0.052666734266096395
P 8.531064594242915 1.6186575676922679 8.040977913507463 1.0231697317027733 0.7277674619725208 -0.26292358037625685
P 2.0823536967109155 3.3611521408505514 10.60707515319961 -0.7739843268482154 -0.42320795122303245 0.43500622940954115
P 4.117106519154169 6.1910391536741365 3.923909671908708 -0.9535985083718544 0.021598552106382157 -0.4648102001448511
P 6.945070540503414 3.977010666341129 10.670700652629982 0.17859371067892468 -0.13682099761751274 -0.6798302719716098
P 6.288610465163623 7.969122739663211 9.976909024317724 0.35935408999186497 -0.9184504997158116 -0.3349530354396812
P 2.3212329836015337 8.588499154770354 5.986265168656857 0.0909903124366433 0.7586189001357386 0.14508992249452432
P 7.203444039543856 4.071373954138827 1.5816778036814567 -0.9776372944886131 -0.978626654985076 -1.4199737390109803
Ni 5.533777072411399 2.8613930864102803 0.2588519684831096 0.318357078754213 0.8802768168595678 0.3562417696151284
Ni 1.5021935484951672 1.4499082305411986 7.2951242529811475 -0.18666697460536238 -1.2516379586146378 -0.4145590172987828
Ni 7.173077178915893 0.9971941144447285 9.507462148283397 -1.3574313975023846 -1.3006498697369664 -0.9964387434658323
Ni 2.904746974767789 1.778411679321189 9.340259406645103 -0.5802614738373362 -0.44662118794065014 0.6377032608945727
Ni 6.531909898334123 1.8273978365466697 2.308471064352633 -0.11863147119267957 1.2789099069567136 0.7561539835350138
Ni 3.9276143924505047 6.757063947497937 10.57747566642065 0.6040976570249854 2.0242953391213137 -0.8655225413685288
Ni 8.057388959705774 7.167444910047921 13.31224204267157 -0.48082765861903 0.8009207462277431 1.0714419364455998
Ni 7.8097422898847535 3.8484709897814677 8.424735924897062 -0.6265940383552886 0.06663348085883364 -0.056356010192225525
Ni 3.261338858258279 8.264835082639056 12.677727765768797 -0.6195499870243136 0.2566439180151322 -0.21133490966568766
Ni 9.230723624977825 4.864794768229225 10.293572860660204 -0.6868064461791269 0.16808021274211055 1.1402909368985137
Ni 8.51295566505091 2.331422104304434 5.864881572218766 0.47798427563296386 1.4699541846941653 -0.7437671798348868
Ni 3.912704373246619 2.6526254764448693 11.739888469214744 -1.5954805832344652 1.2268381259621388 -0.8171786028475023
Ni 1.3286230621027433 3.233678767620263 12.760708037682843 -0.2998654477079287 -0.13430568739482676 -0.808246333354879
Ni 2.9557472605043085 8.633502623492106 8.147848848221672 0.6376202142624632 -0.8671400223672937 0.05693913638920516
Ni 5.674784295591425 7.812412605060022 3.424010266431921 0.0924023622928215 0.309127589736145 0.9567743349966747
Ni 3.111454887703813 8.280547107765889 3.9227886863573156 1.0947549001399275 0.41079029428496994 -1.0831944489958378
Ni 3.569208881929714 4.591702637761966 9.455453886920992 -1.274700496861056 -1.593684667676307 0.07586399831816612
Ni 7.21720573208534 6.167808323019671 11.305736233382671 0.3960658435906017 -0.7697067825187841 -0.406377509929255
Ni 0.48580415138098615 8.958998550061045 0.38707631089579375 -0.19679223596482237 -0.4859528956607373 -0.41327809370383023
Ni 4.776519434482992 0.09873968829996324 1.6321786584568676 -1.4594149757257382 0.4018806505001659 0.16211705318014016
Ni 6.019801775421196 5.619837776165857 0.26651477052872524 0.05402401962493922 0.2570689213676927 0.10596930234397878
Ni 7.872052681875565 8.719982557615378 11.343071431836607 -0.6429758221474217 1.3003076559061992 0.37428757137324575
Ni 8.903887983969419 5.00713259214505 5.773523983891388 -0.051053624142705624 -1.2451454089117586 1.156287569437086
Ni 8.191287494023312 8.812304375791028 2.608954431199649 -0.7623115184959774 -0.3076641178167411 -0.40310886648031213
P 8.92803018499087 1.6330298783796324 3.565495047684247 -0.7862289485435233 0.18567530011605443 1.1992476179383798
P 2.0658032108464557 3.297465579605592 1.49280187686338 0.48433798576513365 -1.0896517745854073 0.8470962163425411
P 4.632158368352459 1.2097256840257906 8.156918806113914 0.7606274459253353 -1.7070785446191308 0.30968731889435697
P 8.594814951413564 1.4139091010452638 12.519995984984217 0.021888572542975205 0.12424496072471505 -0.5306396970451506
P 6.462837138220278 7.79407583327627 1.3453138990037192 -0.6292091073806324 0.6847943008451045 -0.4404312570798544
P 1.8512666264580249 3.2577298316050154 6.192630406334893 -0.9269112288886553 0.41946699612336147 -0.15465031248944977
P 6.7498367804877395 4.038500825001654 6.009995430272429 1.08844952674719 -0.6010688975009906 0.642428434284384
P 2.237687662059956 8.367446272257974 10.30068246089306 1.0950546907685332 0.17399246446148744 0.213267093691394
