# total energy = -340888.7070179107 ev
CRYSTAL
PRIMVEC
9.10431554684030 0.00000000000000 0.00000000000000

0.00000000000000 9.10431554684030 0.00000000000000

0.00000000000000 0.00000000000000 13.32508608111790

PRIMCOORD
 96 1
Ni 6.554406154346144 2.0122358199885055 11.47423169106267 -0.02153118920355647 0.9092585488038984 -0.5719611815017569
Ni 4.854366418437024 0.7972421507865508 6.000606117566637 0.14780423610189383 -1.2279817526482786 -0.06160491729599068
Ni 2.933628969595404 1.8603030023069917 4.8058385957616885 -0.2272271554159119 -0.23787357938616452 0.3148650064405545
Ni 3.4033752340426346 4.576448082354457 4.616862139023215 -0.09950734876871896 -0.673938074856891 1.5119310433465831
Ni 3.7482558108998627 2.5889668963110637 2.5335252564169277 0.045026187001703105 0.8811191102552052 -0.47830206398369884
Ni 4.9741427936418425 4.89740251798044 2.877699338388484 0.9643791439271262 -0.8181463660774104 -1.8284137878962186
Ni 5.388261690157982 4.841128743646221 11.349228528308059 -0.3299892636765026 -1.1031276975846551 -0.06650878235551126
Ni 5.620649344239996 8.174491791209299 12.201208555397736 0.4889821694053643 0.06525614089533278 0.4877711798163986
Ni 1.994673595317626 6.605390321353364 0.2239388492636742 -0.1603576472868722 -0.3338541459485476 0.4119102668220261
Ni 2.3632709141487482 1.48261957656994 0.2720260230670191 0.8533910482123174 0.2888870943195541 -0.791230772633489
Ni 8.362486802732883 0.18014618109913383 6.545495760730079 -0.684733365700182 -1.3814244179828725 0.8439761826563207
Ni 8.559203748540918 2.4880546628989175 0.788561185922018 0.984035484705473 -0.11512757180447915 1.5080229665414286
Ni 7.13409613321823 0.9882916601727999 4.617981969834267 -1.7714810792649172 -0.875276535431499 -0.9633972396298313
Ni 1.216700728365143 7.3281910361516065 2.920179164252589 0.362881129308517 0.7561928071927492 -1.167252295978706
Ni 7.701968710523283 3.6814119262271836 3.8581458098630486 -0.07883053714565778 0.5240993248234717 -1.1540409394947544
Ni 7.693820348117665 4.211337716374008 12.730667294157511 0.2135797398358064 0.4593322077494154 -1.3173196170831636
Ni 8.283543282711527 7.448641130706162 8.633109850775652 -0.30347064856068384 1.6231734211640434 2.052502911903781
Ni 6.996293213250144 0.7539028775357531 0.07933136386323338 -0.9655898764057756 -1.1068617107057905 1.4665400168062936
Ni 2.0905875594999572 6.504396149101384 9.221918712089598 0.10093045436849069 -0.0676997173398189 -0.0954231513970163
Ni 0.20981623500267443 4.8978304208106795 1.2289514953517349 0.1001282701821695 -0.15387795309979949 0.8900722056834348
Ni 6.821626919672733 2.152770034617691 6.703930880568121 -0.8994518471261218 -0.40203671646205597 0.6449247183436764
Ni 3.666726665265997 4.396219051983937 0.24084920494210443 -1.654086565803132 -0.25733400210362134 0.5471829461158124
Ni 5.925297950739205 5.807469899059306 4.706073506107205 1.135569363053128 1.0069141890758595 0.7036237748467817
Ni 5.675830600709774 2.9679522391699074 9.423007550218502 -0.3196698840283656 0.2977329747459582 -0.7539253513148113
P 0.39550421296918226 5.576147449895123 12.397966470625686 -0.41466854629345357 0.46688559461664103 -0.3498399798538427
P 4.179991557980104 6.313205522824312 12.578934771417812 -0.6812562057848589 0.6584566913918402 -0.3988454632182679
P 2.0251366351044395 8.566177654242262 1.3046939380302813 0.9903845668519523 -0.12279151610764014 -1.1264979968794793
P 6.672552857069839 8.063218846716044 5.704442733147914 -0.6147127135366703 -0.556679315642022 0.0031120632664204473
P 4.610580161302683 1.1826323796256761 12.536520496625574 0.7527202752631166 -1.0259874036572265 0.5307913921316665
P 4.182877626005334 6.257141147747444 8.081717905455681 -0.29305562387494694 1.581056180279019 1.0265319633067869
P 5.091925323744056 1.2467267610061803 3.6232772297972016 -0.31644314956095176 -0.5729340869379874 0.12990267323112467
P 0.2730711984906671 5.524307477227424 3.5167567380142613 -0.46708819754575037 -0.9027821970509355 0.44191529782454864
Ni 0.8757031420844466 -0.030903688658804558 4.601165388605867 0.4589493704887 0.8074693459795383 0.02211251562832321
Ni 1.9036395442631282 6.418178280965962 4.98307594804675 -0.05889651722589211 0.5584639183462704 -0.006595650939646705
Ni 6.295788967202024 5.779455920151947 9.079966955531303 -0.7505962869415782 0.156850148354246 -0.35307956983706285
Ni 8.937014634695489 2.5792616959486185 10.083798771894212 -0.21761997134345104 0.9588232471059035 0.5095972745525547
Ni 2.4929892019199733 5.26448852043242 7.004944133873406 -1.010164320582041 0.5278824460149876 -0.48267602468167836
Ni 0.7911896018175509 0.1598235279574347 9.225849955538475 -0.838988242523426 0.1702507380308681 -0.4692371255679531
Ni 1.5634021683297719 1.4344759560102658 11.306961743427522 0.5432553289266321 -0.9899503075280112 0.005867514524370541
Ni 4.347793197642615 6.819223380370964 1.4213866815627159 -0.4978239360667104 1.5905440651647962 0.6526364851656373
Ni 5.586708455918046 8.034922634027037 7.8197466884677285 1.1232283249892718 0.26599296333019995 -0.20164545029206563
Ni 5.285437550483064 3.1272504481208565 4.749873457724175 0.38464886000291176 -0.39652761371836875 -0.1001526956622017
Ni 1.1127021319859525 7.850514722825031 7.110199125796702 -0.1786865275030471 -1.4020274389452048 0.0665110963483564
Ni 4.850041868556948 4.898331158165215 6.665474251739818 1.949120139340056 0.7639783646754391 -0.32530728481980103
Ni 0.5234143836747588 7.393851359804475 11.161078743420346 0.8887635141743402 -1.0148056760087942 0.32370523044000377
Ni 4.8053396792702605 0.5382498658423058 10.200246609338702 0.15981025942383445 -1.0583889599163836 1.0479600512735758
Ni 8.601384042423856 7.229363690997433 4.777589725513475 -1.1224680497844797 -0.6832344125571523 0.24234164245984713
Ni 7.553076734231128 6.1744284410937675 6.943115816630061 -1.7050478873423476 0.061556580556558514 -1.9164000233992156
Ni 2.6213145294140374 5.1189014106801976 2.544119037975785 -1.4167812002156115 0.5193520399464734 -1.4567145460754396
Ni 2.9929435853189816 5.043945580864047 11.258032420437004 -1.2054956557306207 0.8045274897423952 -0.07745576828531822
Ni 1.2593271337093932 3.3320702347568236 3.5540134180547867 -0.9908123984179905 0.7032213972020406 0.35323383602674
Ni 1.6866199748075767 1.1870479726611225 2.5167359881351397 -1.5848022775850126 0.6185665400651218 0.09229874683542169
Ni 1.1620202092499001 3.6019403559046803 8.08354332072085 0.2574026505580277 -0.36203137971371196 0.12823248461755335
Ni 3.9200633493986556 2.944399374875679 6.891347768055106 -1.2417960328235518 -1.9155477027012495 0.49273752268273857
Ni 4.189924366230975 7.307469613989386 5.779729049618057 0.05288065004911539 0.29925609625870403 0.2938279832645972
Ni 0.31093331551440334 0.0636318821512246 -0.04196634246781746 0.8665571532806302 -1.084636580759003 0.39810010041181115
P 0.30999921274030684 5.771835608047474 7.937460936203415 1.172648784403929 -0.3651192746104164 -0.9464942932269054
P 8.931005786441066 1.8288931137043298 7.972092842074622 -2.7046496019171933 0.11310797027128908 0.84572221881315
P 2.0357522670205856 3.4080275392820436 10.33604293816243 -0.6658265014933501 -0.3193965757623209 -0.8321928168681474
P 3.7552752381788927 6.71663595290001 3.6675970378313347 0.1625849939554942 -0.5250375203670249 0.06769380380254793
P 7.242255401797831 4.222545128800058 10.41871194410153 0.4510193170083458 -0.10030721896219501 -0.5799025478360206
P 6.448686842330461 8.091861023395456 9.910865939995048 0.005109296202107329 -0.8308375883918336 0.26800742265706745
P 2.591588939185721 8.869451509095386 5.955474204586603 1.8820480282819072 -1.0749512351504389 -1.2845367662251879
P 6.8218818405077695 4.09086030887284 1.6056461924214678 1.4896992285315762 0.8259177824927131 0.9464253876621829
Ni 5.5158131508314 3.0633563616821666 0.18539299814310894 -0.14469628660053144 -1.7094781551995593 -0.6749775718649988
Ni 1.4403482395316332 1.2084977400663026 6.868749036029155 1.8676364808422674 1.5776432979427282 0.5384460804634469
Ni 7.180300534568522 1.1716525750880498 9.260654843404886 -0.11437218169569334 -1.2755332771749968 -1.4740455811547193
Ni 2.854166503588438 1.8201984923664913 9.110388115466645 -0.9970254692072378 -0.14982949406203872 -0.15947730156444792
Ni 6.534959336359105 2.123399512695318 2.1841544311368493 0.2015559759020529 -1.6172177178012406 1.0882410102808098
Ni 4.291528527623933 7.006599298438033 10.394419809385697 0.3099598558294533 0.4797053720891286 -0.3269880149563336
Ni 8.288559760572415 7.074289884455653 0.13921773060253476 -0.7328844714841121 0.1722752246600646 0.40714395578163426
Ni 7.722808488787484 3.889135989519455 7.9522518072248305 0.6523474931703088 0.4933975248642406 1.3998319739557827
Ni 3.196461454833157 8.36201337832496 12.40429579078701 -0.2910452783131374 0.9284317792982398 0.5446720067685007
Ni 0.34768197474796414 5.09367335232716 9.980329136247722 -0.9134728439955624 -0.7215050260025767 1.477495487376533
Ni 8.934975268015199 2.215353099619053 5.461965676587793 0.8622508125957924 1.0654222126140813 -0.3186087897537029
Ni 3.966158498962504 2.612246631139182 11.252155584757867 -0.541407734194932 1.7016149504013987 -0.26567337520725215
Ni 1.359511021878579 3.6100796139947615 12.522329599998047 -0.7032980160762468 0.11241788618279992 0.07772162035219517
Ni 3.2834713984202994 8.379165908796676 8.41411191355391 -0.38339698987368165 0.9470985024698075 -0.5310914398705886
Ni 5.637792770396173 8.072150180257845 3.575253786202616 0.47449451731215053 0.15761042355903823 -0.23789594798366767
Ni 3.327354199308656 8.993698103228871 3.4386052934446236 0.05969021677178108 -1.556018777694417 0.4259091522042794
Ni 3.793668136798436 4.32541479005266 8.952298959619009 -0.49309284913962814 0.06587166299214461 0.7906286202731158
Ni 7.196870388845868 6.440747879182194 11.304083869286274 0.7187390332216654 -0.1456005435823557 -0.1670880240321703
Ni 8.225712670420481 8.673699620734274 2.6293727590958387 -0.39551434196250596 0.22138972279852842 -0.910754930843767
Ni 4.43038754819431 0.47890338501434876 1.2446500666321898 0.748726323612375 -0.6485682286335347 0.46992978075960357
Ni 5.823866771341449 5.405268551581105 0.3368196158807653 1.3090396364625585 1.8948400378402526 -0.05578393973883941
Ni 8.001245770855661 8.943697202299647 11.136201201215485 -0.41382805267002926 0.0815546209450402 0.21737468810186436
Ni -0.04544783272916759 4.664322935917615 5.746337151522988 1.0429083477822811 0.7794137253939029 -0.00988871986862168
Ni 7.451454364207096 6.287067032917575 2.4604767807057804 -0.4755155023774972 -0.7396796400290745 0.06739889826994844
P 8.774739314563938 1.5433908827794383 3.333749980973401 0.04559131547655374 0.8471424961994443 -0.29618542775318024
P 1.8076345369254267 3.27754448900571 1.3624635514072296 0.7160378322404184 0.1976836374308402 0.24004564733681888
P 4.623180534005895 1.17472072942402 8.231052351482933 1.6594604285205357 0.8299718979574287 -2.3189324485507674
P 8.59274404697924 1.632394671469184 12.156143103921123 0.48295138983025215 1.4758160427915807 -0.5601914425603384
P 6.2944597371336215 8.008101320455024 1.1816982768515794 0.9720824261086548 -0.48429067746696597 0.7921957076499195
P 1.8050762242595286 3.3955273140497377 5.887756305622371 0.8521733737551325 -0.03126795687534615 -0.12829341976247582
P 6.879147985235521 4.200749397404472 5.8921263770801335 0.0819639405683169 0.0782443256248846 0.3456902193515273
P 2.2848554444285374 8.47455182267786 10.467534746600265 1.0480096735645887 -0.23414625113324836 -0.5624830668079926
