# total energy = -381163.48190220667 ev
CRYSTAL
PRIMVEC
9.35825928919831 0.00000000000000 0.00000000000000
0.00000000000000 9.35825928919831 0.00000000000000
0.00000000000000 0.00000000000000 13.69675841709476
PRIMCOORD
 96 1
Ni 5.195939471236434 0.3728545710204752 6.16160981693658 -0.11207155858697472 -0.028641060775460348 -3.455994594099338
Ni 3.9315825020782196 5.278657124415341 6.278388726171066 0.10339125720415743 -0.38197594115643896 -0.43908914122966314
Ni 5.577840671437591 3.721751614016509 12.63730059373572 0.42440762795808845 1.2820283979810372 0.6131993622159376
Ni 4.073528577812767 4.259654995289324 3.8241618520561893 -0.29795640361067394 -0.2354739688057364 0.2728063867076076
Ni 5.812948217632148 1.38336595156303 1.4740175369022586 -1.385686535693336 0.9441095950448127 1.5605097235862349
Ni 9.226916044410158 1.1116021040332789 7.9731292290324145 0.020409159783971304 0.24504644298551995 -0.3218278109116328
Ni 6.883074516835818 1.6703463285722362 12.591388974039406 1.9046601092544682 0.7918982310141588 -0.0001483526524061961
Ni 2.1117192660685578 2.799495168628872 3.812807476153715 -0.7433666019623585 0.026183857484219423 0.5513229364261151
Ni 2.5086591888241334 2.703591728219613 11.138286210651067 0.020248722946707064 2.0062559651210994 -0.5545141896699031
Ni 8.099582706640739 3.771565627804417 3.5520218025060974 -0.21148583342125513 0.7259157534757626 0.7799148334000375
Ni 5.805592625891157 9.197456244409345 13.522521728290057 -1.1027011515701977 -0.7474677686149256 -1.6371586796995417
Ni 1.838467455324026 2.4346634332312362 8.669979835551048 -1.0601198265645613 0.09792817720705717 0.9409718207467795
Ni 0.34511669071475276 1.6044922584941763 10.82836967613805 1.3192888249943922 -0.7186814405108526 0.8804701638172965
Ni 1.1738251695369053 0.1272208548637466 1.1464185716073039 -2.084774113232661 -1.6685533919607394 -2.2309102176035127
Ni 1.1283908210604268 3.8299237322532993 1.6650598479431193 1.0908079996770375 -0.8497665640858527 0.5933455607148039
Ni 7.080823892254246 5.0325255488685094 6.904220439352286 0.35288673709996643 0.38839932818427947 -0.06854946693462388
Ni 3.4819836547341483 0.5213972836738838 0.10271718894184921 -0.3198704300749459 0.025825188593220045 -0.030242086713993074
Ni 6.198742453665688 2.566109542129407 9.785690215378597 1.2277680939755757 0.28016256996236266 -1.4234259592256389
Ni 7.368487422185963 0.7655767263489967 10.328094919332603 0.005093612472823486 -1.4138324019999329 0.23516697908827885
Ni 6.298782244646853 3.5006720983814246 5.36781419575834 -0.8601913589636024 0.32971595541045795 -0.7929806654450602
Ni 5.0826764599880665 9.325421080880481 3.7305446343725333 -0.2089404412915821 1.662754525890775 1.1822870788246413
Ni 0.27050984079528184 5.761655598888671 2.5194913738625524 0.8880281786702126 0.10623078353548157 0.09454949054281135
Ni 8.853858399164773 6.328485359387192 4.518465140417192 -1.9379900908651655 -0.45545112752745437 -0.6987299370895902
Ni 7.424824142644954 0.8831969430866836 4.683551383706382 -1.0738238064142152 1.0797018624615469 -0.24428308245693411
P 8.821684703992346 3.5500837070231976 7.448790644488056 -0.09164980039751312 -0.5542676208767358 -0.18629699286045334
Ni 4.372225495355969 8.347978980916984 1.9210933975626514 -0.3797293112141073 -0.4908523898448836 -1.9576405181062415
P 0.0484589378539448 8.543959645344259 2.675963339546676 -0.5765739976834199 -0.9018748547453178 0.34596789849294607
Ni 7.476257135276617 6.566868296306108 2.354472510039692 -1.3308847573621079 -1.1991599433205797 1.308288874339463
P 1.1824441262715784 9.141914975983413 9.113987123015676 -0.3485662553477416 0.46374473499481417 0.7838434790304822
P 5.231706737946444 8.93421777102214 11.054489550184964 -0.27540680044493215 1.0405100227534338 1.111251098022738
P 6.122772105378962 2.283321665247382 3.59282381267241 -0.5284074652805222 -0.6854777000653743 -0.46940296172185614
Ni 8.300635547561166 7.68114686247415 0.5765511201684204 1.3931149669469234 -0.3911658351858231 -0.13332763975227363
Ni 1.5407344384797068 7.744474202564847 12.678623858940167 0.951840388030167 0.6915267344729317 -0.9416973860588943
Ni 9.085905794596856 2.1512391947227636 5.61154818529494 1.1474802555581012 0.3966823941286781 0.10976990703699159
Ni 7.724288437443577 0.6401957052464192 0.8297163633393344 2.3111862289464455 -0.2898075492512945 0.7608765858216638
Ni 7.6683354056122965 8.895147038810133 6.47429358869872 -1.416560085343741 0.1315533214606702 2.124019946107161
Ni 9.24238524688835 1.7738861084988604 2.8349685859996114 1.2310868739361638 -1.833018890768398 1.1340279867079373
Ni 4.617982740534303 3.9065678752033217 10.412906015097336 -0.9144694035808767 1.0638764653935162 -0.5407281916294042
Ni 3.3751029762686766 7.37263313101708 11.104318537187611 -1.0217260572777114 2.8823665664181197 0.13570822416930822
Ni 2.8985055510966666 0.7603239354530446 7.441928233007562 1.0116108232205805 1.2246712002178068 -1.8280492054679485
Ni 3.2396515324275743 8.527292585686874 9.123191906777048 1.3097580026858215 1.0354097254123908 0.08454198570813827
Ni 8.101211043743707 2.878132620791148 1.387262730699097 -1.8359949426775866 0.3889084066102141 -1.1735697535563014
Ni 7.167780836856397 8.944072017972859 2.862376119755134 0.8045079493583693 -1.0534375294483793 -1.1599161673286087
Ni 5.089245957955211 6.522248116381113 12.043436694024255 2.7929101741275 -0.9875969768044862 0.1251024236290039
Ni 3.3160991519341354 5.262055572572442 11.732903450229136 -2.381596917459524 -1.6815523753235684 0.43001854638696263
Ni 0.5582800548820194 4.690172352099196 5.5768683483054176 -0.3502510992493323 -1.7384046084259221 0.8273581144836653
Ni 0.21024639477074378 2.3911194531156736 13.218165871401082 0.45537527998419636 -0.27480670496708803 0.07355231946585397
Ni 3.7467943156690433 7.5007664161540415 7.046859026268555 0.8751865468208541 -0.24467440435808183 0.31755618011947245
Ni 8.460867661796854 2.913759513612972 9.684854972364372 -0.7487720892486459 1.208855316231473 -2.459181240902907
Ni 9.011676082523648 9.26923409256889 12.85275018062859 0.02191891156027838 1.7535180670285928 1.544248010311734
Ni 1.7515666602771505 5.654400590054701 7.666322444055697 0.18166103675033873 -0.43049368625116835 0.057865761968532596
Ni 8.866042852659392 6.771935830428679 6.843639748340445 0.25937314402083717 0.10974599577759164 0.718988173117994
Ni 4.117016408373055 5.27202211863371 0.786202329653252 0.6986749154819386 0.1412993451038405 0.4092998257823725
Ni 2.407721004958572 7.500392085785543 3.1567195751127013 0.031762380013261426 -1.4171894913976237 1.0119530370513474
Ni 8.138578572779048 3.855434346866457 11.889115256307154 0.3704121475782395 -1.7688428703111214 0.9086841643576674
Ni 0.015180032268526489 8.667741339947428 10.980937376078735 1.0124934829358498 -2.094294651128587 -3.5307375914391836
P 1.8665609494798219 1.9743119460520517 0.9683973424346559 1.3604537292684762 1.4694253087738887 0.0367667752063883
Ni 5.866861148955112 3.8649610547447377 2.0573075395295692 -0.4264827653195623 0.33287969785042026 0.42662314755216846
P 6.838622785576647 5.6389875371317855 4.400563240077211 -1.1441774164371135 -0.5878498277075553 0.07910795917676054
Ni 1.477032768020512 6.77700800692183 5.530777985858145 2.5839018557124596 -0.28766119233225296 -1.3295657814403683
P 7.304083882285833 5.46326750389948 11.049133818437674 -1.130568053183795 2.3335268014251747 -0.666950073574832
P 3.7881765379065286 7.248261866083527 13.627343589728788 -1.0021100828189966 0.9223233524076567 0.22244233243275885
P 2.006532432520541 5.159666858528951 3.816821233529938 0.0013991943403717836 -0.09567151996239652 0.04814467802602677
Ni 2.731675864116196 0.5638519624171162 11.28438922512779 0.14518351064959512 -2.0589234707181445 -0.12213742746340901
Ni 7.036924298288611 2.0737060171475576 7.15226952221175 0.005184629524733007 0.09106821686243026 0.464438161517413
Ni 0.8623860462500217 4.3952374547594015 10.174609174163175 0.9322588663538138 0.5194507703078667 -0.35102911506593737
Ni 3.7783035744373863 2.533159111442346 1.7590747916433047 -0.18933372280424812 0.4045096034825808 0.9371079669159991
Ni 4.139251632261852 1.7952229395032624 9.18197768367194 -0.9235844785082674 0.03340917158806504 0.6955661946496279
Ni 5.514017343608635 0.247406170451568 8.120123149786162 0.9571412314177904 -0.2814956869514894 3.66115422819225
Ni 5.525284687700433 7.389056875934942 5.131531252206698 0.3760626609957975 0.03668527123617553 1.1071514740320674
Ni 8.265673091143427 8.414750160397865 8.822479220199483 0.3532893718550238 0.4103673478149384 0.27305758348646525
Ni 5.809504378241964 7.609135057834293 9.529505997785744 -0.334060862642715 0.20257798940866403 0.6847356796930272
Ni 9.159246472044883 8.456375697374874 4.918122701648065 1.650133494692655 1.9881888232067437 -1.0232008420510248
Ni 4.002873720758717 6.07713187519981 9.2374497009797 -0.6559982025490185 -0.6331863468608256 -0.7743828478382148
Ni 1.5618560295222221 8.398176683332604 7.0581450868787785 -2.124566048418618 -0.20063474963936415 0.39988238912321455
Ni 4.980783733682835 6.33636501364408 3.1394198971325538 0.49727320576956296 -0.14507423876524048 -0.5525773776585065
Ni 4.909333424595726 1.7924435365171627 11.568404905618488 -1.7845631092598557 -1.7396724193947524 0.17390144740957794
Ni 3.214721129885589 8.719417647318616 5.188715830950339 -0.4723674436668187 0.6217192267614905 -0.6426132966016804
Ni 3.1670969487533953 3.469312571760481 13.31441369574936 -0.90041961035603 -1.103975390296931 0.021558700007382227
Ni 6.366002620569932 5.377077936552752 9.133847220716353 -1.261241286032357 -1.2739127108524382 0.034354823330785995
Ni 4.007927180733444 2.2512509109262915 5.313917173476036 0.6476961104412264 -0.5749020092976357 -0.33328696059116797
Ni 2.4974105612507604 0.4097279839693983 2.860266768128646 1.2884049909313424 1.4106236652546482 1.8382243462287375
Ni 8.786909412758856 4.788930061568254 0.4922874825676151 0.47133334597534954 1.8815230090163726 -1.4274985866331158
Ni 1.4011560023259106 7.146565663221757 1.1036756584803278 0.4065983676908094 -0.6628123972573746 -0.006850190152614009
Ni 7.137198045750087 7.689129457582376 11.785977881526664 0.7227802931705746 0.46934485479041105 -0.02722129760979828
Ni 2.3432145242071063 3.4006135908818345 6.439517361639309 -0.02886423252985997 -0.3114613800756442 0.5898501459670358
Ni 1.633091098647445 6.942761494092869 9.62295851010726 -1.5646839095685825 -0.24498319384775227 0.4845123065594688
Ni 6.1371463915292965 6.990666423001437 0.4136930783977163 -0.946573226093957 -0.3196925097361849 0.8760000438610849
P 6.6811139247717835 4.945896143338795 0.40657612226664275 -0.283382362451241 -0.25059925448294906 -0.06674532384634957
Ni 9.212934805146748 6.144445833715013 11.929506438894038 0.3553344273095106 0.17799052987728703 -0.17534692160685286
P 3.022399544810385 4.173708742682119 8.78741569458225 0.12266064695673068 0.06890813582562326 -0.34857294021596097
Ni 5.05907493025425 3.6971768253245965 7.804687113989638 -0.26761867185908106 -0.1171253189607983 -0.13276405393931975
P 1.5511314644647467 0.8319099392987344 5.2950986500257065 0.46519869383252144 0.4877051024651536 -0.12230429205857644
P 6.843086675220989 7.231482507315592 7.74059988325089 0.21371832229619966 -0.7477027674438671 -1.396441203106679
P 1.1677984506040833 4.287374159076622 12.32313821701801 0.16640693880474566 -0.0833191690446307 0.3701964320230076
Ni 8.576049116183775 6.041832521450422 9.250351932955915 1.100404642226537 -0.12963630694361547 0.3256476988783553
