# total energy = -381176.8480819877 ev
CRYSTAL
PRIMVEC
9.13110895353928 0.00000000000000 0.00000000000000
0.00000000000000 9.13110895353928 0.00000000000000
0.00000000000000 0.00000000000000 13.36430094014675
PRIMCOORD
 96 1
Ni 3.274233006920923 1.543823964468574 10.931422909795781 0.6966673981336067 0.5450103639445258 0.38555363120536823
Ni 5.000907425858769 0.2290931289546018 9.774421935228464 0.7140246584651316 -0.5120079408765763 -1.2441233954051476
Ni 7.957606122958523 1.8314721550648787 1.2066440739837017 0.8469728033907994 1.3285643367590474 0.6666711088818325
Ni 7.221903552819011 3.5149929536370923 12.183284234742372 -1.2264640304521714 0.04996707594674621 0.44424960238468
Ni 2.009254844129384 4.7565041667164705 1.9251673759564962 -0.8413672842785638 1.785918080625853 0.2550732310939027
Ni 8.997292437404477 8.67574957080368 0.29813252976342663 0.004398129067695652 0.09744043893736122 2.826999145391409
Ni 6.0303212428626285 3.0786811800588048 1.3602585441773325 0.3702010600086979 -1.119785103635678 -0.5469487186178194
Ni 1.1795018529644803 0.6505951571094835 10.7890269199198 -1.0503966857395264 -0.7693617404745395 -0.416652666603018
Ni 2.289041150016673 1.2864088752329566 8.739062853260561 4.005633715065127 -0.6341890770937272 -0.7264865383775682
Ni 4.045446459329147 8.030161913780637 7.6476542859159435 0.23992223438507712 0.5981406681106021 0.6450044225416762
Ni 1.9673795790009907 6.637037769564789 3.641210444874938 0.17663530140097322 0.45785562320388895 0.43192064850568196
Ni 4.108496765851511 2.696288604165463 5.342513164797137 -1.0586077607954092 0.6214726579683233 0.9086512542372029
Ni 5.846712906359851 3.7716501608392043 7.156596036192039 -0.5040074391696029 0.42196328018265394 -0.1121188668851424
Ni 8.783496655085198 5.91911346833173 7.685795840640717 -1.9554088005622454 -0.6307039467586041 0.40430520078125853
Ni 4.419456677309741 4.295437957079946 0.32409501152085385 -0.5748675565152744 1.8155371890438665 -0.28155456521388283
Ni 2.4128041991990203 3.5941596672574962 9.491981216002138 -1.4370571768558282 0.37125032720881873 0.5538079076314978
Ni 5.4151767027035325 7.597758254784763 2.9866943896306677 -0.3617022785090674 -0.3621887312271827 0.5628463636846822
Ni 4.631289271228973 2.1922513963400547 12.913536446016828 -0.05525532092887904 -1.6663471283380398 0.37599735497550085
Ni 2.1313286381768095 8.117062676586333 1.6708851701629963 -0.572279226962808 -1.36020510359278 -1.4422382068361355
Ni 4.332866372204517 8.797595087130171 0.8602426766839224 -0.32255209067216706 1.2148606418852883 0.8278275979209163
Ni 2.114755675636898 5.179877159072138 12.767945481158636 0.6990014455834219 -1.74079959102066 0.3681729738350756
Ni 2.1983144526080993 0.5964212014879732 12.989806771914003 0.702294514512397 -0.4116598413741169 0.03995905689144086
Ni 6.700051551651803 0.1414837921031224 1.76216338654535 -1.2105023649165927 0.12453395272004358 0.8631982641107263
Ni 7.008527801506255 8.264055266651068 8.562787710265113 -0.06366231404565165 -0.543722755481354 -0.97299259662775
P 0.1504149296569998 5.438597996871507 3.065650174636927 0.39921467363222857 0.20130400779224686 -0.8263173319239769
Ni 0.0827260198452289 3.7748095244969506 0.6221563186353487 -0.5083137798544407 1.443724818683991 -1.2419945219876027
P 8.589268839004506 8.548909337943122 11.726679484883807 -1.0422406322912952 0.22597939905173986 -1.4564124414539883
Ni 1.5738561814348377 4.715450701383444 7.2312629393773635 0.24371846820271573 -2.0569938577955993 -0.7740725156866475
P 8.524027066361162 0.992916774980705 3.1613387165877525 -0.1929353241125774 -0.5122018020549373 0.4867226839472263
P 5.667368797684149 1.8753014774844794 10.989905835677668 0.817491763212547 0.7601229954850909 0.8105343580581074
P 3.04430255528593 7.08384118719727 13.026718366278375 0.8682491962710723 0.9662804747148971 1.0208382553561195
Ni 3.2253176568788815 6.110903278352832 10.779484911184701 -0.07244211712081072 0.9636160405088565 1.4005050887634076
Ni 2.30767774315384 2.8179606294240425 0.9466631431647701 0.8605220028301438 -0.9063444604808971 -1.9578210095481634
Ni 6.947020652377416 1.573664428149252 8.323580965162188 2.01702605915341 0.31501284487232845 -0.04609987968185609
Ni 7.270134069698247 6.185303553160105 4.0263167863147595 0.13498471573972237 0.24546424724922888 0.14317470774968247
Ni 0.3395046707948785 7.527010423512458 9.1878230675169 0.08135098957466634 1.5812631540835027 0.6770699356176533
Ni 0.5945621077286751 3.0326147359740365 2.7346830906050332 -0.6269359950757396 0.641750691491069 1.5483257799255334
Ni 1.0273136619712542 8.84453811766333 4.669419868623142 -0.07572747274030184 0.32663603093355353 -0.09077588243299205
Ni 8.10123846497109 5.982912525778761 12.330452142096785 -0.8890280806896367 0.16004680091467274 0.7811127103628805
Ni 3.832088970234066 6.222202363972105 1.7735900561444933 -1.4269421999090135 1.6007570011420562 -1.3508992528108217
Ni 0.4645789472062791 6.3160792939295884 0.6372354317694587 0.16842474056572282 -0.0858632756227231 2.459378701625693
Ni 1.457772394784758 2.7107705427816065 6.292394110716213 0.6064849263102393 -1.3675206634175867 -0.4599320461169434
Ni -0.06799845440135932 7.695552430433497 2.827151090468902 0.45204878671412474 0.16508410622826408 -0.33365411412259954
Ni 8.131973777317834 7.590690776544602 6.234780466395647 -0.6972003878189412 0.13881437389845772 -0.0015064093421974056
Ni 7.34746543044233 8.531925475505528 4.273074958426228 0.8950909990542648 1.579802767487892 -0.7111640490878849
Ni 3.1685860776720105 0.7746695771031868 5.988101734931065 -1.6464581027235967 -0.26690930449688227 0.4419698052115678
Ni 4.3420340054772835 5.030720496212934 9.104791155525618 0.1072671952197959 -1.0541805782619909 -0.721687574327028
Ni 6.891065217421725 0.7595146757657262 12.680302359204457 -0.9152921565924881 -0.24285689153336884 -0.5468751850674066
Ni 8.563153867729493 2.3180141583577965 4.931346638735327 0.6203562849756928 -0.6938540970545276 -0.7658946078615454
Ni 5.296225747878504 0.14306530015376298 4.749218454975096 -2.122016799634203 -0.385475212558949 0.2883088532185809
Ni 3.7563738157542064 5.15241078368919 6.028141647183138 -0.15817992290926305 0.34721051265079556 0.8247317326044119
Ni 6.256562726527306 5.850566234289241 8.222239353730117 1.763975257806175 0.14619318286103208 -0.9080375319126038
Ni 8.947007421036822 4.700156094080771 5.099803726344179 0.8657300293936445 -0.00716180785576186 0.6043336842951914
Ni 1.0657282368502667 7.313945129900174 11.976204382973012 1.8848420460872763 0.02537138888525308 -0.7436879898575193
Ni -0.1460758267374593 3.0726637793349467 10.699887209227171 0.6544182596564084 -0.23071228575103492 -0.2709348807165076
Ni 5.67580594224992 5.134139434905518 2.325174773908099 0.5667914643753593 1.2054061813406078 0.7740997693801571
P 1.7390196780860334 2.8883066919075016 11.957427170759749 0.7256270185907503 0.19512384712346395 0.055077914810750306
Ni 4.27456424227761 8.349997263028836 11.693762750635804 -1.6093000056160605 0.9629989757501479 -0.058086619730087066
P 3.503551674263809 3.5366154193640957 7.647440617969147 -0.2356007241915878 -0.25537919237009565 -1.9650470949829577
Ni 2.7622152099716124 8.212628861678736 9.732538452102116 -0.20224194622548397 0.8882454368873413 0.06879037930083635
P 3.8137171792531834 1.651434082117531 2.0135190719564577 0.5492637399042412 -1.7662910504235452 -0.39355464713297383
P 5.009298914880355 7.101135507335337 9.340336325984737 -0.5012445317124851 0.9861802989626176 1.7021926772817395
P 0.21736787209647487 4.454164022000762 9.07377186569403 -0.6007706495342814 -2.069206340701391 -1.8023970521174832
Ni 5.043157066449497 1.3004342584072286 7.38084967746281 -2.7196278204935806 -1.8362124580050314 -3.056769121833833
Ni 6.964314972515483 3.692729987157411 9.362053755243648 -0.5082348469873892 -0.5226049996661323 0.4312655314201863
Ni 2.279079110275051 1.9644028375199927 4.00208647590379 -0.20644827099734767 -0.5787890030568676 -0.16553250661959235
Ni 5.503227985222742 6.936620319411598 6.035545150228516 0.7560578242767817 0.4145988693977828 -0.7781060623260728
Ni 3.1571174049722153 7.720526013103832 5.585114856165813 0.6559033288423672 -1.304797573356753 -1.937325460697973
Ni 5.548719169450753 7.288706745073553 13.043089531312981 1.7245831291617975 -2.182126106221274 1.8453069641071318
Ni 0.34668811411727435 1.8779129746119807 8.637387956355925 -3.0197154115146447 1.3772821136797246 0.6201994476828545
Ni 9.220776326200252 0.5694205126557316 6.792058430519382 -0.853026465784047 0.2586514353634642 -0.5596003459435589
Ni 2.2675191264868815 6.235497258439384 8.599313058725665 0.4176129736337582 0.7321223965071069 0.7931017644039566
Ni 2.2750796846042625 4.260438416906127 4.323885926662918 -1.0768769914182421 0.7196564028296122 0.8678959266967117
Ni 1.2916683939233085 6.791947030991565 6.429765251398963 0.20171075631236227 1.6181453718218328 -1.2244053481509298
Ni 4.733849885690839 2.465901597088599 9.049930540519533 -0.43368133995053054 2.260902393090229 3.062685230207951
Ni 7.30027585997056 7.182402375988347 1.4077421363536673 -0.28839575650543237 -2.3014528037087656 -0.4997831166756102
Ni 0.88560250525808 5.317793426952482 10.753411029899455 0.943526211737517 0.6622616669602273 1.0360468447757576
Ni 4.0703469931287835 3.962755137697501 11.27491239648731 -0.05258882984030942 -1.1069812670027903 0.549115387251835
Ni 6.3446779268083775 2.1151209199903946 5.5748377931693005 1.957655944725209 -0.7646604783441283 1.3887122098935374
Ni 5.648969613376752 2.0863122716083446 3.4890049047749208 -0.031175397161539862 -0.7614843946089918 -2.047219294907339
Ni 3.240685313052254 -0.06797745285103325 3.4251903244428656 0.5714665012535255 -0.175735158184207 -0.16360443635894406
Ni 5.678472226030447 4.14780618939659 4.594794055427586 0.6685608697053776 2.3477545149887824 -0.018890152036283595
Ni 5.721023193212809 5.7284193913711166 11.185545321184627 -0.7898164087844657 -0.6347678324153325 -0.005081528287965442
Ni 0.00903340597285646 1.740918948724216 12.640797529930257 0.396438139328356 -0.0861044450992517 -0.09173876056689362
Ni 3.884118028389667 3.5708753397220834 2.8060618814980045 0.4365311506944998 0.6627671458417361 0.018935917672554484
Ni 7.7741256219794685 5.652494221387995 10.162588111239703 0.762668387614764 0.7578779082046561 -1.2506447414634332
Ni 8.348362794546938 3.3387534219661106 7.148590793074276 -0.528378926035432 0.5368373412154303 0.061202025430617174
Ni 7.549052920245982 4.068886015714797 2.9782079370771726 0.9827486475732495 -1.2449021825527014 -0.01594881001977253
P 7.198783585242672 5.445647212893993 6.160728999945965 -0.8628560502799592 -0.5448311580541843 0.08772475431149408
Ni 1.0901904774257063 1.0444253599325732 1.8051699960586993 0.2392892287867685 -1.2396165086737294 0.420005899345967
P 1.799038456474374 8.705882229967155 7.554050376112699 0.570505680002153 -1.3117632060413085 -0.04544964769236689
Ni 6.711629797657648 7.796953394073011 10.928375858776734 -0.24173100545904175 0.13215830203452078 0.24910235822244842
P 6.6866014283342885 5.1283868363379455 13.796769428531597 -0.1311028641868129 0.0030243886486205976 -0.9295304116790573
P 4.034845241968907 5.877028187700075 3.969745001512544 0.341942836493953 0.03843644959932735 0.2045330562525058
P 6.416658457773735 9.112435719844303 6.537682174304857 1.6866475304582886 -1.205415951532621 0.1602504322850466
Ni 7.958099202835743 0.6453977299592257 10.214856404446845 -0.5518209591084561 1.4267866481677556 -0.48389009959443763
