# total energy = -381174.19581479736 ev
CRYSTAL
PRIMVEC
9.19561267013638 0.00000000000000 0.00000000000000
0.00000000000000 9.19561267013638 0.00000000000000
0.00000000000000 0.00000000000000 13.45870864951970
PRIMCOORD
 96 1
Ni 7.162756729955648 6.7383792193546554 6.675774570818953 1.5858278906360495 0.6496588905945521 0.9136096266837426
Ni 5.2487543856648005 0.2726784129924664 0.9367570315259637 0.1494507705663813 -0.426316157834711 0.6066209376674714
Ni 0.9173092309372304 0.431309163201016 12.100926549340889 -1.6865341448088762 1.0582655469646418 1.736298874936829
Ni 4.758324791452823 4.08303580188631 12.041829107360837 0.788577394171042 0.33371016417151556 0.8703790981298816
Ni 0.7126912232960574 4.027788562803086 1.5008480785801794 1.2558298852087983 0.8629496384350299 -0.7980997318391803
Ni 1.9884960000520318 6.996683970660872 12.624375748429705 -0.5422662255404854 0.43419350370025867 1.0342653273953026
Ni 5.671550250939177 1.1335431361166737 10.370957834414284 0.016352473216094416 -1.1988416407492128 -0.9521116394136828
Ni 1.812087372460061 5.098544057698014 8.810568165776868 -1.169876106754798 -1.212200835664938 0.005291073195610242
Ni 3.6622353844949322 7.450147203169362 0.8891789331543594 1.090827282950747 0.9954334421297695 -0.27172960870366103
Ni 0.6470529422414552 2.8392740559741103 11.172409706054353 0.40538249300583734 0.18959468977511865 -1.015122950138897
Ni 8.976747594175068 6.319850118217198 1.1895802783019693 1.5229039974183192 -0.18751055355258028 1.3065438666238984
Ni 3.077192134669225 3.747451124272601 10.453890303641959 -0.12670164979532372 0.4446566080151116 -0.3472958732757503
Ni 2.927836998652294 6.126843410308113 10.78903910922961 0.37589039708399136 -0.5868828358085957 -0.8837817446890327
Ni 3.1787760644549055 7.222022451641963 8.628983327985171 0.3473961462990404 0.06666433409676906 0.5949882385245495
Ni 4.623397571235089 7.9255143843290226 10.307957774546928 -1.4135904611924557 0.9408157547848893 0.7067697766749312
Ni 2.6003720467560427 7.956126577888951 4.623106989884385 -1.2408228702770048 -1.18725547857351 -1.1094086454973604
Ni 4.694415285522663 4.28379441101829 5.714445943495006 -1.0858326579496331 0.12803399545350208 -0.16582638371092728
Ni 4.973309012911991 2.038685652335027 2.9234598871670054 -1.2261002193548498 -1.8252492741253081 1.9018416659690662
Ni 0.07915767035223127 2.7322647148936388 7.843546534838337 2.527169178907106 2.2407200046050826 -0.4522058811172793
Ni 2.8578675841742234 0.8810242641099181 0.4647480880016541 0.6624501288219494 -1.342237977591398 -2.7345638729781228
Ni 3.2884061550591315 9.154195325964178 2.586791046855575 0.17479259176527961 -0.22207903555606912 0.07932855982799886
Ni 8.34243425330277 8.896166443028882 7.678717941896417 -0.34406322527106553 -0.44332323391566875 -1.2709834530207853
Ni 3.0585802152443833 4.020027465967827 2.611419655450215 -0.46492281446331546 0.853548142615472 0.7090012371086113
Ni 7.41757634417589 5.952319883250773 9.02631102525607 0.1531117643577363 2.675577881362218 0.13667830139206139
P 2.9995903619289908 5.147483106699498 4.451144440870434 -1.263261144675863 -0.31020231085756256 1.509198989127401
Ni 7.178232945564347 0.8647783757463476 3.1608988744579523 -0.40566428591231424 -0.11954498414588442 0.880820862288496
P 7.964512976364967 0.2837545280849669 11.300658153012074 -1.2869412619016223 1.9658104555115434 1.572772343003672
Ni 2.1520675527837865 3.8609433720697295 6.181840528735035 -0.09729568582938082 1.5483728311133849 0.3743305087960392
P 0.2850750180204447 8.359804765058465 5.738874087740111 0.042395691357391505 -0.738391003124638 -0.4963635494711
P 2.057113659512587 2.6886131430014846 8.930606770015965 -0.5284827986031478 -0.41374809136171325 -0.1373467882139957
P 8.718957797161238 5.2822540015070425 7.432329784652774 1.8628300605925594 -0.34264166233319054 0.13164151029910232
Ni 7.456768044071478 1.943308760895081 8.899032715402756 -0.9902426419574494 -1.5388024138161307 1.8983207973000016
Ni 0.02665072375349512 7.311376216983454 3.724831756979506 -0.0527045294825673 0.34099384231712243 0.5698557051229798
Ni 5.47197787580216 3.3407935586971353 9.680687353184258 0.15084842224485634 -0.20476574108860218 -0.3441550136539234
Ni 5.150848700824741 6.9538875907185735 5.652132795871245 -1.0552907806070342 -0.9005245113650104 0.4460858842624705
Ni 5.543308240910111 4.2221194388925944 3.248810767780761 -0.372570588682139 0.8286745193022438 -0.11345686897027557
Ni 3.8062570653407124 8.801442440066783 6.246617180911125 0.21690957553998771 1.200843244560274 1.7719155956991741
Ni 4.780210348879266 6.67286967687315 12.374367278598335 -0.48490439979156486 -1.3582883461860413 0.07984792266657861
Ni 7.590453856620066 0.712064082532829 0.08640013465015853 1.110369466748733 -1.363342106559865 -0.9466277334809761
Ni 2.4520927973857063 3.0306531404947576 12.7943060671112 -0.7162414636107923 0.44849295104206627 0.17142444662399509
Ni 6.970053477254577 4.103404083272685 7.6064312331026045 -1.1272071071313619 0.1324012712832623 0.373276356499912
Ni 7.612155501799227 4.6572742071842566 2.2232710184411126 0.02757713828732025 0.2604450369287773 -0.6027663398080716
Ni 3.7051513073979625 0.4241117574036725 8.780393683365467 0.8003255358459055 0.04640455540646847 0.33752388149065093
Ni 7.264745266685348 8.628693666195705 5.233647833673137 1.2365414692928316 0.3359845620279891 -0.5168393008269486
Ni 8.894925035359734 2.878143909436958 13.274027370725241 0.4754149722438909 -0.8825021066456608 0.9654497512834858
Ni 6.337128673849251 8.18037078099872 8.91838580118414 1.0481027474990272 -0.4027375991838225 0.537522797318229
Ni 8.730820137110866 2.745763873844067 3.14659234074196 0.5093363075816841 -0.1589584529465004 0.025421525396898157
Ni 6.032073429284195 0.11950250003827244 7.027720081950783 -0.8919061735683801 0.49100331360045113 0.20311020776305022
Ni 1.9299107536806575 1.9479985232007475 2.1406613152074163 -0.7128208679650175 0.7120883606743672 -0.25237254433328793
Ni 7.897265463146655 8.210385259754986 1.9731540403838477 0.5473413260705476 0.6201963623590608 0.537238433308591
Ni 2.8299129225875057 1.7478836069342507 7.04405884599923 0.6596635672157478 1.3271373745045336 -0.42936522907367985
Ni 1.7319016326455285 2.6188736188325152 4.360890425078501 -0.5336018649972681 0.8459811289014914 -0.22912360110767635
Ni 4.8401105678187 1.701280243473236 12.425308212411473 0.0905953909910698 -0.4364208503688806 1.095811880649532
Ni 2.9926844570435875 1.4564562598927189 11.088602734090857 -0.23225006255180003 -0.5034878192207071 -0.9181100856572575
Ni 2.0011767495020596 8.585317962674472 10.57917684385722 1.821360223483547 -2.1845735393205024 -1.594300961104067
Ni 0.764470796956797 7.056271538779928 8.475486488159474 -0.7493791267050256 -0.598562329029053 -1.2534580425425121
P 6.831521576990136 2.774261076560264 4.2922782829853645 -0.12477306531404318 -0.05889574589494373 0.7740496328685121
Ni 6.03891496488305 8.60348849270584 12.043739955610086 -0.1498505771079613 3.083778817653457 0.6315650092073188
P 5.775129628607858 7.603465648115198 2.1463138581275993 -0.7741475918989571 0.6578571101346283 0.45391000829257955
Ni 0.5799994564440254 0.8064211805616017 8.997590369159429 0.8601250245020411 2.079202789792471 2.4739288315257264
P 1.140697322535906 4.873830878357678 12.679610113655619 -0.2731496289796393 -0.4016474514434373 0.14885118930916946
P 5.4775412212824115 5.653177417435802 7.476030093290459 -1.1240351371612836 0.7237755672043084 0.1627462021237068
P 5.165635245506135 2.032993568281679 7.809577023204293 0.15914640058759041 -0.26857923600013744 0.13521637213455423
Ni 2.0699967124346235 6.624178909405495 2.253526422241316 -0.6862713996112633 -0.9855490931365221 0.9429559410563437
Ni 3.3454189517162534 5.102865995509117 0.4187838195999409 0.03351278704546486 -0.01757374721770522 0.053641696584856007
Ni 0.7088198704907915 5.954103832049399 5.7742974256889115 -0.3842660227421963 1.01400966247006 0.3273335712212105
Ni 2.830666962801358 6.55701415669846 6.5578629117196625 0.25403527674769155 -1.0914662020863268 -0.8272508994818398
Ni 8.952149331101229 3.708498510298477 5.3575614689624445 -0.028377522701428546 -0.27163190678353216 0.7031910581847374
Ni 3.767718253922971 4.390693404750393 7.9496013713554206 1.0736929372633057 -0.7148705514051946 0.5253990174715016
Ni 7.476134003710173 2.193815632916582 6.68685160547269 -1.8895667052564555 -2.1609700409689494 -3.6030817495295495
Ni 8.908221890838155 8.196518276309995 10.079091856662986 -1.3341665134371732 -1.0425046845859596 0.08258820441587712
Ni 0.9976871590501712 0.3080796814715933 3.591564344793485 -1.0140695691737183 0.3311915115147199 0.5308304728997181
Ni 6.58930914732101 2.2318119032048442 1.375923845492062 0.39435683131929505 2.624031119633178 -1.0789827249073354
Ni 0.7044179308521199 5.1290091214601174 3.5611204309398183 0.48912537985144794 -1.2063577466205997 0.02572877222467182
Ni 4.965695045874557 1.7753141186162176 5.412486861612926 0.5874862737205495 0.2928180539428441 0.6931449868026449
Ni 6.851356512859396 4.839751938936502 5.306876173173027 0.6216390083428585 -0.7407332781045695 -0.5743137408943335
Ni 4.269669950427106 6.319206425351714 3.2505202321192384 0.4522768435645307 1.0651851569026105 -0.47063452013611207
Ni 6.937298706013825 6.7972311384845865 11.267859242831975 0.783501008089399 -0.593199779165559 -1.3601937907388704
Ni 6.776191577395637 6.631921615016026 3.9199028798643205 0.24754272704481237 0.5666415690610563 -1.525135457851999
Ni 6.804422107353275 7.229029508263371 0.2519147202744373 -1.6975942592777793 -1.2128150722101692 0.6539143234367965
Ni 7.087646968166073 2.511597604993486 11.962113263338106 -0.3204383867632739 0.4012880112214895 -1.5848364732570577
Ni 0.44019672255087205 6.015254654270343 10.673455779180898 0.019929391934075356 -0.678920872783463 0.998727539500009
Ni 0.47952543707068546 1.301684908193362 6.018963244736767 0.031795804354358144 -0.0012019907279011556 -0.6362439027402268
Ni 7.990812427726155 5.198086561538875 12.863859839910415 -0.30654517372094947 -1.6896572638188898 -0.05801488595188718
Ni 1.7196070989147911 8.955597685737748 7.483216464352965 0.4016286823903599 -1.7087297070693088 -1.4837550951329994
Ni 4.088065801849446 2.784403836997813 0.999173170008202 1.2204844158299688 0.593759508323771 -1.0208621666155193
Ni 5.020629634137403 8.75404825394246 4.224271212185783 0.8470733335244057 0.4008113286953871 -1.5899475692313778
Ni 8.757423043680067 7.33237899562295 12.636193029878747 1.9188109468335535 2.4418095823936787 -1.1086319152323358
P 5.803626831324054 4.478033330984157 0.7984623780605148 -0.5016916465522328 -0.5196613436567761 0.2638967429228036
Ni 5.2060867442956 5.6986773074131305 9.812152425346925 -1.123114168008911 0.13979062176879797 -0.39318158006427123
P 6.727887025647272 4.7014223421440695 11.142989263856805 0.10206739618641131 -1.4031049882800997 -0.890182248898738
Ni 8.347124015608436 4.038501451207207 9.578912154661404 0.7039716451045037 -0.8742437232916105 1.8445621155213072
P 3.0972293740104937 1.0888800468644737 4.462947928900931 1.0951207681197785 -1.3567024897561601 0.11760148726626844
P 9.10232287661856 1.166251929295606 1.6281135145761843 -0.44677236880653376 -0.35421136944866094 0.023193664507643926
P 3.6874313623724344 8.633438602175556 12.308957968291597 -0.39685980024680684 0.5318712554594065 -0.03528710533706826
Ni 1.1573965545890241 8.492148018201899 1.2694846323781614 -0.5757311900671505 0.5161453600837175 -0.5742114109885144
