# total energy = -381176.79383350885 ev
CRYSTAL
PRIMVEC
9.16998505513921 0.00000000000000 0.00000000000000
0.00000000000000 9.16998505513921 0.00000000000000
0.00000000000000 0.00000000000000 13.42120004448966
PRIMCOORD
 96 1
Ni 6.266235781238105 0.43227400240456815 7.427023814330604 -2.007260495126214 -0.33126710194766174 -1.0049817479398369
Ni 7.134449945986685 2.9897726875840953 9.01375856028736 1.0773295055746286 -0.8126424055400455 1.6191725275347664
Ni 5.365028011031506 0.3613258296895306 12.867829829092917 -0.4670781702434214 -0.7538474468890243 0.20139425351320797
Ni 8.731347786142754 4.619288163819703 8.277511481382993 -1.131499820969445 0.13305535992749343 0.6882501206041889
Ni 7.1802265103130996 7.113789970139848 7.33118280076611 0.12464013928060469 0.3188659000698315 0.025762453676084665
Ni 3.8889905710801917 0.16023814910910042 10.956691280410547 -0.5364802149863277 0.44651551560072134 1.1866078176871822
Ni 2.59832437469027 6.070181505336916 2.225073896713466 -0.3913969773600227 0.30441835718593374 -0.7999858931182997
Ni 6.526103981648013 5.898501049143181 1.045883538041991 0.46991178303747455 0.3911185268876554 0.8717119580086923
Ni 7.340765434924986 4.524177081048554 6.129085819961747 0.3242125090937255 -0.7825065053866136 -0.5030134506874498
Ni 1.4271705907334724 0.05648710662073563 4.038519094893455 -0.35464768565513116 0.3857107256085228 0.9125063663172348
Ni 5.317536659539819 3.849532126309246 2.34288527695858 0.9134201363807558 1.8850022258142247 -1.8216607854431015
Ni 4.712638609501373 3.7548887127649913 9.626932521644836 -0.10830874911043283 1.4878434062697603 -0.7992901526028557
Ni 7.267937415317538 3.020822256255818 3.281953163578334 -0.2883844436515227 0.761850776809475 0.3526206279227733
Ni 4.120202568861885 2.3503404746343355 3.2680487155638827 -1.9911219376931384 -1.5850966688969799 1.3899136864008061
Ni 3.496982889111064 8.338780735098323 3.124723686495575 -1.5453389293830675 -1.3617259111126807 -4.311558224482942
Ni 8.930336457193073 6.383189767900584 13.3085420515482 -1.4594224319249058 0.9741411084098964 -0.787334008682244
Ni 7.1542204333039425 6.989481655634865 11.375083759762765 0.40576198783244316 0.21826351846472086 0.3418021971510307
Ni 2.787831281414965 7.740384204312167 0.4474053943907493 0.1923650534314042 2.0243123084021786 0.49833378582359333
Ni 0.6357541320300226 7.579671049988302 1.733281190699718 0.5463630213176784 1.2087766404747375 0.6875497521030546
Ni 5.202242440133568 6.536264324851873 10.07138884891071 -0.5682209977330344 -1.6818017723302132 -1.8945050230983371
Ni 2.682853294954871 1.5020160070059472 13.064598446813223 -1.6773216250716725 -0.6556248783699999 -0.8848644362302504
Ni 9.23059844082771 4.309966235162129 12.143474386530393 -0.41457907190344084 -0.6351221304309579 0.24506469781796505
Ni 7.7776235127515845 2.0643286474426565 6.897825823151818 0.4136547603169585 1.5896128115997785 -0.10161359647844435
Ni 2.439500237243656 7.361498770650551 10.093856228769715 -0.7234516082059863 -1.0453840630162836 0.06873612902413324
P 6.299339426514218 4.107896449205224 13.320755554357966 0.014087074220685418 -0.8302868580946862 -0.4695420584028816
Ni 4.799340816173298 7.348532412085336 12.062263166781277 -0.5154856150125317 -0.05935185959575585 1.8311126748846207
P 1.0407015796083259 4.965299201826231 0.7520598007642395 1.2754152635398939 -1.0138088593131638 0.2464016714618337
Ni 2.668071279391133 2.2290399151572107 8.795140619686338 1.4085768100279483 1.2571496324614866 -0.9651689868182731
P 0.7681613771466015 8.031045213818249 5.910226708759403 -0.0059207363598091575 -0.09895867535410054 -0.5338849434553257
P 7.405643077675262 0.8475101729745053 3.572830584726663 0.8340969758693957 -0.8074176668059966 2.028678041570042
P 1.858022328489197 8.637355441522212 11.815903271040689 1.4597918994491828 -1.3034557146168777 0.32105699418387934
Ni 4.758836993130475 4.041771688516568 5.207935166722878 0.20245920444261262 0.002050454771125501 -0.45095478231899755
Ni 8.508003635354664 0.891168470802642 1.6673159877472952 -0.11827537340484147 1.1768149999664765 -0.1029621400865388
Ni 5.048901953621889 7.976199534484056 1.2153301859284522 0.7494377478571028 -0.2592412464286632 0.36669973172365883
Ni -0.038491928368701286 4.551201026375066 4.4926259142060285 -0.3902795759261279 0.4947396407144318 -0.4567477348516908
Ni 7.0523510717049565 1.8452026896814393 13.202782782379648 0.8829098836070407 1.6832480178584364 0.702512544060474
Ni 1.7099179033217455 0.22874068686703572 8.761694933975654 -0.7770277416602296 -1.8932768071181911 1.024644773586403
Ni 1.559860271383155 3.7900556046303353 10.352026147987063 -0.1800587252602254 0.10661310657556479 0.126596234565711
Ni -0.42196785644173623 2.2467288159155547 4.770753388431391 1.7145092898655634 -0.756372270193407 0.10109037698512269
Ni 0.29532486379622785 2.164171442391775 8.499041809169526 0.06727908486263252 1.480716565416992 1.6503211852234287
Ni 2.9654813977402106 2.539343032192775 5.787838589080132 1.266917767591844 0.1593901411672803 0.6303841015253402
Ni 1.6901932659286933 0.8298432801797798 1.7932868205039563 0.5105061595200692 0.3312779005809391 0.2725796154087822
Ni 1.408766431157528 1.3621278882560572 11.037782373358246 -1.862362891148154 0.9112771218958241 -0.8342584411479246
Ni -0.0555105032351661 8.368317256271276 10.766446189906148 0.8406154937142039 -0.3501569968736292 -1.4227695565885625
Ni 8.31708455096445 0.20156635378913182 8.400369104286122 1.2253929088751798 -0.7884231279813647 0.0011071170212497063
Ni 4.861109834062465 6.433853934147266 3.0511088821887666 0.3063214877459176 -1.0605875102295994 0.05103305531741534
Ni 5.704546699770586 2.0267041996399167 10.927191439176958 1.153025867966679 0.43772542811291715 1.7499239219194314
Ni 9.399692961296276 5.8385843681919 10.475514665847257 -0.01666717624303581 0.5874700757706334 -0.20933382007525883
Ni 6.98211815780752 4.543406539260191 10.91389129316353 0.515156513807887 -0.7384642795647347 0.22332730614087345
Ni 6.38682108189763 8.426189030603007 9.355905366681881 0.7468905559552169 -0.3639352816046442 1.3373551955778
Ni 8.101819156821307 0.11764173552555478 5.709392119760586 -0.20344882204939158 -1.3040306132837414 -0.3076162952979412
Ni 4.195103005043406 5.5941034023452385 0.5805636612658085 0.15157141645380992 0.26554713404203295 -0.11030443938422295
Ni 2.5277888512930784 4.967646717945535 6.1514459109981106 0.0035874602409422082 0.08779237432463591 -1.5462025629349436
Ni 7.922004924073577 3.6670402579879378 1.2268045879600313 -1.5245099084528582 0.26357998301333313 -1.591655295951104
Ni 0.26657237632718295 2.473539220973554 0.03596559754499793 1.6819573240714707 -1.6450774203259864 -0.17164607571649793
Ni 4.8176716158705135 4.7871539063195705 11.865481711082193 1.2108078119721535 -0.7137202398508353 0.6612288548203387
P 8.415469318323845 2.2680123507315817 10.776485489310106 0.061757126603138805 0.5566682598984284 0.06520831837653286
Ni 3.4474741409543515 2.5261841039458988 11.063833383293124 0.16328947622168655 -0.2626602994125412 0.5413822802736353
P 6.491285549206627 5.177749410623179 3.6740397074170947 0.9973100903271922 -0.01792495990953687 0.8630306281846105
Ni 6.030732230550812 4.991250258926342 8.03482966656214 0.8820822454994228 0.8233893596439044 0.4670974535171311
P 7.480846123356537 6.133472740709695 9.428969971898228 -0.17299410510396013 0.432750600606145 -1.5068559428165211
P 3.7168424456595637 3.960039613628481 7.570952228401452 -0.3136920691783759 0.15836247123371439 0.07878965660539333
P 1.879544282911091 2.3104235306213385 4.03346001425666 -0.9728272746944795 -0.953643759787493 -1.3134866164903185
Ni 0.6545828619041064 3.4607431090193193 2.415506971907105 0.8225038717151576 -1.8916338721981292 0.07629491520799762
Ni 2.0015784411754987 6.343291163857269 12.327546243239812 -0.18077529171127577 -1.0896762000654394 -0.8769163850277671
Ni 7.277529219461253 0.4367186940570147 11.418864018389288 0.7756923106782576 -0.7441986109453506 -0.5497738467714403
Ni 4.112930770882949 6.112482645408581 7.338738868275119 0.6741121385409099 0.5696132500948706 1.252318015400798
Ni 1.1798744395406155 6.783092806817836 3.9387193988730895 -0.9168754419192081 -0.037310049304368 0.9884680665555299
Ni 7.450099164184569 8.138095616852414 2.3680898972926308 0.22460077353665833 -1.499575607105024 -1.2140106351801672
Ni 2.25577959095365 4.448919015458234 3.799957354261678 1.2843007389549816 -0.08698247682883085 1.1596765405139768
Ni 0.7213770314861582 3.6402088823430883 6.479567225578277 -0.34914089690428907 -2.3593378489510073 0.27846461343464946
Ni 3.323037446661594 6.882156153055467 5.009046448507326 0.45400231089606974 0.2875969147532208 0.1870014751266457
Ni 0.3355664252725974 7.135724573879588 8.452819583579839 -1.1532847780550202 0.5049245516672336 0.6145749024072255
Ni 5.897226421250277 1.8777011159580443 5.122013325760925 0.2407650420013466 -0.6623349434003238 -0.20370233282109432
Ni 5.934034740402166 1.133703565866037 2.1435270555191677 -1.2063256078310838 0.2285121927759226 -1.4069698705521447
Ni 5.985212425799946 8.280331251721607 4.113087577623731 -0.46577256405812045 0.6793890706691332 1.3471531555048282
Ni 8.712558487203486 5.5059981879926365 2.3808535991928585 -0.6907440906706361 1.8263661613385707 0.6135878559036078
Ni 1.8276788486502336 5.065490456199309 8.416259771017142 1.4141694736243775 0.6242121683866733 0.4513070234520937
Ni 5.6510214982535025 6.102542381840906 5.657733927157135 0.9960834170089425 1.4917969916008695 -1.2708680104888437
Ni 3.9648355157003388 0.27824485003132815 4.718115841446918 0.5058223808911547 2.415378384785343 2.683247224982017
Ni 4.077901428790221 8.438715229895852 8.975145588118759 0.9567954180425973 0.14573835471180063 -2.2786239787397076
Ni 3.5539468349435333 0.5023042596370187 7.004067433523005 0.6781757670873223 0.4257206903425571 0.8253660237543011
Ni 2.6764984954600384 3.918857211707422 12.703045201499636 -1.5229870440504285 1.0344854138259088 0.07045285460492383
Ni 1.344017168195026 1.0952813293821275 6.622959195535923 -1.6784495680285287 -0.7467938824763526 -0.7394716377833265
Ni 4.6759036502282125 2.5801219547808283 13.378359565132339 0.8088178895876329 0.9342833529830105 0.4598351155277629
Ni 3.0408311631789418 3.6761002030108743 1.5704818648245185 -0.924535529567627 -0.2599231029870362 0.230834413151196
Ni 2.393191813796462 7.4633773022343775 7.484183997838672 -0.9359993072328525 1.0134771870053578 -1.2415204105646618
Ni 5.500606236906112 2.771068549125565 7.504584463114507 -0.8296397114289905 -0.7161550745445731 -2.4154490901222787
P 7.026124915059616 7.7555788691937515 13.341920796369543 -0.4512692282356228 1.1558831349098158 1.125425589750907
Ni 7.956282327409342 6.877791240271137 4.740086208127539 0.0506173079362354 -0.6653629315933702 -0.23374078816471355
P 3.814420254352948 0.7119897180043974 1.153808757629992 1.2521444659374112 -0.8083553481289174 1.7731561529744948
Ni 0.2060642313536563 8.973875545218275 -0.33512626600022805 -0.7069880633333243 0.20152332289190453 1.0084285688378567
P 4.973157878834993 8.164193393709983 6.288329025715595 0.17083694955164128 -0.7510595997312419 -0.19066761112432326
P 3.2851470692984646 5.3232770700503025 10.673826592016308 -2.3684308123912112 0.4867098284314198 -1.0029312931687113
P 4.8795690135474565 1.5336432847226547 9.133085739026697 -0.7150644125835556 -2.0842789187637973 -0.8009359157363948
Ni 9.552556608596221 5.87264169189148 6.430109829336674 -0.2885068281619999 1.897131404977591 -0.2488020533732102
