# total energy = -340891.366917486 ev
CRYSTAL
PRIMVEC
9.00912092179166 0.00000000000000 0.00000000000000

0.00000000000000 9.00912092179166 0.00000000000000

0.00000000000000 0.00000000000000 13.18575912494436

PRIMCOORD
 96 1
Ni 6.247969414240332 2.174171120404748 11.206352557530874 0.8379821698564148 0.33204897441900877 2.2493110887082035
Ni 4.641003529693382 0.5887658637339542 6.072226693153191 0.141440241557079 -1.4067883506689578 0.5850702080798892
Ni 2.7823138011352073 1.5466588299744164 4.817166075809366 -0.8125963827934587 -0.03008550653147077 1.889291340107882
Ni 3.4621150286344036 4.340504305721641 4.885323678238861 0.06242921296949893 0.052401910640483954 -0.4336743979719951
Ni 4.978395103302787 4.226358745304253 2.741437618283923 0.41630171102150243 1.1688003571921162 0.2601570733747133
Ni 7.234477149936019 5.806954933297004 2.6552554678885976 0.19353027738409898 0.453564966248335 -0.7165721074773337
Ni 5.139000699637497 4.3402610594602935 11.695438806100968 0.49751488946672384 0.9548375229852781 -0.501234504410156
Ni 5.585177406793861 7.835664789416105 12.410199025916159 -0.6275492031797063 -0.3799110882076102 -0.5034600513065651
Ni 1.9163571107390511 6.5834060086381685 0.17803374050419934 -1.3592843915507236 -0.04434150222985266 1.5678502231117062
Ni 2.662150148029673 1.6145425551318764 0.24874272594160332 1.1428304154909157 -1.3765994857904034 1.1577996352062383
Ni 0.6644532893202649 0.012374027405941745 4.926885455182313 -0.9812478946580068 -0.3798750927633522 0.7420915919046768
Ni 8.495303604585853 2.2300637057898682 1.5611148651950748 0.5891760027181465 0.5299377858821195 -0.07895729253150917
Ni 6.869103247150892 0.47358245260148507 4.800578482609643 -0.4817720248101703 -0.28212817832916576 0.12542329730353238
Ni 0.7743609593177363 7.293874283308698 2.5488208139559174 0.9014164270516604 0.3403536376299622 -1.3628798222114658
Ni 7.848592877750672 3.54773771262863 3.918794568808493 -1.6441438527681231 0.4103506356443901 -0.4174383957291069
Ni 7.6455993680960095 4.013896649698629 12.71506677255928 -0.37170875490247596 -1.2861899855578947 -0.023196492721121342
Ni 8.109929453645508 8.717072121968206 6.926623780662879 -1.144454838468216 0.8428194433440581 0.2269602749077704
Ni 7.202774053873763 0.35016110141805623 0.17180933894994732 -1.7940332535338201 0.8888702149555338 0.7907957419785994
Ni 1.7830221230376038 6.302699823043459 9.135107038510853 0.4475398431001776 1.9931320261446321 -1.2041167731052231
Ni 9.086959594269445 4.979494216039246 1.2921790959133346 0.718524088997382 -0.85262048859488 0.6198762600154809
Ni 6.545648783404603 1.95656481682767 6.90037120267896 -1.0331936915976787 -0.6053716386414026 1.2676595308538747
Ni 3.172507831698544 4.206547688685639 0.3593089626688704 0.8133926534425089 0.4217802176375704 0.21446831308834677
Ni 6.02537205774524 5.498788947532429 4.649496427862717 -0.4653470464849276 -0.05354373755441102 0.7842404573585848
Ni 5.364219710282664 3.0615154635578796 9.1465125854318 -0.7883958742878551 -0.0013076630678300059 0.03735530072000664
P 0.2742628624052445 5.451599172831066 12.319388890170682 -0.45177265023460256 0.34644200991588725 0.35186446648303915
P 3.8523000500769493 6.030651402528554 12.449149959654482 1.5230572351667317 0.5811631597159991 0.25367300831226636
P 2.359840090779013 8.530790531380179 1.3901875191705308 -1.2671203705209533 -0.3167591381394738 -0.5258065373225653
P 6.22254567536915 7.418722679225364 5.743874871345112 -0.06635194506267282 2.1629253649231073 0.29600442209062566
P 4.759779778197158 0.9977871549255669 12.452156303262319 0.17332166364670795 0.9302289804079786 2.475807279495362
P 3.920490085341291 6.358502317220673 7.951738301682689 0.6346742442602619 -0.6194204034249849 0.5261919456864421
P 4.625246577430556 1.017886503409481 3.828551106760748 1.2102028313983026 -2.0183892580495235 -0.6249019953648465
P 0.2377831304997918 5.499689859611493 3.553166608817069 -0.22282902634821625 -1.1829892470979884 -0.6259911146639671
Ni 1.4832706560914852 0.9425161988750007 2.9417428062946596 -0.33400069882874095 0.018321938237639415 -2.7009662395283356
Ni 1.5761727096845477 6.687686581789807 4.701870050667014 1.9408075057093028 -0.10610068571552049 0.4498371237747865
Ni 5.957722569728336 5.859360988936147 9.19581409804649 -0.08760699778670718 -0.8346543910347626 0.10288089322664218
Ni 8.566340522020036 2.4588052826641755 10.138319485976542 0.37172135330796624 0.04394092435732433 0.7901953893904392
Ni 2.30502859988877 5.251056144031457 6.842037145559576 -0.06004914277309659 0.15237488619171177 0.7734209981455776
Ni 0.6601523350548142 -0.008657765079803434 8.94023435033687 0.015522006894999075 -0.20607237571516768 1.0836580188958174
Ni 1.369359332814654 1.0809053033399962 11.526661036297071 -0.22215925397470127 0.414607354038215 -1.7954956970119593
Ni 3.9102196876399633 6.904752338119447 1.4366016085718205 0.7359294289580228 -0.7792095798028967 0.3466929495844287
Ni 5.9467404514845486 8.040424086745734 8.064753217440852 -1.1173320141094951 -0.36653672378323326 -1.4177222239726421
Ni 5.267173461125909 2.7196013113115733 4.893023773778619 0.0012901795663332618 0.9495958149703646 0.17986229297870313
Ni 1.0104359605156232 7.480588311694677 6.948578107117586 0.6853247194272778 -0.2619275350115747 0.19836652243047773
Ni 5.028828161488781 4.443784866465519 7.273805565835471 0.7476693431027704 1.4323204335017912 -0.8789799524250154
Ni 8.214173990313984 7.092961880556673 9.135449385100896 -0.3121113549548173 0.859570694660468 -0.04965802934675964
Ni 4.415694427840308 0.6753687400702024 10.441156576793455 -0.8882842605450766 -1.4301391095797564 -1.3156031486126891
Ni 8.098604988811676 7.108890006114521 4.734492077049915 0.10602998037858513 0.13370507769635037 -0.18195877049641568
Ni 6.973230665249089 5.910127384591394 7.036461179518184 1.2357835080808846 -0.04873808863565155 -0.5075514477671195
Ni 2.456363810929912 5.089153234302895 2.5661336413792872 -0.6219783939601482 0.2552735200301668 0.28441800280460694
Ni 2.153819516538696 5.417499650638499 11.32056748817835 0.9046274777897904 -1.4847791655221398 -0.9608968418054807
Ni 1.1451583528188287 3.2296797122359346 3.755791645431395 -0.06121102429168169 0.6729392012787313 0.6075097680303279
Ni 3.435574158785183 2.552923567563974 2.916729883331531 0.794979955263276 0.6579874650649055 -1.564392603580409
Ni 1.0973559579037018 3.3371224867850877 8.051422421406944 -0.9569013474928424 0.6804203401471249 -0.406603509897132
Ni 3.5115570835334267 2.893198059826384 7.053352380088551 -0.23773525403608736 -1.2294917615349017 -0.021410861575608287
Ni 3.97340065174471 6.726029399874764 5.771722964621055 0.551566677005805 1.0342010498162706 -0.15716202316770997
Ni 0.781542129499954 7.349253348808751 11.223190604288579 -0.46534293271986954 0.8308892675653754 -0.018902750441773895
P 0.10299046705441926 5.669908187829814 7.769695502426656 0.40568999694392716 -0.7437268135152546 -0.14065836908573193
P 8.4828439905324 1.6193984712380303 8.12253321363161 -0.5968630869497591 -0.3248066910342987 -0.7664165418032864
P 1.7460126548296615 3.5347555695693207 10.227507979979704 0.4534065862935998 -0.3517137998377879 0.45371100490789606
P 4.121690779958617 6.110165902626728 3.6348523070257865 -0.8989435400311357 -0.5672272663611974 -0.7862016948500137
P 6.867706833428342 4.200025085233217 10.285723116704649 0.5897197910367586 -0.4191065274601492 0.7531481068291546
P 6.411845321422042 7.750177242233739 10.250688447774015 -0.6530167513231915 0.2850908605019155 0.08541230412823353
P 2.605590887706046 8.515096642962886 5.706994233564476 -0.021492879766453307 -0.27588631118451196 0.5856049975374366
P 6.913725422426923 3.8483991007746035 1.7140564024731884 0.10131946227679325 0.014953793096354891 -0.26167890933587834
Ni 5.1768299978373875 2.8071699653965783 0.8787415337101511 -0.8249914140237018 -0.5767197792326648 -2.522476658527443
Ni 1.7580668584475356 1.00248991597828 7.0764409548508 -0.8841769232449224 0.8679452918774085 -1.2856536534384502
Ni 6.498477026944821 0.8690945671675356 9.351314225629146 1.432699928328397 -0.001817512824712999 -1.107482117898609
Ni 2.4979318942579174 1.8588518927324067 9.142899927994756 1.077562704631357 -1.394340097603276 1.4335561056811053
Ni 6.208752711438683 1.7922204353648454 2.63537143739158 1.3454770533539862 -0.4302661436213944 0.6919753919745759
Ni 4.054545802705989 6.960744023833264 10.134614034595353 -0.02113112555166038 1.1979903484925112 1.2129266580873692
Ni 8.116127728749467 7.051934344476106 0.20359892257179374 0.617039304787318 0.6098836675791433 1.6095180351641378
Ni 7.660797754869816 3.8271465848294874 8.190769195411985 -0.33538549499140946 0.05805936603657743 -0.5274990945336399
Ni 3.1692465299723325 8.231660693768614 12.206966774560543 0.03760289795443847 0.7568234987982126 0.8741092545962751
Ni 9.095968715060083 4.970358967557539 9.912196860516074 -1.1456768838007754 -0.9284222662165429 1.331166550268585
Ni 8.648260457369311 2.2316312928074393 5.927631205375525 1.1670556065868674 0.4819478882664023 -0.4005925278163617
Ni 3.5785218783702413 2.7346465430319395 11.45057901122013 -0.8840391121154775 -0.07547730440270872 -0.6479516780954583
Ni 1.2753401482435525 3.264517982333333 12.535384362950394 -1.9361764346951944 0.8108554888429518 -0.31101709344937406
Ni 3.2299229584972817 8.40522140580026 8.09864012438276 0.1830355485003622 -0.00036509664890259705 0.141198300749602
Ni 5.673908237460857 7.646851635885908 3.29819317493666 -0.1761691603978321 0.8095930771907606 0.9719651838045001
Ni 3.1833998587344254 8.306202159190356 3.509429129202678 0.20052367798279658 -0.9180913166041801 0.7727345136015144
Ni 3.567990216165985 4.744554364060979 9.27310875078185 -0.20009147554138443 -2.0155739000879156 0.6847886444181498
Ni 7.229008613616101 6.07294021551981 11.602703421242534 -0.6016494525948091 -0.4312434199329993 -2.5382619463861573
Ni 0.5352426771167719 0.021009269683768584 0.21560808058571462 0.7879222770855462 -0.5469070667466065 1.1043803390448335
Ni 4.3746849100013225 0.19759254174067517 1.5479687561373752 1.792743331077803 1.679200073041308 -0.7209159862683261
Ni 5.7178457195568 5.46804081827398 0.5349832144380016 0.5072804534939199 0.5260613336458488 0.27167844375075145
Ni 8.005928163238378 8.938399192431818 11.139526503154237 0.2472321377829291 0.3724500039438747 -0.10515477686248341
Ni 0.25495721746298566 4.917421373791747 5.658062094902204 -1.2778680959557605 -0.9643624317565779 0.5771064731481222
Ni 7.987783793966034 8.655413699277078 2.511359988796364 -0.8532954031747175 0.4834409278721609 -0.0461430742149657
P 8.537232052745484 1.3958821844222933 3.6925007700530026 -1.0624631299857572 0.7574223087244762 0.3538902386638163
P 1.768544465927048 2.978658579646379 1.70386348321066 -0.7066584479080475 0.8874892754476071 -1.3942794195686699
P 4.480244778305232 1.2602949165231865 8.212407301726941 1.2567061171661646 -0.1466840064545216 -0.2715365188562485
P 8.36908582230901 1.8737800058824943 12.479147629151072 0.8248214641047409 0.03705756697392972 -1.291565390937195
P 6.332258748357544 7.720140833517751 1.295781843317511 -0.20173646734397516 -1.2994697333859362 0.21354734393597416
P 1.7544812283728615 3.2707703121620364 5.92280592028006 -0.16610457707297843 -0.5050168542707237 -0.3892555055369877
P 6.749876542607583 3.9134089163998493 5.9646568900008905 1.2051858377996858 -0.2716997839069902 0.27249811143856945
P 2.393263928912282 8.63767474044031 10.259892165573733 -0.30316725838765207 -0.4091740988377856 -1.1233748778694654
