# total energy = -340894.84987802047 ev
CRYSTAL
PRIMVEC
9.07836430054516 0.00000000000000 0.00000000000000

0.00000000000000 9.07836430054516 0.00000000000000

0.00000000000000 0.00000000000000 13.28710380898075

PRIMCOORD
 96 1
Ni 6.4718477891680894 1.9553616207976119 11.257047181746502 -0.7389522749447467 -0.4675597378655302 1.8496367018307374
Ni 4.767484780597827 0.15487507685460636 5.997067500457658 -0.5875587788296978 2.2111584888978824 -0.11370472331502353
Ni 2.7539671590070873 1.5284243111973572 4.777192275391473 0.9222868427427664 -1.1938940669359503 1.4999813271838747
Ni 3.333466378274611 4.296617266839292 4.988562920234796 -0.12789258477963134 0.5182516077934429 -0.6355849289999893
Ni 5.313230641927659 4.771061656075894 2.8930676703015723 -0.08822971897237063 -1.3688003014609587 -0.42646142516332364
Ni 7.171417452783086 6.43716843808633 2.6447181247353884 0.7490338275504649 -0.6341764786882369 -0.6028781827955876
Ni 5.033017853841382 4.532927085859761 11.574768139186025 1.0803220125440491 -0.7679548328246839 -0.7465974501948303
Ni 5.816762109924983 8.043911796870686 12.416930760786906 -0.6424649439492741 -0.04978735583577232 0.5859215003365909
Ni 1.940609279041628 6.592689894468952 0.360639831830655 0.3973251699189996 -0.06834480712298552 0.9546344058355367
Ni 2.755982555850059 1.6215320139969702 0.46902914501663623 -0.35202027533461305 -0.20532932690155606 -0.2292498422728955
Ni 0.4406901234624949 0.13585136476250517 4.6197262334063085 0.21313879564364585 0.2391673584969236 0.5973189435402552
Ni 8.856352762056234 2.392439463161826 1.3636156882815829 -1.0730794720490229 -0.07045465437713673 0.08240385631921292
Ni 6.9771313814478155 0.7002006099239444 4.952900382314776 -0.9297828940094955 -0.5764289874651233 -0.7661612312593709
Ni 0.8425230326579359 7.520562259917477 2.7561704779881198 -0.1189528590878403 0.20063500674968027 -0.9655366545703371
Ni 7.820057493474346 3.9498055992933843 3.529346610355942 -0.5258888126237267 -0.1304364342474076 0.2807395255117552
Ni 7.56841431739181 3.989087681003011 12.50703080154113 1.0383454110019472 -0.8688991711502455 0.9803714055903245
Ni 7.812467981038652 8.777579796261358 7.277426418886963 1.2161860455649314 -0.10572324777144373 -1.3021853325448864
Ni 6.880474038262609 1.0107578302067615 0.48392401708989335 -0.8086757075828137 -0.18684875159886533 -1.303298363103407
Ni 1.8352367062651935 6.479037853580851 9.250481771427598 0.8773359890636889 0.5177875236728308 0.34160499353856005
Ni 0.029484711110821377 4.891422608076407 1.436494980065391 -0.3129469634822352 0.05110967419162166 -0.4501281726526441
Ni 6.478829051205228 2.010049686482564 7.091633157221061 -0.41750370174940354 0.7426358944439211 -1.1398191394684176
Ni 3.2193604191786336 4.358450005116219 0.42815017905170066 0.4665271828359579 -0.0772919890139443 -0.058828897212750295
Ni 6.15799058351401 5.906919344373399 4.895367157302854 -1.1025065190608883 0.10308915258270633 -0.9517851093121994
Ni 5.341101219891272 2.7277579216843026 9.304879329459508 -0.4034518516420277 0.9775161955297164 0.06004451478740626
P 0.3175157864095627 5.6110554564795425 12.597303331214347 -0.6408785732987609 -0.42533553908899646 -0.6834560416496551
P 4.080325240786173 6.089585109587032 12.526430357909353 -0.3756955074643659 1.2736491727784065 1.80906906482102
P 2.4317124665072947 8.537774807040241 1.3356597736948892 -0.19591523267650773 -0.08104605673973785 0.1622396948009335
P 6.421807845931791 7.811097148050864 5.8960062428196345 0.48050164273817886 -0.2805670044896329 -0.1871014910396197
P 4.633134069430563 0.9743354332067568 12.634560937716845 0.7153937708985163 0.7467853978359204 -0.7500005623391084
P 4.15395077410373 6.3181692407094445 8.235758511756828 -2.5790345003178294 -1.6915136003013387 -0.6729988508720732
P 4.776781025495136 1.0156056766668817 3.7588149741472976 -0.6980761055556751 0.5726839186003944 0.8345548893424207
P 0.06253449582630423 5.680586647562054 3.5247629442928057 0.9462526095297447 -0.06855486625126259 0.38509057552602066
Ni 1.380828266724257 1.0318287134163853 2.5573824458671317 0.5327264043708503 -0.09829764473133393 -0.2574283615896405
Ni 1.8271206487083629 6.565609134187045 4.7995940467865905 0.1470403613526758 -0.3769877439132282 0.49581641871837834
Ni 5.809544810419747 5.346375749466796 9.206488018720215 1.1151244649352148 0.1327995351629455 0.36505988212739066
Ni 8.577029653657394 2.404132396196723 10.240796033388019 1.1235710530406715 -0.24170915108217084 -0.05640614670387059
Ni 2.4220530870436843 5.12933929755276 7.075581701554134 -0.5121650352797309 0.8776992859403786 0.5680878145892796
Ni 0.470557941540764 9.184762585454832 9.256314620398811 -0.8761885057228072 -0.523050314733667 -0.02010731227283634
Ni 1.3770879806913552 0.9618526824901549 11.46807284875184 0.24621320960011142 0.9206973867684597 0.1282931626521597
Ni 4.348763390560136 6.605036469723191 1.6749191500981488 -0.5492513986090669 1.2439958686883479 -0.7668022072774794
Ni 5.829671543756988 7.585926481851684 8.0485172510078 -0.3605835915235919 0.7409831893318464 0.019500274816456737
Ni 5.334655581339427 3.047997217341124 4.849194597197664 0.04953127396090824 -0.9093652495850919 -0.0818803797155751
Ni 0.9164063915175668 7.595386137303828 7.173175931920398 -0.4660307028155135 -0.925019154072265 -0.07556395057924405
Ni 4.952220412839377 4.681013361997368 6.89079795398255 0.44912775641258784 0.036902015232671934 0.02396808077982324
Ni 8.03143812451824 7.054860335364575 9.1709180801146 0.4103282670468869 0.43994686124426813 0.1166758901282055
Ni 4.604355655051196 0.3096511995398956 10.37714852385202 -0.3824274268715607 0.09035242174232826 0.1922516677819915
Ni 8.297207235229891 7.22227444879356 4.83218718978495 0.15395302931210905 0.12539964315444857 0.20097927746297645
Ni 7.563094395995499 5.932057334725596 6.88883158030603 -0.020840590894435077 0.4447825920700146 0.9763951945513959
Ni 2.3686269139766285 5.232424122561498 2.5698325144727665 -0.6942886134887849 0.11984117523006457 0.5284293196573931
Ni 2.358132325010526 5.101623051779825 11.42799822585126 -0.18508214661674574 0.4989040565047666 0.7656529241643846
Ni 1.1508188324291124 2.9723381304522802 4.014100389929833 -1.2023900202221034 0.7812176113718611 -1.9428965270278475
Ni 3.4884068193511513 2.8110155993729973 2.9291950204664574 0.9736279162189039 0.012583235981649296 -0.8573189225118139
Ni 1.263354234525837 3.3193676787379682 8.36477659181796 -0.7406839129238728 0.6396603846209435 -0.5642306456267185
Ni 3.559989720733264 2.74767585264592 7.300652505747584 0.03144124922841682 -0.27803318232418567 -0.7082173077547351
Ni 4.181058769478111 7.070338946253161 5.98696963600524 -0.9981600970323133 -1.588962065389657 0.0370807069023813
Ni 0.9632507505704143 7.423496390345182 11.557308629238266 -0.5761682776045689 0.18445711143823715 -0.9692446995495436
P 0.24004828938053965 5.552699731674949 8.188442985604205 0.3288456369903627 -0.43736701633223385 -0.9698489087924458
P 8.481271068523784 1.710881274035367 8.027523533893515 0.33143268099124856 -0.8087466700300653 0.028620234839853938
P 1.7500271802826302 3.157164546335405 10.510537836255004 0.03500351265837842 -0.15036582618148298 -0.42600479724187923
P 3.944521991353703 6.217780689855493 3.8494333894949166 -0.0926029083394018 -0.30209845080350556 0.39477720668616534
P 6.941026727193324 3.953527728597971 10.435997203830368 0.07383719769612444 0.457763834821031 -0.7301968973496198
P 6.272986222297424 7.886583746020715 10.271807725350138 0.9597048783799084 -0.6390777726445962 0.27848081138456554
P 2.25246924458105 8.552345581513075 5.7820954685530435 1.022785351780161 0.1978787841607818 -0.04039768709075623
P 6.921535479347111 3.9537183742452795 1.4132298562388925 -0.39930414802224135 0.08834053351862206 0.4316316565103534
Ni 5.167295938095387 2.870006809668618 0.37036185200695243 0.09279419841460147 0.23273163017390885 0.03598670250725415
Ni 1.2822009185168664 0.9968134628607974 7.08432507407425 0.3409804725806837 0.8439090768638111 -0.5790330007468738
Ni 6.775791421162146 0.6727231251283525 9.114129280963597 0.1708472339642864 -0.15280888840533685 1.3492244362115602
Ni 2.5670164059111014 1.5297769874568288 9.202421819414056 0.8364135398177144 0.19549357175805687 0.7664921322362284
Ni 6.282754542130926 2.13415092451598 2.6215319826770602 0.15889340403651991 0.05842137736168648 -0.10059826784005256
Ni 4.066135757607956 6.8219185894465495 10.447250744040042 0.4439184442975064 0.577002086359774 -0.4476437156678936
Ni 8.02549179599506 7.307102683481508 0.24982296406895071 0.15813492860394054 -0.17447454630422854 0.08360096195110764
Ni 7.875226712459647 3.741484376970576 8.268046621719494 -0.7666592539417119 1.345745219413708 -0.3275143197734488
Ni 3.2236000152401996 8.228883466580331 12.335892743134728 0.15796472157466346 0.6910338539969131 0.4062229866292617
Ni 0.17011492676584963 4.857868974150183 10.366372505597035 -0.3789739211053215 -0.3622666356529697 -0.21908961391044202
Ni 8.55489660184134 2.320475270485097 5.7311395183732525 0.12803836632887625 0.7373255379746011 0.41097489949195026
Ni 3.552227719378577 2.714149453812167 11.560856453951027 0.340811036882355 -0.9168903543175435 0.22157047135076682
Ni 1.0385285461646414 3.1754483717486677 12.647289712102117 0.19738641790539554 1.150359119767793 0.03944946424487399
Ni 3.23395842874394 8.479972862449257 8.25195612908669 0.9009086341773065 -0.9386300599874803 -1.6608421393594104
Ni 5.541814773050072 7.980063661750788 3.5316325424508075 -0.314524078161368 0.43459948088942574 1.1468552203795925
Ni 3.0442660096723797 8.331913821404124 3.5591100272463994 0.46944769891686255 0.344188180884704 -0.08913680416767229
Ni 3.5372938103394422 4.235038722758776 9.461693544898164 -0.5226831612022353 0.5631908915082946 -0.9274907555412091
Ni 7.435162088287606 6.1131706996682915 11.418046523061776 -0.6572634424146874 0.7519479158734663 -0.2881561296908005
Ni 0.555240014565775 -0.06004430053789414 0.25644472288545206 0.36669176130385883 0.5096906055973093 0.18431132988899224
Ni 4.530675651548694 0.3378885434154726 1.512125924025346 0.22228960890497845 -0.3575638308606616 0.5221463148621588
Ni 6.13885339186994 5.675511841997995 0.3080906287412165 -0.5934787438585586 0.22060399367243944 0.10844013248197454
Ni 8.020698419719885 8.941289937114073 11.34811679179275 0.02587198267075544 -0.3013613155271649 0.11044842116125494
Ni 0.25248201693069083 4.683055993932811 5.566446190682279 -1.071708559843425 1.5876616014106786 0.35178733338820056
Ni 8.08540899943475 9.006935588337162 2.194404935265913 0.58359645174784 -0.1666311390004098 1.2782748444758758
P 8.287738501413589 1.675021735613129 3.484396905902771 0.8954751218665611 0.2751198653321326 0.49062484721510985
P 1.7588967420645356 3.253013915110592 1.7086679688537614 0.2159765222027571 0.01447299680519443 -0.4011175470818963
P 4.824342575316429 1.0281065841117984 8.13767314188964 -1.052569010800497 -0.32078265747657014 -0.5231115069889056
P 8.51974517582339 1.7413119506914028 12.445631101234518 -0.6893693218102966 -1.1081768299727883 0.20018326392424235
P 6.296435636916321 8.091900029807382 1.4817914780293797 0.16070294644143293 -1.0840136024630234 -1.1446479283156286
P 1.6671689506168665 3.215138979845383 6.0442631922034025 1.733129476069912 -1.379478092889779 1.2906495639911448
P 6.9265739714545385 4.15949765460398 5.8024382669572345 1.1016734816366318 -1.6427318029119449 0.9197424790543579
P 2.3682183875895397 8.631763111163135 10.163504656623653 0.034013637941283356 -1.218334973587134 1.2684030938881188
