# total energy = -340890.80255216017 ev
CRYSTAL
PRIMVEC
9.11358040484428 0.00000000000000 0.00000000000000

0.00000000000000 9.11358040484428 0.00000000000000

0.00000000000000 0.00000000000000 13.33864613731488

PRIMCOORD
 96 1
Ni 6.456898784612471 1.917205675605873 11.57634410673399 1.0661094684890928 -0.6004747155604174 0.4926755590965515
Ni 4.721600173223082 0.6659393426888325 5.936497852309345 -0.3011990789176877 -1.276371456805576 0.7190311105407875
Ni 2.658713915377705 1.5091724552100612 4.845530284547802 0.026534041734786563 1.5821386147099203 -0.2240688122925883
Ni 3.3317244850768364 4.5751267094912516 4.817291855766501 0.19581547387384984 -0.33452520387364326 0.019911394211946355
Ni 4.923912543891504 4.8353285426798704 2.392486182847406 1.2769790084825878 -0.8781682551569974 -0.2190721304089453
Ni 7.375821093477604 6.267983377090252 2.3786672609299986 0.7240830711423981 -0.5362483014811796 0.9084411951089257
Ni 5.096660459834563 4.142331891225892 11.859416469865055 0.4252092979237774 1.146337914423542 -0.5786583910162744
Ni 5.622896817649602 7.963164007684003 12.467472729539953 0.606356371152175 -0.22841114842168406 0.28751978165838227
Ni 1.7958401257977112 6.60912291755876 0.5933815725605993 0.7226062294865555 0.36075405566318514 -1.1717126457429046
Ni 2.9300160894588925 1.5832202957290455 0.49092852473951387 -0.26048694591030624 -1.5427274599021494 1.6254226222095363
Ni 0.28171990780392603 0.350461821830584 5.090427682218448 0.012951675064661565 -0.054223794340571126 -1.7138384890507838
Ni 8.656051296173523 2.2176895340368192 1.2543913796264512 0.34038834752263963 0.6873600046897517 0.9445546530020313
Ni 6.790747460783725 1.1898508261510858 4.920226100631206 0.892322178059876 -1.2446299027279208 -0.39967078733304073
Ni 0.6922730331724763 7.768479703786581 2.6765728874738284 0.9178537466720773 -2.0866276215016324 -0.04088516825013604
Ni 7.560234392296268 4.101001804240833 3.9211216002989864 1.0071327328445687 -0.18350811726140653 -0.3472907310694277
Ni 7.847631149313643 3.6235139878333067 12.56847307264981 -0.6519407446501934 1.4086531717918385 0.09719181326166487
Ni 8.047601329826573 8.864333061985322 7.062693053639145 -1.3279907236437647 1.0192796526197478 -0.10065328944770406
Ni 7.0947309340773534 0.7173198861076547 0.395165756269196 -1.456527626875614 -0.04706275781575765 -0.7009927649818378
Ni 2.2679235890448983 6.115977970072881 9.315470783464535 -2.5727779778851563 1.0524337707742133 1.2686787161470086
Ni 9.470194771506746 4.827773384551841 1.4032927011692666 -1.336982899840046 -0.9415840004094816 -0.8703829547846237
Ni 6.314991224646796 2.231897605836093 7.266880999148036 0.6902632943794758 0.32954780526370986 0.020876586338693076
Ni 3.1173730747375727 4.150625249364017 0.528045403518796 -0.016379726909604046 0.23350039001913334 -0.13429360320996872
Ni 6.043269825868516 5.876755598899611 4.62269413088261 -0.1330468752870612 -0.9761861638643832 0.6783212915262511
Ni 5.096733368477535 2.4469507618639663 9.877707606463341 -0.7200379545387471 0.23454657189546058 -1.7405735910527829
P 0.2042198430401919 5.490895719547822 12.46867298807489 0.5996118533394899 0.744071598449183 1.6528390665492758
P 3.901633120032427 5.93490024167021 12.758615168090042 0.8761237139231428 0.6358834340770145 0.6145245087852642
P 2.6016720158320648 8.553423267609302 1.5378127928857486 0.06628175394636972 -0.3424272323295393 -0.4714534164929816
P 6.464025604463036 8.018756847950563 5.750436818159502 0.10894741113569623 -0.33540195005164175 0.4863514166507365
P 4.963492823445222 0.9542465463853274 12.732244111926876 -1.2258503081275727 -0.02351376685122402 0.19530716677886362
P 4.098149253584533 6.037127272698081 8.356835136772261 1.8804791411328903 0.46770706207667195 0.13418407421529796
P 4.6470146314621745 1.132827153766189 3.7967121146467213 0.8694445021307543 0.8335999816283193 0.39456920444041726
P 0.39204253227585983 5.6148039582796505 3.4852281647072934 -2.0808760637298356 0.8588196754270564 0.3101555167800271
Ni 1.4291461059673287 0.8862884002706242 2.738970838203838 -0.212667255323866 1.7265639070372523 0.05106005190060883
Ni 1.7014325467286453 6.647992337843495 4.841648810667552 2.213999815001419 0.612032595601346 -0.5668320878053077
Ni 6.229770134592271 5.701073110076907 9.205426123193934 -0.9913340752494153 -0.2348137095139182 0.1384744740605357
Ni 8.797083952423527 2.2029984424778526 10.101917176690527 -0.2841243828235881 0.859344951802907 1.0518269904281499
Ni 2.5911640576636477 5.473671052645559 6.998361201154289 -1.6090197553714807 -0.7024739775130547 -0.6878369443261703
Ni 0.5356597999192406 9.155138298061662 9.047363830661618 0.7584679763801712 0.38577577451850337 0.12782625031807018
Ni 1.2472025874293589 0.7876202223778508 11.442330730086166 0.6890217086628908 0.5682220261742988 -0.9541140145556921
Ni 4.421754265418145 7.038317871577351 1.3830441482997184 -0.7983339593371735 0.7717904045206901 0.034769285160385285
Ni 5.45047699059992 7.913959787257911 7.857943165504072 0.9741084553997482 0.5724576615222012 1.2508553148123425
Ni 5.2926662328858605 3.098416827564713 4.871593301694411 -0.3858624206950387 0.5080150176670992 0.41515577034251727
Ni 0.6409763346930726 7.393984459158137 6.910498995508083 1.0591417789220081 -0.3108756827755033 1.0012721602987336
Ni 4.96470492963464 4.761572336732776 6.865841540329366 0.7346595611066637 -0.3577633484659774 -0.2693513382794716
Ni 8.174681094527708 7.443863084531725 9.154192308419093 0.4886219578524682 -1.514277946312205 -0.6535302006245003
Ni 4.500058147970652 0.13080813043114287 10.468942930846437 1.4003814187013497 0.24004898977092853 -0.6075935859933859
Ni 8.488744187712289 7.2895154873588615 4.899471744051035 -1.855250962693721 -0.22329953822673157 -1.0511867857409898
Ni 7.251949309067261 6.084572572112459 6.966641384671049 0.2355297617443363 0.5474871076197926 0.19779290931519483
Ni 2.344915116023899 5.194230451292563 2.62847323298877 1.1570056785500333 0.6175401556831365 0.06778327819256068
Ni 2.356480249515418 4.856116619507415 11.620361788570623 -0.9316518288974343 0.705881717643023 0.1441537838335001
Ni 1.0777173332593215 3.5225628580574555 3.809410977536463 -0.40853415126094156 -1.0274945843303724 0.6726617792476286
Ni 3.7599442859956698 2.7836064207896634 2.7260587175334017 -1.2603964215335584 -0.03139188404772013 0.19744041107178253
Ni 1.2682640716680509 3.3291271146709396 8.195637772592127 -0.4140666510433966 0.20575124493032304 0.41813593601676374
Ni 3.641814057219414 2.7088659481624395 7.249207032733456 0.07137922307393513 0.3477339892544334 -0.2299270708455782
Ni 4.2997963328858315 7.1130947985260615 5.985944493973322 -0.6244759635710213 -0.0785204621044067 -1.3986716350990944
Ni 0.8641961700919079 7.3951418838653264 11.244758332568995 -0.7593305814907825 -0.6477179648180974 0.5155691758652733
P 0.2850828189610344 5.676785418386681 8.25536817834738 0.1754500228436204 0.10249754174529445 -0.22897859088937986
P 8.503872731129091 1.7582192660238816 8.015232626420879 0.05883532497065351 -0.684491424892705 -0.5942058518325701
P 1.7183291247375312 2.9816354086834496 10.406544980116426 1.0213416773550992 -0.23256527979937366 0.6900964297843082
P 4.034144578635016 6.328133007542596 3.566220553469412 -0.03888716398350076 0.6263546686509729 1.387199887014069
P 6.816064987055938 3.757665890902778 10.36419508348779 0.28435166834304576 1.1018606579467733 0.2455717193613706
P 6.407366475293003 7.672805337045868 10.21480162860491 -2.1162246184324585 0.39139080671243565 0.5341338262413382
P 2.406039899576001 8.584172487782972 5.723466088407886 -0.6254581249786325 -0.11048750192930648 1.00064146869327
P 6.989031628927916 3.9221386758684536 1.3544730738348547 -0.17839984950056373 1.0981508131953541 0.39717373194279987
Ni 5.136176944325679 2.875535105997663 0.6389841060238479 0.859292758408733 -0.44671606164730165 -0.5857960305023202
Ni 1.544606055694715 1.0656509528473663 6.929960135033527 -0.4901175685613881 0.522380542360152 1.2461568808954087
Ni 6.99958515499819 0.68632277654788 9.361822453234327 -1.4068197181275255 -0.19503565828503186 -1.7391965081995984
Ni 2.811202342154769 1.2480319232431716 9.117538399522688 -0.6529774134448237 0.4821587187256277 0.6052459116968157
Ni 6.283932142740495 2.3231063181947387 2.7501887442832 1.0043896228817928 -0.17951956492730373 -0.5727744214316716
Ni 4.144746990024357 6.912787415539383 10.786629583586752 0.3668295724333037 -1.7099988035897196 -0.8402323993431724
Ni 8.09764399964685 7.335156297859671 0.06554760410642362 1.0556147396053561 0.21316527800620705 0.14877816997938892
Ni 7.980416015327379 3.9787157828151436 8.460890352022668 -0.8479020000732882 -0.21481566912543648 -1.2489691535332232
Ni 3.1720181026454903 8.576362149404538 12.287401140410301 -0.7629296116959505 -0.09080467878839844 1.4906309963172264
Ni -0.07053820071789388 4.799174969345862 10.50253011994781 1.1446782673329319 -0.7428151003342626 -1.4764907002611025
Ni 8.631471969911406 2.529155256815504 5.923346044475136 0.5784647869482296 0.9804253987567115 0.3516878316958588
Ni 3.471499467235564 2.4457933371567773 11.874129434016915 -0.46559412949872714 0.054697648653196124 -2.117156900438741
Ni 1.0685672985662678 3.0079463152161643 12.842008073922033 0.5501515418258331 0.19955848585604985 -0.4315853766534502
Ni 2.923846195547341 8.060533500373827 7.868760985405122 0.17802961064533857 0.42886154996438397 0.0634540546895875
Ni 5.731348424071254 7.978748230119383 3.703235032133592 -0.13357472276607318 1.2295989765367275 -1.0868086487096573
Ni 3.2429582122577707 8.572908102443714 3.7598440366115824 0.4354952532308177 -1.6577169634668676 -1.156899234879156
Ni 3.430005335803818 4.156248328453275 9.610054509962929 1.159526645199674 -1.0105479291737047 -0.625927094195251
Ni 7.349829162257894 6.067830924969891 11.468661686495699 -0.9181998171575864 0.1360874618855979 -0.0006962547360762203
Ni 0.924809681785165 9.139371804018852 0.32488273580170596 -1.06541167109112 -0.2949566975524017 0.08913937527083358
Ni 4.93720925765362 0.4484145836641895 1.7105342794457297 -0.7827633585924261 -0.40574784676505604 -0.3869697948266045
Ni 6.180228711692431 5.733854658673435 0.30228834734451626 -0.40347576290142767 -0.7013776591250824 -0.33237473318954375
Ni 7.858339606250235 -0.22936056585319747 11.28349378322227 1.2663032739362967 -0.7546763705482229 1.1627891180010297
Ni 0.15478231495658784 5.1667530064722875 5.82894849034448 -0.18925196172371925 -1.7424422688304058 0.4029970234927963
Ni 8.006499082350805 9.075640536480481 2.5570984055927664 -0.2927890004771216 0.7765292047572562 0.8005412514011374
P 8.423901063368588 1.905075500131317 3.4841081056796277 0.06697466624833627 -0.15276929341665302 1.7488679698510916
P 1.6683411363994844 2.896651271718584 1.7528185582956908 0.6505952863658925 0.6639899625052436 -0.27155400235774524
P 4.751310445234391 0.9769120207694153 8.1492460030687 0.1595930012067058 -0.24996367778147915 1.006441620314815
P 8.540217689650902 1.5087076626111113 12.390922299850937 0.7027236316300156 0.037802415559754256 0.04274896093175218
P 6.545437217922248 8.053999063247414 1.4316231771123207 -0.9750006281967145 -2.0131537206821974 -0.13257096409190716
P 1.8512598080372122 3.3284344825627006 6.109580236652041 0.031731269665009866 -0.0155114653720378 -1.4264220657394853
P 6.960980028544231 4.086410962065954 6.103003877055918 -0.10128963748012233 0.3660325304533051 -0.44773216161664187
P 2.417231376272286 8.292519688732074 10.073999545938307 0.22802882538160085 0.6920126729704146 0.28630287853214564
