# total energy = -381161.880934859 ev
CRYSTAL
PRIMVEC
9.25335284083027 0.00000000000000 0.00000000000000
0.00000000000000 9.25335284083027 0.00000000000000
0.00000000000000 0.00000000000000 13.54321722580256
PRIMCOORD
 96 1
Ni 3.49123456903224 1.699082172249126 13.19786584799945 1.0261249576763554 0.23522534313004007 -0.04613921756022376
Ni 8.063936263930529 8.05455336398248 9.60280495689909 -0.3513255632604337 1.4016908815413922 -1.9799283829701642
Ni 4.33374310687227 2.32635771917043 2.1627843474134005 1.0014554799541333 2.1574982803702647 0.04344675832972517
Ni 6.599694937619766 0.6017187112541317 9.716473145224354 -0.3230267163157404 0.7780998916784857 -1.4257209259074026
Ni 9.284351738534134 1.2779528235946915 9.865462307308682 -1.0968650045043948 0.2778364929323473 0.9311869734458736
Ni 8.370758942902286 6.222574535861697 13.01382683539913 0.06397264619721886 0.8461456795038137 0.20050182360592567
Ni 8.603045863411007 5.199144440049055 7.805037625511957 3.0358753091039588 -1.2496155288679704 1.700428386292465
Ni 7.695208653348868 3.869326572855935 13.440682158893654 0.2300124314705329 -0.535377211730136 -0.5065921691776437
Ni 2.30778623968746 8.037157060331268 2.6329231549286236 -1.0543518137325325 -0.6785593756789862 0.5154398493762606
Ni 5.446625366193567 4.488301862130889 0.6363308781729405 0.7489278981002199 -0.28896834117945075 2.0380713098594834
Ni 7.822368230356827 6.176835211953216 3.813960060480049 1.6744635867975872 -1.4227327898133562 1.4319486519846694
Ni 0.5527333111111586 4.282118650451996 1.4199788375420328 0.0392309204761647 -0.293599669303875 -1.2320379249955233
Ni 0.5166396823760948 4.757389367544326 12.113148944557706 0.7173074429814614 0.5099726556141023 -1.0890822752351825
Ni 7.1492885860560005 3.639806404896 3.9767894626553995 0.07300056072744203 0.9114123619221077 0.27355534905849016
Ni 0.12131515924939244 5.194129122719823 5.494036770990225 -0.6910030007589777 0.7075513920359621 1.1314586833188645
Ni 7.4801237160782375 8.572445025020281 4.9389808682745695 1.4938379332902982 0.019857915266191607 -0.24420774913430843
Ni 4.871862597581109 6.8305105750005355 7.562262029370979 -0.005114438408429902 -1.18092902213485 0.06609997695286682
Ni 2.1411426054030516 3.0989201616383775 10.865669263082257 0.691995446579234 -0.31736951802996316 0.8868606407246725
Ni 1.5763642046840296 0.8892648052438666 12.195667570658992 -0.49687468477956365 -0.3980342801708822 -1.2387425907092084
Ni 1.3540801587747584 9.020224030331892 8.667306698696224 0.03589182880060271 -0.42486554143111344 0.05275260911168335
Ni 0.5929613379692872 7.47942971460279 4.642777337212454 0.5225795457448354 0.44897606132607193 -0.5815465111973468
Ni 0.6497713734141034 8.47443350998111 0.9874086432310242 -1.2031587800673278 0.28225853325944295 -0.1790138289354788
Ni 6.069153943022811 6.91226394880823 5.188379089161917 -0.9999125609470456 -1.6192046663242823 1.9690310193313705
Ni 8.165898960703247 0.8730177680359947 12.04138271464935 0.2171630863116905 0.07851814811156156 0.7409970732889174
P 5.596289097712031 3.211431680837895 5.624376725426335 -0.8087618395387167 1.2324446735156387 -0.2140556510309604
Ni 2.6538338820515017 7.917761046495312 7.160976496237835 1.0291357194782214 0.8157547259167823 -0.3388500565012422
P 0.7676026452567505 7.532506947445 9.927043371563375 1.6954730991697187 -1.7833312937352837 0.3427002834852678
Ni 5.194508510193067 8.695283286174456 3.860249958892385 -1.3802013442090488 1.3347799786514558 0.7948560280909021
P 7.8285124567527875 8.181074459633027 0.21113097953118232 0.43418013396382 1.5935378576857975 0.22919430644461175
P 7.2728208486856225 2.358392827277078 10.7517031167902 1.1208014607153343 -1.1555033829728938 1.7022358718148491
P 8.044772569855176 0.5886094860505822 7.823591523624216 0.9730136796736728 -0.029285122117362467 0.6752668209706436
Ni 0.7697133350774108 7.946835081640051 11.959812557231176 -1.365857931003183 -0.05135367188162768 0.2861103029053653
Ni 2.5994519264354503 8.429545494549178 13.467118063096393 0.5718843055172345 -0.2687273315422275 -0.9471468392092397
Ni 4.341608456927339 5.284886009002319 5.963377014141034 0.5024218398500379 -0.9756706576805453 -0.6508110019211244
Ni 6.07000525149936 6.951673979260631 2.89203184446043 -0.9013500925900993 0.19379458678907913 -2.851569892752237
Ni 2.7967704259346298 5.164981060751035 1.7525739553060038 -0.1494296875204588 -1.608996615443029 0.8031843454509393
Ni 5.355202238494641 3.264240566442933 12.38409452325474 -1.2803906052672982 5.735049489728877 -1.0956360171933002
Ni 6.169895197198743 8.753819997290185 7.503091463574341 0.8588459006793016 -0.38557265736876173 0.1426077795026189
Ni 1.028445413141874 0.2547114961833717 6.418009052688862 -0.1731900231648501 -0.17090714066794438 0.9415855430713783
Ni 5.836200781097664 0.5504014661536557 1.9019008647750508 0.3786111384492641 -1.8080614494921117 0.31935723788395326
Ni 3.7786066999854624 6.480872631670181 3.6659730365262657 -0.6266452033081982 -0.2837888538610403 1.2890115141670897
Ni 6.760990133866727 3.8343766585524084 9.567348884186138 1.9865713422079787 3.6313623416417977 1.5697674947390774
Ni 0.5299922707637011 1.2409394115708348 2.78716729618504 0.5615523274636072 -1.331626777734455 1.3920839545792478
Ni 0.611214502108852 6.415553212801079 2.511765302680333 0.23682225530351472 -0.7661910560560418 -0.7312045126785278
Ni 8.599002148147399 6.001373132254123 10.44371636601029 -0.1105072994236484 -0.8727072320424261 0.24437769905326948
Ni 8.247346973861744 8.200321433885433 2.7016144956330983 -0.463966106977001 0.8837997424111619 -0.6771498969259693
Ni 4.945315713742453 3.042104574181758 8.940731250663557 -3.8885683028079865 0.05042164698566155 0.6363475181976267
Ni 3.8023508037987663 1.4364350005278397 4.396317981239802 0.7173771198771323 -0.524158203085865 -0.37615162116517803
Ni 1.6094264349743395 6.351270169468646 13.500908532268273 -0.34058143737005214 -0.9072749427149666 2.2655609749081624
Ni 2.687377286698122 3.9060068641715766 13.11709332961039 -0.32790075657859014 0.5934247506921715 0.1847108793202561
Ni 3.8711309766920983 7.734193029562995 9.493510828539746 -0.4551513368988484 -0.5849938463159989 1.5087498174051244
Ni 8.417071974697137 2.7391312900604787 5.680215158805525 -1.619014147580031 -1.2886654436815805 -0.7011894543736763
Ni 2.0890092145674495 2.894023166027313 2.758740070415418 1.5117495234633964 0.2868793198609059 -0.3777781010250075
Ni 3.6551669708859005 3.586655145229742 4.486001478573606 0.22389423438793699 1.964052335169856 -0.571333575220087
Ni 4.5092051865713625 5.005684588753363 10.711167878612274 -1.1308575593997556 -0.6772722814364465 -1.0995381804611837
Ni 4.161825061374461 0.6743889937511706 8.724811660951788 0.979606759510158 0.032096623424228594 2.183626859136517
P 1.6494842001371581 1.7444421086843622 0.9596828216192538 -0.28337953423776363 0.29434117545558985 -0.9775259657217292
Ni 5.2458368593171505 4.731914886718907 2.9927666212892574 -0.20697637558667578 -0.28164763914832136 0.21879573681910705
P 3.7355138350366874 4.986234040734827 8.605021454277779 1.8954231640372323 -0.5521400330107717 -1.0153042129117675
Ni 6.4779948388853255 5.465742793503889 11.726868648659034 0.7405715557157245 -0.17553615479952348 0.9002889983154365
P 6.649339176496763 3.2396266474470683 1.950142295336344 0.23517623505965948 -0.8062401015581275 -0.2867944734565835
P 4.836422255568267 7.102114992431596 11.625104898975943 0.5078075296419835 -0.13364465677206014 -1.8518450223359655
P 3.3117287740695414 0.400541563551465 10.975531547316166 0.9789200178557785 0.3889623997766011 -0.2882378907713294
Ni 2.270097332894168 5.7960134689927605 7.003956349079629 -0.9465382590909632 -1.417119814501953 3.5417293145639968
Ni 4.733589743612987 8.867978613324766 12.825779270276625 0.174415410931519 0.6177571567899489 0.5871736275761371
Ni 5.380815519615149 1.491224103676153 11.550780116961436 -0.690244011105766 -4.506416990870477 -2.514737638011972
Ni 0.337443874739096 3.890674058240694 3.7149584366692383 -1.3571827718266884 0.3326801802451045 -0.9996868180894848
Ni 9.150539000714886 7.4794389679557955 6.844809781400652 -0.7254149025799442 -0.09103736362449483 1.0848659231609896
Ni 6.0374334489183665 7.022971064171585 0.16140901248893452 0.9509890957734654 -0.03638856593136314 0.5871756844586662
Ni 6.725429498264806 8.370842223079341 11.486138043532375 -0.37454416746874203 -1.6201809141946224 1.0709290013649233
Ni 2.793679806030638 8.764137485891835 4.754441249276627 -0.20831797721623477 -1.0170379077734226 0.9707053432554701
Ni 6.215828841520349 6.506569192967742 9.570802235527962 0.07497156841088379 0.01055746380087214 -0.4049433485858897
Ni 1.9911272464703609 1.896844832692592 8.814440563502858 0.3286402058477759 2.062002880974416 0.23170884533634933
Ni 8.467845122640863 1.3403944496789377 0.9469354025182376 -0.2936523769186814 -0.23388476994174556 -0.8410466677143515
Ni 7.528102351414161 1.2941091779431049 3.3119804652713034 -0.2385970878157504 0.22742924412438897 0.21856639441712036
Ni 1.9184699186675302 5.565281111789045 9.38337742106276 -0.9328569049491289 1.227130203281261 0.012441053976830187
Ni 0.42758356237609463 4.016547419180824 9.695765066532307 -1.3886808424349695 -1.754338506047359 0.0035180404555874897
Ni 6.433014289923333 4.41949392917854 7.409860230698049 -1.7074436412680336 -0.3365718019900268 -1.7066242306905317
Ni 6.227117932187625 1.8965302186903892 0.2268542769589166 0.3041383640516698 -0.5907109513054343 0.4289718502900032
Ni 4.167580646944172 5.770594508285378 13.094002512519305 -1.723249755062355 -0.701648653398282 -2.264613523393229
Ni 3.3652501678560376 0.4189372293273217 1.6593288424002035 0.3577003564385259 -0.047206225372157413 0.58531189177705
Ni 3.037366857442704 1.0585558238232813 6.955972161731901 0.6480486086846388 -0.9884194727057817 -2.567813177680713
Ni 7.630536969190185 5.504634636187956 1.576037561322919 -0.27838979433265604 -0.2548207487634644 0.9563251632743981
Ni 8.289755090688077 2.779651722873596 8.173683806587164 0.6932005226309288 -0.6703624416904908 -0.20208819425643906
Ni 6.120750639384068 1.9220232062218205 7.442729065910536 0.21797092692496653 0.3346370468611592 1.65630619916227
Ni 2.473819152673475 6.127181719723213 11.471172595715826 0.2510774796709483 0.6881881570180018 -0.35901547570552367
Ni 6.3607456029467535 1.2379598319029144 5.455925911299861 -0.6183492818479931 -0.9200983197318798 -2.437961412292182
Ni 0.4964460901111793 2.7395754510047654 12.798705810051775 -0.3018847921308027 -1.0589286344699373 1.0936107592331554
P 4.61087177604789 8.4314424319154 6.05421070325348 -1.052841290625277 0.8470856748195797 -0.8362932121897663
Ni 1.6032174351073374 2.666113081490416 5.246561396857517 0.794567807426522 -1.9640603055896562 -0.8946821936516204
P 9.165881059998775 0.7465457151563784 4.901479804547299 -1.7448776177447756 0.7116404745036712 -3.1930843834595204
Ni 3.152052914598624 3.23350092775712 7.123963084213978 -0.17818593371754474 2.051552117954738 0.1258837818797187
P 0.6485147680758936 3.4545635310696037 6.859097883777162 1.395411990511216 1.7050923674270375 3.1269329844434277
P 2.1177223689449565 5.614573723251816 5.085776060361185 1.5332514020909143 0.3372307757302644 -4.605305732218591
P 7.182683937054526 6.398490029858082 7.181575385364412 -2.2044548516254614 2.7408350506988155 -1.029309526051924
Ni 3.8626549053386348 6.976954139672925 1.2600383321751447 1.2640065074823201 2.4622215703911277 1.5379842887902093
