# total energy = -381164.72024072084 ev
CRYSTAL
PRIMVEC
9.27528780581946 0.00000000000000 0.00000000000000
0.00000000000000 9.27528780581946 0.00000000000000
0.00000000000000 0.00000000000000 13.57532126428117
PRIMCOORD
 96 1
Ni 4.658374233738314 1.1268361800917905 1.8897388151861856 0.4502706117677793 0.39055802639849513 1.528486119491787
Ni 0.1492811215962673 3.01282685142529 8.577431034531726 -1.2134686466337683 0.7539731738336112 1.4207124169492178
Ni 4.872169620534671 0.521551295385531 11.37406947487461 0.31456058782625823 -3.3430766283516684 0.8468419342398898
Ni 0.04634397614438159 8.09189104453608 4.393462735157372 1.9741107478471225 -0.2956241559330715 0.49284473768456405
Ni 7.646092880735937 9.367298786697459 3.402735840271848 1.5641210950865774 -3.1323680394160696 -0.610177030449846
Ni 7.462868842958271 4.481012177932678 7.944821151582427 0.8333701250057003 1.1842647713763024 0.8277000712041164
Ni 1.1330598982931075 4.187347286767409 11.872949183971796 0.6425053102689063 2.7385249145084 1.3739221960685566
Ni 0.8878008797791542 8.210215892664545 11.523479522973108 0.5932383457129784 -0.8744879780919327 0.7300459735940523
Ni 1.1843151393966505 7.782708596663206 8.425021358316526 -3.0649557714096827 -0.37194169684888845 1.746755808604095
Ni 1.5095716612529557 2.6175511809821868 2.976294274853715 0.9288914925434777 -0.6472729068608789 0.7758784585471348
Ni 1.2525348821249456 3.3592032038991793 0.7947140901093827 0.8061812232957342 0.7333436705087176 -0.8121286991284208
Ni 2.7880031472796554 -0.28784372046013246 7.830313084437332 1.181847163073745 2.7945302262294263 -1.6138608855138656
Ni 3.5589372541930078 8.281561407425395 2.13294057483717 -0.2938698922461262 -1.2372734623628499 0.09090160937757893
Ni 3.081278476351846 4.821656402465563 -0.07328683252468773 1.0339498530374127 -1.2565577645137584 0.14822641124097696
Ni 2.125543532712654 6.385562700414963 4.007774002319159 0.013221898006912713 1.7651386819866568 -1.9239768073052088
Ni 1.6561490364175033 7.975606759752309 0.2879030823028872 0.5799007480638078 1.4294950482378541 0.7861513012280525
Ni 6.606880345722897 7.6048549505972565 2.347675548300879 -0.746208699396844 -1.786931352381716 1.1711320906490863
Ni 8.333976059520241 8.27904780439625 1.12791211349172 1.8350626606713043 0.7503561459063142 -0.44540557036599415
Ni 4.626226085771453 6.432690438389466 0.9430519149231255 0.23676569103396644 -0.6342839508003786 2.136932283293455
Ni 7.533574362851921 3.6213599419647853 11.134437773548047 -0.8364312804295272 0.6433509460986533 -0.6827721282087531
Ni 5.129252776102334 6.4229513860625165 6.580596034785651 1.164969156371484 0.33704128542727757 0.12002706598862556
Ni 4.962204840475333 6.30284568265141 12.31098393177417 -1.480179204856283 0.4668280019058283 0.37502264976705735
Ni 5.704775116897437 3.0215734479436835 9.263134520652379 0.2637573891314619 1.0225066441974777 -0.9657006909520273
Ni 2.5027323916914233 9.044407463263413 10.088798391528012 1.6358523021832923 -0.6002643993218243 0.6789686953022629
P 3.396591889546733 7.967092045432176 11.7740662668743 -0.006926037695871943 0.07841581820574237 0.486434463282846
Ni 2.1259238195178014 5.963388694973619 1.5172052232196975 -0.08887172343174371 1.293798908253404 2.464598812374052
P 6.227623097535642 5.446616027929845 2.797778373229533 -0.6525323554876052 2.1916813540098774 2.6269243820205728
Ni 0.2961692189064843 2.4612162029148292 11.226207472331698 -0.43450126474866463 -3.536831105931431 -1.7170402838175334
P 7.673872368087569 1.0622245243684316 12.080298245656506 0.29263139185333475 2.177006782716838 -0.16417907791549147
P 1.6237040792368675 7.282371739832149 6.374156878846916 0.045244730770412404 -0.512525246832627 -0.909751429279917
P 5.42632169793807 2.4768450630776 5.662945423388795 0.4782377864046667 -0.714031343333351 -0.40450266150404535
Ni 8.508156691565741 3.127933174641897 13.251834820871405 -1.111259325552854 -0.2499827039448727 0.4012273331868832
Ni 3.063228766039234 6.614170722036213 8.050463898523619 -1.4113679996198403 -2.0832245093573545 -3.7658732030688946
Ni 4.017581691776792 1.5336410334324153 9.544020847635897 -1.0317471889591392 -0.04002050625699559 -1.6993539222813636
Ni 7.273179929493095 2.5688188181957203 7.032002965197323 -0.7248893690937774 -2.652026319294523 -0.5607138907227117
Ni 0.45563275159277505 0.548076763808968 9.894752875321915 -1.1656517842608052 0.3570575806482044 -0.49863357645219925
Ni 7.6012097624405985 1.7647162816431587 9.530921358491755 0.5677880239606737 -0.45190429071646043 0.8613221301339359
Ni 9.572746414356432 2.8282300710339197 6.234615737106392 -0.561122181904724 1.8984182421098141 0.16875127066720613
Ni 3.8293768243804855 0.008247586027736238 13.619576799093036 0.05092224077116392 -1.100582562565298 -2.5839815599104594
Ni 5.6586305594435595 5.291913500538243 10.413696887270204 1.8747818336377973 -2.3272183427086435 2.926293606818373
Ni 0.3461018039511483 0.8279168383139345 7.548449142105947 0.837538654561093 -0.0010358974636820871 -0.5423587852542917
Ni 1.4533170399549122 6.245617156120671 10.374396564780188 0.1515981559266873 -0.6404607690350518 -0.5479789596545466
Ni 6.173770775811579 7.621810176934078 10.963755780109905 0.11234640951491619 0.8834035354140077 -1.4542123484788763
Ni 7.377276485936284 5.100017068545625 1.1478910836938612 1.6616420095528868 -0.04020793967745333 -1.1808817138366825
Ni 1.0506211391674667 1.1608579362205989 4.976726231259209 -0.4373405339696726 0.19775588542967232 0.8647941478429365
Ni 8.729103325356457 7.362055738442453 6.806734047231028 -0.22088115859322605 0.120909725703895 -0.03297336960222708
Ni 5.153322148281793 4.971600707148855 4.714871867580135 1.2266841168827778 -1.1639556275053051 -1.1356835200334894
Ni 3.2967526902636104 1.237944854210383 6.1003290459784525 0.43046283301323285 1.6266503239690504 -0.5684341421851049
Ni 6.737726832557439 1.9865626183631264 3.6112934719738923 -1.348496042685968 3.5913287227586794 0.2817592250255212
Ni 2.8103565911919857 2.0113740135770204 12.593025032105027 -0.3907650002029786 0.5065258347160825 0.3087982314211843
Ni 9.055240999566154 4.037820370040985 2.588189329509625 -0.8267698460803632 0.18550483597646117 -0.18209786717744122
Ni 5.567946069347769 3.6934103786083474 1.9874270751982421 -1.2270651543712803 -1.5218776130363338 -0.7535805663808829
Ni 3.327611573208143 4.651779504019781 3.01490266086412 0.5546201191201481 -0.42436160521150135 -0.4967790397419638
Ni 0.6787229044242131 5.358797601804556 7.528886632331881 0.7323077730450356 -0.7901802198817875 1.5772689453224447
Ni 5.4091624152667785 0.6652013896792358 7.365195423406902 0.3969369333416454 1.8460947501157496 -1.4602793806085623
Ni 5.158785292872815 0.5221078126613568 4.486046804221314 -0.24069639354694028 -1.3430512175213127 0.7981079593692965
P 7.0266520515902595 6.636051126264091 13.246581297787612 -1.07906011511249 -1.2653118565573047 0.24914272454208058
Ni 5.807767914076905 1.8597416064903896 13.583874360791231 1.2943223848570418 -0.6042233839695722 -0.4936551494010014
P 0.8838560998223434 8.853271604881092 2.5437978014745983 0.09973052052311855 -0.3589200877782399 -0.9798669551500802
Ni 9.16795429849671 1.457694975858074 1.5040101986098713 -1.5022426124142256 0.23308181442447598 2.007998401733503
P 6.59416392597028 8.096398834470268 6.332398605055339 -0.20138833997593703 0.3160492565566428 0.023385725913791983
P 5.324274980127504 5.1025584974385625 8.485662263276868 -3.0329097987177316 -2.643525995132996 -3.0985958280616313
P 6.880742497156703 0.8635664074745331 1.7067707753553982 -0.443039898347295 0.2625284018203672 -2.2756574399122163
Ni 6.650149563918342 6.537055978182638 8.61813007044165 2.369956247896802 3.497419179792712 -0.22313935849978347
Ni 3.1320977789226587 4.177617509728391 8.840982775902068 1.2942123416417388 2.0789515930136133 1.5163289153039627
Ni 2.304649342649211 1.011952463785514 1.3167421352945377 -1.057347920246379 0.26375636069019737 0.3430414688747705
Ni 3.311991988333302 4.653180072497275 11.300599919177692 1.0454177444676962 0.40272191545453867 -0.9929975789947674
Ni 4.323721845208486 3.9252740262931765 6.7890729714827 0.5385746356215112 -1.0883731649832997 0.9854861011090704
Ni 2.187038691691389 3.673283003799319 4.954381135106017 -0.36474286510760406 -0.436113603541107 0.794697905246483
Ni 7.541189374242801 6.718842346331089 4.856313515817605 -1.7636741816259884 -0.31254767116128757 -1.0340334138901548
Ni 4.007647858403304 6.670490270349769 9.835551495048376 -0.18829088336203056 0.25048072662721377 4.953190902338908
Ni 8.905343071322513 6.3951718987108865 2.6355266889913556 0.5418548490346798 0.3804196524129126 0.2569624776968155
Ni 5.945635793874781 8.41876146649228 0.36949593516927287 -0.16726543015029904 1.1749308955698863 -1.0681354977801862
Ni 7.535206813527675 4.342392999812437 5.376275026851862 0.37838950935676124 -0.6795376804318556 -0.5028247317154114
Ni 0.4198171547782218 0.6817605612214281 13.114439053229187 0.10616213508107523 0.03675546235247863 -1.447183723766869
Ni 4.965108005597556 2.6027292708693635 11.59905364150144 -0.06604084158015723 3.2229806567983204 -0.9497343974307578
Ni 4.798848469444641 8.076392038404336 8.318413981430568 1.2113199757218815 0.19282502378695823 0.4782485850379441
Ni 7.96021905707573 8.225751999948011 12.321721932611226 1.1020383211752183 1.5394217925676843 -0.5814763200810437
Ni 8.441272590299427 7.651546750039029 9.793182907310975 0.5141170167997791 -0.6709512243144251 0.5607696836613116
Ni 9.771330328946886 5.629311374295478 5.3195028444873 -1.085448535137337 -0.7004194089768712 -0.9516028180980644
Ni 8.126543520244157 0.6811001607207817 5.418860656326833 -0.9108423483512507 0.11066285116490619 2.641477083023767
Ni 7.6703106575222835 9.054127965014501 8.050450913120516 -0.5389790701487814 0.0873203197842238 -0.40863853804928973
Ni 0.8656032607040549 5.969389806264607 13.33969498579238 -1.6712131981810896 -0.7618854867021524 -0.7667919228648342
Ni 4.898140426739869 7.254666454783962 3.808420238830477 -0.6648176006128615 -0.7832292424852512 0.8156493106871696
Ni 5.928578539370725 4.210943619262417 13.048055817511118 0.10165370568776042 0.576554200189078 -0.17877985854780176
Ni 2.592173993204537 0.3524201300893556 3.786048244342286 1.5454764834021963 -0.4656905458672754 -1.2825246208911654
Ni 2.1699999877631932 2.6238398261990166 7.814172228380802 0.23717989575324958 -2.3771861899863382 -1.6546398672034408
Ni 8.48731511958607 6.003420837681345 11.669319512747187 -0.2385122414114279 -0.9727997638906535 -0.7022870583132292
P 2.541401067073376 2.7820484124283205 10.543300485522069 -0.5313711758945364 -0.21428576476389546 -0.3892285089537942
Ni 3.3934939433779703 8.252316424580757 5.517254765750395 -0.055025464306260076 -1.1289109771963461 0.36273251954579466
P 8.931610686741484 5.2537085895528115 9.496711314017958 -0.47803081260018315 0.047237592830725095 0.2268062658284094
Ni 3.189715867546475 5.521931365924917 5.756180617665453 -1.6647345324352814 1.4115101816246594 0.39479006220197166
P 3.439137635283604 2.9894995022802644 1.3434772252252023 -0.03827395587953408 0.2807084151635037 0.2555594267017018
P 8.757198172497722 2.5335819993480255 4.1477492275348276 0.49773883255207185 0.6952777168749316 0.5966795101840433
P 6.145434771184123 0.18812973756407034 9.48515894290061 -1.185665765488887 -0.032504143275292406 0.9564102667890366
Ni 4.010847832739302 2.4922976927696925 3.8358296421936844 0.10045068651859476 0.24391901424929602 0.25891728743034115
