# total energy = -381174.93868462445 ev
CRYSTAL
PRIMVEC
9.17225542659236 0.00000000000000 0.00000000000000

0.00000000000000 9.17225542659236 0.00000000000000

0.00000000000000 0.00000000000000 13.42452296260715

PRIMCOORD
 96 1
Ni 5.3086905449231985 4.4226598319732435 3.5233871336995706 -1.2498515561381764 -0.04671591599930019 -0.551062997896509
Ni 8.97072274169524 4.684041598108865 4.368339900211712 -0.4761531359614961 -0.9845880147748335 0.15434383699262452
Ni 5.398523615686165 7.374887861493603 10.729039542667817 1.1581986704168699 0.1510998761340301 -0.1691683035999667
Ni 6.155656621526464 8.096615960947844 12.883111653443306 -0.5702130884623987 0.6853997956395873 1.23977720262131
Ni 3.8614553767320614 6.2956435855845 3.075128915957684 0.7566134396699356 -0.20994831373080614 -0.11703867278426294
Ni 5.244145382685196 4.643674501475434 9.134353946085396 0.7525955767597942 0.12973143776058302 1.3268252425807534
Ni 3.4845398798091893 7.166475871103963 5.256412357244966 0.3858233399269871 0.37654088618379666 1.023845160503243
Ni 3.6589961801881596 3.082593297516485 13.435530922327866 1.6034204069068323 0.45984617127135635 -0.6419080430045396
Ni 1.3401032234789203 4.899488708498015 6.314520087486704 0.5098530993171025 0.2708811446604367 0.329378112455065
Ni 7.463005720470511 3.860318017045048 2.5191113712246143 0.3136164787454341 -1.0439128777873956 -1.2398263106916905
Ni 3.995709681077329 0.1397475681884307 9.381271982459314 0.4976694127667171 0.6882917724754016 1.0530518639741864
Ni 3.524319952088032 2.6924605803598545 9.548930724257271 -0.014385579297710711 -0.8899277096857705 -1.9038970058361984
Ni 7.502006151028417 1.2880048120092802 12.400245598321824 -1.8544582915890964 0.7048581614745151 -1.8461045203077624
Ni 0.9689203862688168 7.396424317502532 6.13959783652628 2.0536190277860955 -1.2773145374451356 0.5656902608913805
Ni 4.827119612284026 5.031871872713035 5.822013991792231 -1.3383836368423143 1.111341343743699 -0.14268079883239942
Ni 0.8619306115174763 1.0945986316837826 10.81985679645027 -1.3020341516790028 1.03921855763552 -0.5710283852748423
Ni 6.03811416677586 2.256090523023918 8.974696162795356 -0.6098127051318917 -0.14784794485563568 0.3077561633099151
Ni 0.7230525731542783 2.3293126390031675 4.763638431688713 0.883712067793362 1.1005887332128852 0.5035448977108875
Ni 5.510654439667917 5.284365723229979 1.3486004010115742 0.2077695609119325 0.29187728729612955 -0.6411161432308636
Ni 4.286415148175704 2.2666753059175737 5.1907931238831795 1.1699406414441464 0.4638316382816657 0.5867625081806476
Ni 5.419729870495639 8.586643713195294 7.405637848192894 0.9653245385595309 -1.267583426200301 0.47323570520438496
Ni 3.5659436477305015 8.15844613554588 11.997026824185664 2.2026309110428453 -1.6694879879598665 -0.03063546549766982
Ni 1.1568140410145165 3.108660847762386 2.361521014333386 -1.2953814222491755 -0.4917011109984242 0.6647661785496358
Ni 9.11890970220642 0.26866178535806007 0.2765224083562082 -0.13062129656470406 -0.2295545179975079 0.5525272411468614
P 1.9067468262555776 4.337495439280356 0.3150201993104991 -0.7365302957668155 1.312401610956256 -0.47712269896361703
Ni 5.7618183131315 1.315457372841786 3.129927639458426 -0.263813696290694 1.051869670740627 1.590853883095731
P 2.978827570587606 6.10323718111291 7.373043320904423 -0.17619101477470303 -1.4156519717071747 -0.8644015403902081
Ni 0.6547697167835504 8.827213631509679 4.401927782775211 -0.9749816020333208 0.5541035844950457 -0.4287070266643907
P 7.9070529556937865 7.124393562684473 9.613676758891609 0.44782832087487384 -0.7093663337575138 -0.13632734581054587
P 1.7173672661123285 0.6816490116447793 2.082962365247202 -1.7099005874489581 1.4715822072158915 0.04178428302563771
P 4.603628433785919 7.65175239498147 1.2488979832871048 -0.7449267473606267 -0.5180855145292238 -0.3832568647513916
Ni 8.072878163609213 4.679794843793646 8.638492639314233 0.34707810083798935 -0.6771205863499306 1.1092163269808961
Ni 8.241326636609202 8.237584356348705 6.847070416419585 -2.4837265343424386 0.8852519014766561 0.5809168480331479
Ni 2.294109522238999 6.684959971998033 1.316117775240697 1.6053027115312095 -1.4681896365945746 -0.03504130787484933
Ni 0.8160895127775174 0.6639227105873451 6.662201771551119 -0.7768984151712168 0.07309003511745477 0.8139762938601207
Ni 7.038238566393217 3.6357353401376304 10.79875327090285 0.7014684190666758 0.5129404799931746 -0.3619552750601379
Ni 2.826485578316611 4.065657301828645 4.322830837122316 -0.351664177546775 1.4506151180459212 1.574570315444359
Ni 6.4874629657015035 3.9023086029091347 6.9340481640328155 0.9065424354243162 0.3448546108241093 1.6524220336165154
Ni 6.065264043175531 7.491513090690165 5.551227912051007 0.6859767511889798 -0.9259987443767149 -0.5136146232420639
Ni 6.537681064785356 3.1470834262212453 4.836922919005636 1.832092779409703 -1.4642915870917492 -0.19095017536174855
Ni 7.500465212097624 6.450682220984381 12.015606145008359 -0.5153640018330028 -1.2332908235660178 -1.6788424325915734
Ni 6.745689475931217 0.5887973515834567 1.189625950759295 0.17232253295823224 -0.5384949314235113 0.38898811080821394
Ni 8.290664199161172 5.8533665956805265 6.634184199777323 -0.017670934917201824 -1.4133150960438818 -0.1905575679090202
Ni 7.007685783188047 9.104270782363894 9.034556136903305 -0.42351339827859313 -1.0712835564908647 1.0115691713493677
Ni 1.6501071162343586 2.0972362293192184 0.346682825436062 -0.8671225388657968 -0.7811340505191192 -1.3761235745952494
Ni 3.9817036468670928 5.773421216390143 12.985352951501365 1.1025833950454107 -0.2685337274741827 -0.06786478216277343
Ni 8.833138908588797 3.377252006752785 12.479637890603122 1.2284319528118197 0.8917421371866899 0.5328343907036243
Ni 7.424977548999889 8.7345646782958 3.4355095878178235 1.1865471396525757 0.08383416100783626 -0.26584821022221955
Ni 1.58586463842919 3.92612895054763 8.909144804124566 -1.608602979549036 -0.9868945514208229 -0.7879541587647462
Ni 1.0546534588052119 6.197940719567844 8.555636903340872 -0.19631632476966834 0.5059262534588707 -1.789226833284112
Ni 3.0389975669328235 1.0651832081656252 11.512240098754017 0.3991997612338931 1.1297913229187704 0.09883320551982978
Ni 6.417056732173166 6.2817567906962894 7.932308761324359 0.15594871958589915 1.2778099890243155 0.2368942461920307
Ni 3.054810535484524 5.196825716352119 10.060391286026043 1.0954005041437263 0.362407274995892 -0.28007592378582735
Ni 2.786980673703981 8.19948280683376 7.485688708421993 -0.8172400522130571 1.8898577541343131 -0.3688553446140809
Ni 8.131608115834583 5.3360513832003 0.39717425773501863 -0.7121755210715348 -0.6332853343325352 1.6896035277628192
Ni 4.194334874805331 3.5157255486466497 7.479634102539755 -0.2632562811253273 0.4194217447077228 -0.4552037874033386
P 5.557579699012755 5.289254535433028 11.352635514546108 -0.26401887032296467 -0.6048576751194614 0.5126954538619041
Ni 0.5220086556402649 7.963847562000126 2.312253160923522 -1.612921661529048 -0.5665266407497469 -0.8272912658014719
P 8.242463996296214 0.8621094705005147 5.328179753495504 -0.5944544775082665 0.2731511716415361 -0.9438506849564712
Ni 3.8633173446067683 0.6596374327988563 1.7096671575861377 1.8839802123076133 -0.24045316718788265 -1.1031323255703456
P 4.4817658466757715 -0.012364200468499046 5.484011788999632 0.17711686902308205 0.25129962298408337 -0.6551723642136136
P 1.414361804334238 8.426807988147768 11.720105422713447 -0.7299104764574527 -0.5304854308554735 0.20309632380597925
P 4.955659601427605 2.772314237094834 1.8384346186671203 -0.049063076075238084 0.7449722558865814 -0.895333196972058
Ni 0.5160806268844853 6.949937262305502 13.293889283370337 -1.5944616550516475 1.168594411828897 0.15801434386567625
Ni 2.203129919533478 3.2088310505194175 11.318926558209476 -1.3949173102629846 1.4532646398536262 1.1745912528422804
Ni 8.309329739185946 8.534747091347542 11.428658837367406 0.48472647945280384 -0.4581291885802497 -0.9869631998752292
Ni 6.41670818646263 3.6110803172449555 13.180317498043184 -0.5389315047402977 -0.30357297846650294 0.6240676723890092
Ni 2.939249287930652 2.1492429182334543 3.3050104048908078 0.7682785347126897 -1.6176782023774268 -0.7384326549958508
Ni 2.344428516133795 7.646377453234778 9.900478514031978 -0.01728115567795088 -0.05446342115520298 0.7460400350294636
Ni 8.900720087410683 2.9785799196880145 6.820933157031576 -0.3510813084601115 0.8811358224257535 0.06457402722664363
Ni 8.378332617616598 6.994752902876042 4.652590851086286 0.3948689950690232 0.25328322907301537 -0.41538022764849747
Ni 2.040432450757338 6.171753929999919 11.874634997930833 0.3997823732102405 -0.1696143899984498 0.7163275955666955
Ni 0.6178165336622679 5.220444274368726 2.178343733386575 -0.37482210372047703 1.275589841444545 -0.6337977551925794
Ni 0.3062175856683489 5.546132724098299 10.59404320284933 -1.4269162317670845 -0.8698052279042826 0.2790004313334615
Ni 2.150416966942629 2.7523829258054806 6.732183329647935 0.5542205696888842 0.29579770539645833 -1.5552397334365473
Ni 1.9021606984853627 1.4679644657125082 8.475116423628101 0.0729941329695388 -1.257832517461124 1.6294520550839033
Ni 8.500011759615935 1.5948075875811087 8.735605729299639 1.0019432182238293 1.5271198352718798 0.5881017958173614
Ni 8.49005986235457 1.7560191509596987 3.1502524405104637 -1.2454629401521777 -0.7560763362195431 -1.1796308721487168
Ni 0.5512085311532224 8.600365407483775 8.792592952972328 -1.2266283239441778 -0.06840857048138542 0.2196822531891184
Ni 4.314445561107256 7.072698730458612 8.786605304555536 0.31828868741012284 -2.038076966286438 -0.49747580869867225
Ni 1.7483511453278995 6.136376540380481 4.122537210111511 -1.2571552888884412 0.6238884664986675 -0.5594985302583719
Ni 5.270607339919335 8.144394240057942 3.4223941796205626 -1.4348822806916968 0.3130112410612674 -0.4503552010617856
Ni 6.884282257147107 1.5341422894367074 6.799722316094334 -0.5388659416096848 -0.5889867695254759 0.12559787520818366
Ni 7.1395094398151 6.14594320290915 2.8209758044134747 0.4350116287261798 1.1476589472278105 -0.69319512331429
Ni 2.44103988374114 0.7519947082865497 5.126905612367425 2.241999128427823 -0.5324741791507281 0.4549741878910358
Ni 4.8219097711370615 2.9886051949937036 11.181070309113483 0.8814150442290691 0.6086629077981646 1.8498202785964533
Ni 2.6783261345720524 8.364161482806633 3.1804034789229636 1.2057159992715427 -0.7989276270571144 0.9874193135760414
Ni 4.264915381188937 1.21304913973289 7.360531447121724 -1.1156137458668078 1.8149476350889842 -0.28833996356683245
P 7.737237816618273 7.656026666063311 1.076415552300435 0.3272518101406815 -0.2898833967945524 0.004719774073172517
Ni 2.2272254348381866 8.724897120956188 0.2897267874322106 0.19019915612833696 0.6217161414376969 0.3145312772502196
P 8.07410724585163 2.3151965377264463 0.7566266973344666 0.11401351280469396 0.24257664128878872 1.8743910259572814
Ni 4.962428726016443 1.207756748286062 12.92948015687684 0.86933188781229 -0.6911017311203711 -0.3859398109001934
P 6.762245397181692 5.449888246712572 4.920812368178406 0.8187927414121576 -0.5579237295720842 0.3473046150264986
P 0.0314975255258351 3.220672432422112 10.394514541950596 -0.006524945602711343 -0.09403475568992192 -1.8357159779845866
P 5.6114758725683185 0.5611173188135484 10.839886250873906 0.31943899896448213 0.31333417161832483 0.3577908592698032
Ni 3.32782272164541 4.311895674067016 2.035157486596037 -0.5317776673043358 -0.048180416359968635 -0.18501735481708137
