# total energy = -340859.1320339225 ev
CRYSTAL
PRIMVEC
9.34431053710068 0.00000000000000 0.00000000000000
0.00000000000000 9.34431053710068 0.00000000000000
0.00000000000000 0.00000000000000 13.67634300843433
PRIMCOORD
 96 1
Ni 6.108796353085232 5.477653580174639 8.60516911853818 2.599390695376678 -0.3693232853894349 -0.7258687022879111
Ni 3.443341090067986 7.9663144860643005 6.1867260348808255 -1.5759731093291567 3.089984689353853 3.2134621757849233
Ni -0.039168546869539904 4.395049783465837 0.7272163026572772 -1.7188950776380851 0.4165652490955342 1.433105391296932
Ni 7.30732566747505 6.233757819145866 2.140430219349977 0.307084076943555 -0.7927646927795121 -0.3662135361158596
Ni 3.2547822458567004 6.90300669080732 8.75064414972578 0.05813315669730633 0.5673990160523712 -0.09244427127435047
Ni 2.494753396420697 1.1146360935498887 5.530686280726536 0.8398223083889472 -0.19227943569613337 -0.5619649895209935
Ni 7.752376494180789 5.570479961977251 5.006116304986969 0.8706842880751263 0.15823005942090812 -0.7896595714916271
Ni 6.461002109367098 1.427343448796961 10.923240289558859 0.8687410483058264 0.3059818450183117 -0.6392952879720409
Ni 0.10407225964632505 2.935823546797876 2.6181029688975825 -0.3762547224019455 -2.140342851636901 -0.4387993779033863
Ni 7.704860674625093 2.635562813310526 5.021816615708203 -2.9907344509012623 1.1609842035818068 -0.7802832724830497
Ni 4.857294141731552 9.117729786255529 11.49526721569715 -0.4862269752577303 1.0044058208317088 -2.508448719679467
Ni 0.4654429157945091 0.5431894491017463 6.8788862217770115 0.38659904175074716 0.7108673437830725 1.0973303741765874
Ni 2.6948618085711837 6.71545703214412 1.931112989073209 -1.6262116937697348 -0.08366318264761076 1.1709989075053318
Ni 8.800069946374334 0.24519844866652551 9.393377605542348 -0.6248513446325691 1.5194723460289508 -0.4514453488021709
Ni 3.7649722619671118 8.621453448673817 13.322016402632364 -0.5937098860327582 -0.6668917095330709 2.194549933806924
Ni 8.784605112280985 5.89484901689109 10.093852360037484 -1.676668821979022 -3.177734383366011 0.15550803250405476
Ni 7.908361071534423 0.627017259767262 12.630595350707045 -0.5078322122323318 -0.23858526074120845 -0.8723742741830396
Ni 0.5028771586110427 2.1792801252270197 4.974934340413251 1.5637801668073907 -0.1426671719856446 -0.07110668613883883
Ni 6.214760835634218 5.645262479952518 11.19697252516644 0.2805916870799813 -0.6122213145733842 -0.4410640055678468
Ni 7.897297407748003 3.1988098251804726 12.644339897213332 1.0057826465745776 -0.7625570588478803 -0.17588839593261968
Ni 7.668604749379056 8.166376176661634 0.6501135923524761 -0.21521933232175838 -0.9577626670518732 -0.5245433543394257
Ni 2.2741622553683247 3.4354451475852796 6.61017281540903 0.28527983658427 0.28148874497295395 -0.2629464631943923
Ni 6.861340409706268 7.976294209817591 11.003958313646569 3.660250485431057 1.1227794103773114 1.6366673418854198
Ni 1.9501950058115936 8.658232655315159 11.647730856805241 -1.8232749240077568 3.93268329084933 1.1910257442492198
P 3.449882107509282 7.559463201215727 10.898937606471256 2.705308318547115 -0.9758367509447645 -1.1386816834298648
P 9.15384554684211 7.810404663195709 10.591411671468753 0.4999543521461519 1.7917647692146172 0.28020525027484
P 2.634974121740809 4.680041913383077 10.733166732594382 0.16408420420883998 -0.40947774612113347 0.9032051435209671
P 0.7155517996973213 6.938786056211206 6.398627901477969 -0.584488110324174 -0.3693078587704672 -2.5057714299576204
P 9.188503594970346 8.694507269182456 3.2538478147936587 -3.6030856061842913 0.918884759039753 -3.9239790782071124
P 3.1153277540082827 2.9915249824658217 8.52968858055882 1.0715650922870255 -0.8541958035017998 -0.2261074399891719
P 2.681135016255094 5.858518337160009 6.981335374666832 -0.4839782884328696 -1.079360162851412 0.045977238061062756
P 6.727567258721147 6.383079903020009 6.640781039310039 -2.0704468979767117 0.8828749166040472 0.9546439189172332
Ni 8.171627679235932 2.9538113447614385 8.391434832626413 1.0865345691126642 1.6379402950605726 1.7746358228438146
Ni 3.386611780230694 1.0044479825959525 9.723524247718979 -0.9295049577577605 0.21471256788866896 -0.5765269464955685
Ni 5.645981991871061 0.9723783085123441 13.30184390484341 -0.17509418216609843 1.0229403893007867 1.058353735803074
Ni 8.695656619389998 0.8607894853949075 1.1651439613694456 -0.14710386760075955 0.3124196302238555 2.1020938354580316
Ni 7.488595949394606 1.2208061509327435 7.247285668381399 -1.008555067113392 -1.3630464296963172 -0.1564068901692403
Ni 1.5406338708801972 4.818702138827909 2.937555047557693 2.047652011569383 -0.827153197561711 -0.42453875421931403
Ni 8.525468689878123 5.441313556132927 7.320303980509642 0.8920082463638831 0.20812668714103513 1.031400604252998
Ni 5.688302374716242 8.360765870706304 7.401746188671211 0.5838188521712913 0.37332829278377 -0.7339417091040328
Ni 6.635479077458338 4.175383729165876 3.501486062965787 0.27433516464730817 -0.3886294419172146 -1.0754124910575737
Ni 5.231599192654366 3.7976866934842186 1.598135020775562 0.031248930711952633 -1.5705624798365467 0.1854816960480096
Ni 2.8245047742576586 2.4097949241689 1.88107140235411 -0.251744938051618 -1.11527024648446 0.5485127206708295
Ni 0.8103358145770069 8.721867410708333 4.921350325534158 1.3457143661757727 0.7552795513498606 4.132824645792044
Ni 1.5645085845409255 6.567218888303105 11.06563823925586 0.1792128323201623 -1.5587809138205866 -0.8613887217058134
Ni 6.397675716224729 3.4680474473748224 7.06201228378777 -0.32872428092114997 0.28288871064427407 -0.8830816332982147
Ni 7.633825225212625 5.609352294199807 13.188699254006009 0.014364753362104292 0.7370172627055629 0.3883867297787892
Ni 9.108488263042043 7.2745551700941595 12.677942972671394 0.6247927234804916 1.067679126969058 -0.31063528462992307
Ni 0.8509153523517407 2.452208750120385 13.8247319046695 0.7112057009590977 0.22457172007093582 0.3730040766751318
Ni 2.9648376313053366 8.680696378070692 3.9481684063075977 1.504552748604641 -0.01991705063890118 -2.176576380047639
Ni 4.404281962368694 1.9946832687230327 6.736638715481161 0.4904584968405747 -0.08371769003463002 0.07373075402524722
Ni 0.5568872740548818 6.804162572958716 3.8178610601353 -1.3276030012870426 -1.731221974634554 -1.0781496874830787
Ni 2.6180609194997455 6.442350865348776 4.807111455921934 0.5914755973856006 -1.2023856493467293 -1.206788149289799
Ni 8.23202930315098 8.10958145664993 6.619897439482108 -0.344182010237117 -0.8703461880094172 -0.2678927514560741
Ni 0.9380566555668041 7.516189698686242 8.35214294085655 -0.11923233800147207 0.5465345138985361 1.2155394131198678
Ni 1.1855126896816395 4.630563788594993 12.390767077359822 0.8894690248817971 -0.1280116268559989 0.7628661054478668
P 8.803929146664698 4.828822027240657 2.9381157061955188 -2.1116102595888986 2.0446006263375693 0.530100536712229
P 6.254418089949728 0.6140978158896405 8.903504924035664 -0.11394897811534568 -0.2719278407573962 0.33346410959898054
P 0.9894597083447554 1.1859518722812694 10.400489651099035 1.5629746401869598 1.1458319213214008 0.8206881586626575
P 7.1052736387134345 3.819159919312929 10.123146773863857 0.07224311373612718 0.41583891245247095 1.1524890216266022
P 3.06699897942774 0.14596373863356993 1.6446622122665593 0.5528612274475123 0.2407100203936951 0.7991050331752431
P 3.6525415164618744 3.012390828103554 13.386746311231423 2.096079768053467 -2.466991223865629 -1.8248988327644249
P 8.924508131039664 3.5159931052195175 6.381969798917115 0.8577804355292646 0.4685994919839543 1.5898863769761393
P 5.188437821852448 9.311203737858419 5.4202767096106585 0.3535418541854621 0.439180672502205 -0.8054697990510065
Ni 6.636226622308771 7.985049828878296 3.4694556349868266 0.30878666145695854 0.7413516284148587 1.286179186924617
Ni 6.753357556061112 1.5504080197996188 3.108413898572833 1.1297185606993059 -0.027778712775165058 -1.4705792198726737
Ni 5.9568672065452 4.102124333823368 13.232176462507235 -1.095699523441384 -0.26742866733546206 -1.2587509155103354
Ni 1.0186700233754546 4.879299993266196 5.2434412375163 -1.5802498823276399 -0.5374868018739711 0.8008616108550336
Ni 7.687769930482051 0.4341142455438933 5.100975074351697 0.06375693064198698 -1.4223730924810922 -1.6459539093936688
Ni 4.514750402641543 2.709784672647968 11.384160559008244 0.17055335687295142 0.7292247632443377 0.8726175005420971
Ni 4.160488898020984 4.721437209475847 9.205040221493004 -2.1071902761443324 1.4299745589774342 0.8514436946779594
Ni 5.258109001912874 2.8372971355107066 9.197395640966256 1.6691542587695318 -2.309365887908255 -0.8686585158943492
Ni 0.18251120637127646 3.326798847885363 10.901098945520072 -0.6189185240879018 -1.1505064439789348 -1.6629743552110652
Ni 2.98041459712625 4.359083531849342 0.8481812070612791 -2.2336744106122115 5.019564701778451 1.4303352847509623
Ni 4.528813590140327 6.2796570729624985 0.8710887845717588 2.9457296040557974 0.4675042020372465 0.6591344341851552
Ni 7.86091066215314 7.6179679300727985 8.87535892598577 -2.3316051589224296 -1.031016995661334 -1.68684601962234
Ni 1.2795538318662065 0.945896532185728 3.0520265905046147 0.6962189977422784 -0.6564157497024115 -0.5957875944973933
Ni 5.445509151605987 7.440491438269194 9.54354348066642 -2.4477822550373456 0.023537935220940106 -0.2979101237537708
Ni 4.175308974680833 4.632012156742708 3.364161139510043 -1.1186887852477057 0.6848637206304593 1.4271962249013486
Ni 5.6285641968559545 8.604792542819775 1.5151061486689474 -2.077161076772094 0.19253114669562324 -0.33280410741747846
Ni 1.458805742689592 8.227721575950357 0.7602418997183776 -1.336477678068853 1.156897435106943 -0.5805196125947293
Ni 1.2162274387238365 4.79900433201898 9.059332516970708 0.9284898862296849 0.28893363128677335 -0.8166289009916194
Ni 4.225104806030352 5.410832414856491 12.549549341316206 -1.7162226730122443 -0.1453208075584078 -2.2345190180006935
Ni 4.94158916792859 6.885906602353648 5.165636769483155 3.9261699152108447 -0.44087220127201493 0.0713707384335029
Ni 4.615547481411904 5.073465423855735 6.565985439299889 0.31047947577834917 -0.6376161004974051 0.4441716979588931
Ni 2.3648861672790917 2.01676387474272 12.06157729259175 -1.2274791019802473 -1.2009543162168412 -1.090297378589206
Ni 4.550912884781276 1.6424307908880147 3.4607710326869126 -1.1919829659561665 -0.06422924229271519 1.2908161714759963
Ni 1.0668679776071712 2.436211290321103 8.626627393469882 -0.050692127038228826 -1.2472591128206518 -0.1895170424596478
P 0.590568841722238 0.5081053004087638 13.056517439121247 1.1988951196949673 -0.8625696293877919 0.2566876267688741
P 2.5512304098709673 9.566705223426046 7.540424168306242 0.010636396667923617 -0.09859872091152051 1.0369588150670657
P 4.409897893057577 6.9186584111132765 3.2232134268228827 0.6887815676276267 0.27994402619365333 -2.1931096018159715
P 2.683844866337916 3.0636630605326793 4.304519298785119 -0.9971995328912568 -0.16339643411319602 -0.2493538121116222
P 5.363886598249251 3.5371019029336406 5.109960563453911 -0.02137435191071803 -0.7262176009868976 -0.0829450735346636
P 1.0522628200918218 6.069699757407547 0.32180684493897727 1.407378418844473 1.1596271753332803 0.379600756056043
P 6.866507813484891 2.4541617110421434 0.810492798995598 0.5498334963647822 -0.975953479028287 0.44548090368861987
P 5.892195232672051 7.741686602819586 12.829298378538716 0.03359351968472924 -0.7882279812514231 2.7336519026868147
