# total energy = -340859.11225736904 ev
CRYSTAL
PRIMVEC
9.37263241746964 0.00000000000000 0.00000000000000
0.00000000000000 9.37263241746964 0.00000000000000
0.00000000000000 0.00000000000000 13.71779494317251
PRIMCOORD
 96 1
Ni 8.49596304228995 6.056154410445829 9.536761980552273 1.451780599108932 0.1098804644729269 1.3114173926661157
Ni 9.243580421925458 9.349163123597775 1.0286819993611258 0.2734015970894452 0.36360283796589 -1.9190243483959404
Ni 5.107634659718791 8.982224573178673 4.6535287553633475 0.9776169827736388 0.0964780750240919 0.5879596138125424
Ni 7.807468226538063 8.887795303817946 3.974525604234944 -1.1233977606876007 0.06443210233214064 -0.6799387725250161
Ni 4.27167084901686 5.218737841753734 1.0805154671869945 -0.18097918019196574 1.0070103483340915 0.6793517896732946
Ni 6.952131185089867 7.028190095349152 2.9923178016108074 -0.3687553287011069 -1.1992291059956184 -0.31777960898418817
Ni 5.974593765088306 3.153562691360492 11.164158351873088 -0.6606236171361719 0.13368939396706653 -0.44440515412593784
Ni 2.7719559715568205 5.4476362652105745 2.984772832694144 -0.6176350293897879 0.07034409694120143 0.34765119973263997
Ni 4.401631767027365 5.374839030955015 6.289334252289169 -0.44154840140343316 1.4243394721788436 -0.6234662913595843
Ni 4.818760762848621 1.7810719233101302 3.5069952787871568 -0.05610198519989047 -0.3552709210614268 -1.4992603898574501
Ni 2.0214611938375664 -0.18191716731812324 12.222857143100681 -0.005093098252191229 0.7060472966866098 -1.6808476359470603
Ni 8.865544674987934 1.5546010115916942 10.089040583566971 -0.5078458390790865 -1.126097676117267 -0.04118598732000649
Ni 6.174352675052095 6.725041679646587 5.195079443568092 0.19172150631013432 -0.1793717264955298 0.12899173138108108
Ni 7.263415045537357 8.823517792227289 6.400421500849382 -1.1102974758602169 0.10489792365667096 0.6739113353840135
Ni 9.07385142551321 2.8449031679274936 12.21046933512906 -0.0023044797634605473 0.0949348989066881 0.7617083376943398
Ni 4.515752936628974 2.221829324894005 5.6073131135941 0.9537764287106154 -0.859222824402746 1.772143909659896
Ni 6.354494665832559 7.47059708019928 10.917347891029122 6.56209830050224 -2.2492784356980553 -1.1221232648505512
Ni 8.004162285774212 2.0788029576042093 1.937912613191566 -0.6731366620015181 -0.5008187570289762 0.5055274753585552
Ni 4.178853672393607 1.3489373433452991 12.516828814621501 -0.6568302115320107 -0.01024764586993719 -0.9447775676461149
Ni 1.5225278642217281 5.662785037237918 10.132662688327137 0.47057049966739606 2.1726497912997225 0.20611248492448372
Ni 4.928645502698264 7.200674645626617 7.273216007023264 0.4262163990320531 2.7870771123854903 1.4256003411691383
Ni 0.5158068793558004 0.17337682486239178 3.1624732527879105 1.4203876866199474 -0.16112872112494186 1.0785759763872198
Ni 0.34238787764853285 2.430286037534395 3.6918976294592647 -0.08070821378434488 0.3995095791648281 -0.009763507144667057
Ni 7.557621970126262 4.604558626672933 3.412781579966906 0.020868101698260835 0.026009022469251977 -0.009162383225558415
P 2.138937765764847 4.23182778955756 8.67738346010176 -0.07860556561904528 -1.2936821801698817 -0.979796506923461
P 4.156940458322601 6.201617662106224 4.426801033522779 -0.22305374076451262 1.4450113987058986 -1.36773895007598
P 6.7761412703716175 2.6204005089699267 4.03882092382677 0.38825174686282166 0.7748448750762978 0.8785307807027386
P 1.9370231503962971 4.6042587024427055 0.7959389221780546 0.19109132892530317 1.0985249087053208 2.2877606509336537
P 4.475188184490689 1.3278770388040035 10.151552291252163 0.3887844794378401 1.4475717032339068 0.820625166635206
P 1.077609013943445 8.85683749967914 5.371764807595182 0.029087147173943454 -0.6495994981115265 0.12717216167383905
P 1.6691814401708391 3.752567614918214 4.829528042713791 -0.5762135290202076 2.1999417942464565 0.023469286766533773
P 2.6990275204505356 0.9506379656030215 3.3573480841150865 -0.05054737393024843 -0.2276660427255434 -0.4353309597388116
Ni 9.000145045934772 3.7805168041225508 6.081194334616957 -0.09951866162262861 -0.2859424098689334 -1.0403225893329762
Ni 2.759780922336018 3.175991400202201 2.8078681490736996 0.17243334750448366 -1.5746451345463526 0.14106511760584736
Ni 3.000076466541508 9.397094764641025 6.6305646098616675 1.1864355537753761 -1.2392344427439625 0.18071384234572102
Ni 6.310312077667152 4.238023099438199 5.993235930523392 0.4221185748135956 -1.618615883700348 -2.7449750410091176
Ni 7.990675068046166 7.4183540283465055 0.9560412880632159 -1.257092553971306 -0.16020518086940796 -0.5925791148624246
Ni 3.1811650931736275 3.7185730779483523 6.657629959850052 -2.4349210828039616 -1.3804011189246805 0.8107418460832231
Ni 2.091174832101099 6.76830574985692 12.341612142059306 0.34169395370794053 -0.2798075006157891 -0.518131537275811
Ni 7.383534699743518 5.385598812714431 7.442767860687034 0.4494941386130711 2.5946827483780472 0.8796939477729043
Ni 4.596057649272419 8.31090979223951 11.311775434411805 -6.5951341479112875 1.122852686817408 2.173871836632282
Ni 2.186681954164206 1.8350301668545175 5.479929669437114 -1.0534856090774953 -0.9770017177871434 -0.8516396127388495
Ni 5.726368974046173 3.5177644331787676 1.5605770018789795 1.9012297434166805 -0.39067604003359807 2.7033455383937897
Ni 0.014863120134217433 7.090799278409167 2.839405181882134 0.39249998061621433 -0.32767089995597115 0.3735591778476534
Ni 8.529123414994492 4.219437169796281 0.5505427915322558 -0.8818318200515136 -0.857469074936433 0.31406487913676234
Ni 0.3232480254439134 6.103111297740841 0.22824796278253462 1.5723391121209955 0.9401542099414905 0.5047846836552597
Ni 0.4376213188515575 8.48435972363302 9.978639411683403 0.5629314671993207 0.17328001177549512 -0.7436052003357257
Ni 4.619414248701395 1.4370119680780784 1.127921303564128 1.3887299505053503 -0.9623716265787943 -0.017362145427531388
Ni 3.96875674911916 5.074352442795719 12.500765997566374 -0.3338914269443862 -0.7118819010905159 -0.6011385743966615
Ni 6.736991785694719 1.7751296744987455 9.061727925769478 -1.1958455342353662 -0.14122144067805356 -0.2473550365140385
Ni 2.4154491607703226 0.7742637729647924 1.0333036442962893 -0.1801911370730316 -0.7041850466668905 0.3684591376169267
Ni 7.308834821152452 4.956435357155292 12.02809197157018 0.044063308867801534 0.4802661296886051 0.15789118802425064
Ni 8.9306750961083 7.761692290899573 11.960504046288388 -0.7350364848301082 0.5405255887002949 1.2029924296927925
Ni 1.536746147260956 2.1419088901705394 7.970477982929993 -0.8676539858892347 1.221058028945252 0.09106693131084961
Ni 3.224110493889345 4.022640011605991 10.501603232983012 0.5863542169986353 -1.4903512602932785 -0.2966525971975859
Ni 6.043323276971404 0.6668215410650647 11.337825728333511 3.0696971427494097 1.1370382342891707 -0.762126656178681
P 5.227332545476194 3.4864410963843704 13.344643121630215 -1.2472552561659098 -0.21442100479017911 -2.812314803906357
P 6.270618980322967 0.4922225249644954 2.39076445935937 0.3982507670570625 -0.7278793049600367 0.3172371062171569
P 6.844992626473245 5.445414951380452 1.1838665451337735 0.009708485537015537 0.5613366119083752 1.0069578978296012
P 5.311367565733095 0.423849173104793 7.031549246727702 -0.5918597201978968 -0.3632783647469356 -0.49017438994125256
P 8.294976317508667 6.21902264009162 5.112896455432846 0.7955936775878749 -0.49698755620834417 -0.28372534761295654
P 6.74969170231842 4.94123294773563 9.757371248096197 -1.6639796565471279 -1.4915005434063733 0.3133462558031829
P 8.27118857699874 0.9166846682148161 12.671525046256809 -0.07795636207082059 -2.2248812378006133 -0.26954751345067773
P 1.7967429643395232 8.160151003389158 0.2450437196752813 -2.2150722221299914 -0.008535805385153042 1.3102485691689951
Ni 1.5450034362244103 6.440272995677657 4.768428790700328 -1.247992905662883 0.22311647568164802 0.45595917751212445
Ni 3.784190875942839 1.9729203317016653 8.246123346720687 1.9473566196817298 0.4953045120789664 -0.5102912152957857
Ni 0.8251196752527631 9.25758313442421 7.6672049112192395 -0.14076121321218338 0.4277852861810697 0.03510815655704276
Ni 0.561536889096537 4.458392427597942 2.592265741648137 0.024523953283293248 1.3378624742315217 -0.03304998847643341
Ni 0.5999768655163038 3.5547300945543214 10.22228098558237 0.6491886358263529 0.02213925510120058 -0.8758295797214916
Ni 8.348278476799432 3.5304081140093 8.411106979452802 -0.00966271990074465 0.23239095900503848 1.1995288966242244
Ni 1.3853406467891762 5.335183424139607 6.906114372803975 -0.13130495289528998 0.6807615255366275 0.744595589273453
Ni 5.185324407979938 8.018530530928555 1.7685941380694417 1.1069920656360677 0.4027969916668482 0.7825067624969299
Ni 4.560919651174815 6.016620647848952 10.247837341787422 0.09830510093050167 -0.1290128144270036 -0.40837242887209674
Ni 8.756100448851438 1.0866348587468573 5.36085881277353 0.8671665047298549 0.09734273701723235 0.8098941533709471
Ni 2.0095860688469918 1.3452632715250108 10.302873438034192 -0.10956627566661775 0.6211307012478723 -2.0784566556550654
Ni 9.006996440069035 7.386918219965773 6.964524616640804 0.05944956151588471 -1.2962522548899031 -0.4287581916173003
Ni 3.2702144716546466 9.203690499305186 9.205476923001479 -2.2465121858068273 -0.9251063144694325 -2.1556838528693456
Ni 5.341313125594883 8.687623998037594 9.238729147501527 3.3168107526766044 0.133570351890699 -2.498549201177568
Ni 2.9084308689425815 7.240817629316146 1.6754095542641596 -0.007036595131807237 0.05248315750038058 0.33680114439201353
Ni 3.985805567081161 8.50268321957349 -0.03936318069093604 0.32621437001510273 -0.19541026801563122 -0.9450513901327917
Ni 3.0573338766183995 8.08067108237884 3.922329415543144 -0.5301871828887643 0.642232516223494 0.24710821061055507
Ni 6.565603833384023 8.798727180072538 13.139314993616386 0.1415186602034982 -0.7979223257210516 0.8485422047604483
Ni 4.838724469423146 4.211939064040591 3.7191822990410026 0.6150811526196825 0.40866759151501236 0.4992221019658176
Ni 7.032182836664058 2.5143960388488527 -0.4021271607305577 0.3012543576356554 -0.5260163393405263 0.6357618208974858
Ni 1.0206234102001974 2.5840909318479954 1.1250514035861374 -1.4045116388196393 -0.1756179158800524 -0.4949211605976186
Ni 1.6831466621408124 4.322957892385783 12.43500292377287 -1.13467333360142 -0.4217398513179381 -0.728451632523739
Ni 3.241262410805487 3.0724706776126998 0.1062200406615501 -1.1452436529180985 -0.44178982799027783 0.034557169149579195
Ni 6.809470350455662 2.0104389783767016 6.567709863838153 0.40878663359137984 -0.3738288865692723 -0.4020274604906753
P -0.019212958735737366 5.6518565480989995 11.814861777353075 0.3361977064800597 -0.4683740062367095 -0.7715986002248583
P 5.3805938271225076 6.53190922064439 12.534141003548172 0.5415889969678027 1.529291903222534 0.9792496332810554
P 2.45329584957217 7.709533592736551 10.385934641806072 -0.35246096241645747 -0.8946096885424721 0.7580751118171266
P 5.178023127500334 4.09133203296031 7.807126125462959 0.41288317225825666 -1.1798779551625165 1.0057669628452937
P 1.7874640584668562 1.9841112545420334 12.152608327538836 0.013638673829357155 2.1225662443797706 3.093283928930415
P 7.258100763083012 7.507234699448022 8.686477725120193 -0.22122825751999964 0.8703929820869526 -1.7139863274825575
P 8.82955376736062 1.6749174910739424 7.563937249698991 -0.7328713588579895 -0.7430925223653654 -0.1448883480066795
P 2.7467435909533107 7.0640779040223265 7.571893677168999 0.05223247494215521 0.4116014773323556 -0.3963432656217045
