# total energy = -340855.93880510115 ev
CRYSTAL
PRIMVEC
9.41910739213501 0.00000000000000 0.00000000000000

0.00000000000000 9.41910739213501 0.00000000000000

0.00000000000000 0.00000000000000 13.78581576635017

PRIMCOORD
 96 1
Ni 6.183031623631075 8.779116526284916 4.946860461656713 0.6071580411178641 0.214144868310657 0.21156450917799047
Ni 4.747173505557017 7.4951132542141625 0.9223359297460944 0.3615027609037516 0.36817374516602397 1.3081796024551084
Ni 3.5400584054205764 3.5452954290142893 12.965559278313089 -0.053250117573392174 -0.8363415489291983 -0.33064926585800475
Ni 3.278339093235496 0.16293642560403113 0.062339418979548485 1.2211307911647162 0.710648542904047 -0.20143487694315632
Ni 0.9577724947897389 3.760352484215101 10.369745645946116 -1.434541609522826 0.32194582454673587 0.20279550473610883
Ni 7.668405988165833 8.502797597966284 7.77605508033818 -0.04443611882618799 -0.2140119422772185 -0.9110279819994956
Ni 1.8158249018337267 6.5309357665400265 3.7121200620634367 0.5464375833093558 -1.2980165458791775 -0.12328799612808443
Ni 6.302098557530579 8.642360509095857 10.138295576604122 -0.574422755668372 0.8089770408733165 -0.3119586314270369
Ni 9.054154456026668 1.6347708235633167 13.702480083163074 0.18720099273196147 0.8386357442800138 -1.3671236850894843
Ni 1.6914738488045957 5.626814506264295 12.78955572531417 -1.3126227258281264 -1.2488565392147588 -0.46067226671707756
Ni 8.640561459623916 3.6347015943947247 8.318099267126795 -1.7482241656195054 0.41382162491212604 1.1631030496970227
Ni 4.838350463087844 4.759832785610883 9.327110763080992 0.7969743599854855 -1.091115246504811 -1.5188761072058488
Ni 8.56523685948197 7.292188009064973 3.8203663256311824 -0.1969130778134028 0.43815454523053576 3.9332982987255103
Ni 6.751860925515808 1.5872608469325837 3.8354208846416697 0.5458009781666213 -1.0736661977904285 -1.9842606917969312
Ni 8.19808948059828 5.606648197785629 7.180190115106265 0.07384722499845346 0.7641033202890776 -0.18570486780240922
Ni 8.002511139051782 2.8159174451964004 11.131742939849236 -0.5345112641854151 0.06869499137355266 0.8393664517984513
Ni 3.3972835787416216 8.952503451308415 5.329954389001115 -2.2957367271605946 0.21387618803030262 0.6942346203223979
Ni 4.318867863734518 7.316997937384829 3.8462980696165254 0.4497759315195479 -1.2575381261491567 -0.06575879156336417
Ni 1.7760951077360996 0.01611515047928646 1.8975761588065896 -0.3406608844577359 -0.46129293102021196 -0.6917118539005442
Ni 3.6540390214412937 2.1929282770097815 1.0617170521070372 -1.4465882562747152 0.253348277982996 0.9027176623615873
Ni 6.0966584107635455 4.158375696444459 12.012835424973405 -0.9090227786440087 1.7754644893926972 -0.5845673003015417
Ni 3.784126310744833 0.14126494379753027 2.9259561648610584 1.8349338484029238 -1.002056346762926 -1.0802065700121073
Ni 5.694547306016793 4.053475099748092 1.201370386665567 -1.2060700401768518 -0.7782096777834726 0.27782595140938604
Ni 9.068706976624306 0.09650252073206002 2.78731255859254 0.21712477687458737 -1.9022751539620593 -0.4659849371792426
P 8.421124519583039 9.137918576204523 9.703628269790268 0.8464624394132841 -0.49143680159344405 0.9304670645607136
P 2.8084575123075144 4.030030941969763 8.930754732823013 1.6425757369500549 -1.3901502278916444 -0.5144222067450237
P 5.16763303109613 2.134680518190501 2.4776970863822263 0.37188513257934014 0.4176348280106291 0.45176185160132526
P 1.4600840617485722 8.475227871241827 4.220293139422211 -0.5077921030230158 1.2579477028827497 -0.40425120761487154
P 2.3086231705377935 6.569507010454153 1.4885231720660128 -1.1004632633786144 0.1613197540898254 1.352241111550697
P 4.108463847482077 0.09935368447633497 9.91420748143631 1.0505915753591517 -0.32612643828698673 0.7218151010438278
P 5.3749287419782 6.368192432633246 12.889047870666094 0.09545786128969366 -0.3283090477606023 0.1684386245227938
P 6.479290801855985 6.759283181975961 8.076819417528688 -1.3439428760976468 -0.49647950622367404 0.15466882443221106
Ni 4.393335325122815 2.933637446768744 10.886893248628795 0.9468969279819628 -1.5526660591721002 -0.5064008791024439
Ni 9.42287482580991 6.224956069702326 2.1519108909602473 0.575592350496441 -0.3905225451748694 -2.4727029295384253
Ni 8.09272734764995 3.552557560652333 2.4802609673574216 -0.7127933571611919 -0.7459220213943605 -0.3893853462466326
Ni 8.195819475767191 1.3747469506711651 8.266760423426199 -2.049707094326199 1.2446982940720113 1.6958181412139632
Ni 0.42048307330707024 7.79694854389137 11.125814553788295 -0.517643799006115 0.3844462570738024 0.1587458227150621
Ni 7.37553768852678 0.7991010409181416 1.0978779464930497 -0.5526881922047577 -0.6617343337018474 1.1143760168049646
Ni 2.9251414120897348 4.7349663426479305 10.916476780468962 1.2791215087468875 0.2940619536522742 0.9121021889002808
Ni 2.4658657458497397 1.5311794827653786 10.52293329561581 0.6255218883370323 -0.2874737589117953 0.8055237922173933
Ni 5.5528085811279615 3.4401405164239836 4.4736350976787875 0.42981954300227915 1.301246879891017 -0.16012033446508553
Ni 3.702867673077638 4.762978767409985 4.672688147865071 0.5294461909576818 1.593882642619726 -0.8267042829497504
Ni 7.2586183110649865 1.6008997141334762 6.007844707224917 -1.1136931318053274 -0.4409477917049568 1.0423247073646695
Ni 2.1682125397617558 3.217632947441469 4.993401212158321 -1.0471326702762742 0.6172102831475436 1.0658212478247127
Ni 5.749620825715424 5.276028116557366 6.58287837501105 -0.6632057760410514 1.360688985207734 -0.05025709638333925
Ni 1.8595013018410043 3.8429957306381874 1.1082756989122935 0.09814286432102452 -0.12019521613537366 0.9443551353967156
Ni 8.12275546134915 9.33191450774429 11.991467238418194 -1.2899913615818557 0.15699747256538768 0.24780189424347002
Ni 9.14951349714672 1.6950719477484777 4.193947896631537 0.6261415241989023 2.9814712804317813 1.451626332919255
Ni 3.8227917457307887 7.8470676132117765 12.312235875443822 0.044146869720543325 0.5171136375342578 -0.4273955069418187
Ni 7.632547447120392 8.007804677288592 2.024226415899075 -1.7272617044352252 -0.4306559228606454 -2.6934545045323226
Ni 7.150835467570642 5.745090235160432 1.4069668906118369 0.7503548603547335 0.6548489194359238 -0.5068559643619917
Ni 7.823501007040068 3.9338524385247955 5.1881120539332715 0.7555767708753052 0.5676239875789837 -0.3538953808701389
Ni 5.8641571690599354 0.9049934696008712 8.318016378983584 -0.27557340792978346 0.8159429306681883 1.5025537158967412
Ni 4.85623734762824 7.566679630590116 6.3752916137170255 0.06754673670172238 -1.2734758804253357 1.723342314776161
Ni 3.453299009158546 5.317660570305946 6.963656143899168 -0.9434436793260397 0.837180757001042 0.7054106915438754
Ni 3.605069083197206 5.433214177226214 0.3387534802807282 1.496974679147067 0.020570625062500056 0.449993961067625
P 5.8120318299095635 8.572357704512271 2.8823796073899204 -0.40161454132297286 0.17040937509591944 -1.7071258529172986
P 5.74726604891969 1.1082427320371533 11.547702015976341 0.19256688502956515 -0.3221450850417355 0.2570658360438992
P 9.180455264242665 5.570196252987663 9.306666590940427 0.25205809841666266 0.013580309787595966 1.2463903370624534
P 1.7656493178702228 1.5609815378921905 6.23591708473111 2.689033749756807 -1.7070872863698794 0.6872435337165453
P 4.392073164760301 5.476419621874345 2.5449438602040853 0.5437371536590571 -0.32749323672752634 0.2563063321700554
P 9.293315006508614 6.518427192201086 -0.06276704644565381 -1.1971431700008672 -0.09050488815979252 -0.5996956713025479
P 6.497733413720174 6.204328224971695 4.901863502822387 0.44016154835823545 0.553792223902214 -0.9724297821457447
P 0.6459482419450269 5.063674345118057 5.813202624932402 -0.48760045856648937 0.15224761658522812 -2.4069001721110035
Ni 3.999418843625218 2.842309783522989 7.213593094909113 0.19499812017887708 1.788235158794804 -1.2574034003435053
Ni 0.48532703288656154 4.4868199639134625 3.476410672453318 0.5955705933905807 -1.2531888480415256 1.8588258245291729
Ni 3.01724144212449 7.814656465395291 9.021947702836053 1.6222848479115028 0.1120928987432134 1.1435570092442953
Ni 0.5059285041170808 0.1631153886405069 7.864090765623499 2.22151566376249 -0.7251220539298737 -1.2717141605392228
Ni 8.662724618825365 4.993115813210678 11.84529682359979 0.38814247497846704 1.1200082753900775 -0.26909294241176235
Ni 1.1136022040242441 3.1110840069880887 12.781573973887348 1.4227708421401433 -0.38753363774987454 -2.3399249916420346
Ni 2.3978315346673873 1.8567415034364037 3.2019077479995564 -1.5908381993664473 1.0245632696161906 -0.7834794108228442
Ni 1.0942647769776752 2.295926214055195 8.627384128674988 1.7961652122751584 -0.7391800746848366 -0.3924318463824403
Ni 9.11698932004404 4.233709715693586 0.27420716448821764 -1.3728688151033777 1.0006594664153994 1.417349414014256
Ni 0.8127973646728499 7.44132073309241 8.580318733903288 -1.559732221990262 -1.5325741735182317 0.3712963499554057
Ni 4.297618357929812 1.5407022001273274 4.666981110822929 0.006184788654473219 1.6245597599886086 0.1764823207628767
Ni 5.672421823244075 1.9380660748538796 13.83516892987054 -0.896238739505463 -0.2512561713406576 -1.0090258361022235
Ni 0.09867550875916353 7.4057070888337275 6.168448961890452 0.9744596680915798 0.8778653792045977 -0.8127185101936197
Ni 9.40036315964269 2.358450247535529 6.537771212622684 -0.752487333316704 1.4845109994624175 -0.834193392237944
Ni 3.30548496013672 1.107225468461396 8.276521444199876 -1.1062855264873463 -1.8635450843817132 -0.526969447282415
Ni 9.360105895542818 8.740498186834873 0.31986440273606687 -1.8904120839758862 -0.09711185195334888 0.44713000925626867
Ni 1.2156770685657297 4.630649730596906 7.796278845370663 -0.48114621830071325 1.3274142823150044 -0.32530368527537523
Ni 7.024082542209863 7.1368009978680655 11.773237827918168 0.839920010309076 -0.5927320955005211 1.1394612419083667
Ni 1.8711150609975653 7.827042591340853 13.540138003222285 0.16190108051459212 -1.2762562713839503 0.5494689139365118
Ni 4.864074044804444 6.607362402222376 10.689576139896326 0.002659549110034129 -0.11599634756267764 -0.3770047131940927
Ni 0.18066977869734607 1.2558778180225036 10.808533812152508 1.0612156307319014 -0.6072873676068767 -0.10119913464884507
Ni 7.055937962702554 5.6463591536688895 9.909988663329074 0.2334173433870238 -0.8202415580435422 -0.4605527104200778
Ni 6.358547266877919 3.322665411638397 7.078437384030436 0.3863923250565797 -1.3377981966524897 2.2438099563843164
Ni 5.88303305985454 9.093272008157404 13.20026270727607 0.007818210492838148 -0.5011180334369498 -0.34951473530394
P 7.246929199050963 3.236424066271428 13.4560583429538 2.1295681296189 0.21631307960656943 0.6914508869296737
P 8.262478497300835 9.412146462728543 5.252271244420562 1.4598934580240537 -2.226864072558597 -0.37684299080524775
P 2.282202574889656 6.741565841364857 10.930014863222995 1.0318420626657907 0.7013712313671792 -0.20984855492814827
P 2.405112504519798 7.68610449056257 6.994564002209257 0.12980805663478934 -0.5224011111854422 -0.6535998775201711
P 6.8444224918025265 3.073539445756903 9.375443969679514 -1.5338514975687585 0.29896556160147864 -0.7765037508359595
P 1.7111692019241165 9.536563449507955 12.276020350236148 -0.6663744035770202 1.7205238714907594 -0.8452393656394604
P 0.3469999086193893 1.9544364831378236 1.9564964418787318 0.7041629351797034 1.3147860520280323 0.21571195568746077
P 5.104751071542844 0.767859746213777 6.455276788093087 -0.6834650405107197 -0.47986066672007033 -0.5860379713097972
