# total energy = -340889.72910184285 ev
CRYSTAL
PRIMVEC
9.09127701132062 0.00000000000000 0.00000000000000

0.00000000000000 9.09127701132062 0.00000000000000

0.00000000000000 0.00000000000000 13.30600286643400

PRIMCOORD
 96 1
Ni 6.857332155874772 1.9283962505016432 11.616553008730449 0.05590555291836823 1.1622306743943984 -1.0583236538960872
Ni 4.936063466650707 0.6555874497197244 6.066140125466 -0.9052663969253699 -1.1791984125969885 -0.4005855858378262
Ni 2.6134330742602145 1.9581610918572399 4.57674619287256 0.4726453799185537 0.056097614324516286 0.2203818503593043
Ni 3.49365052693244 4.461935181257586 4.927279474678264 -0.17691812274871466 0.3105666361755168 -0.31919294439194706
Ni 3.805899531574872 2.449162787621767 2.4927600071455194 0.30231545191031806 0.8614997933623808 -0.6722668578020551
Ni 5.248421566618816 4.490172688053702 2.5894948324234943 -0.33208548408389904 -0.2182259803585661 -0.4189460906228849
Ni 5.032585556043611 4.953309619384845 11.089968054240874 0.15987865076792465 -0.09633486457800829 0.5175795214270829
Ni 5.691921339328062 7.935357616554045 12.475269590967125 -1.2836924159470213 0.532092113220961 0.10825527016467808
Ni 1.7487344316655709 6.412595969474519 0.12053124319131478 1.236682108635754 0.05068029996368691 0.3401867730347948
Ni 2.5108834681236445 1.5966555476715512 13.394222248148756 0.953653529979506 -0.2707590172602756 0.6599782702426891
Ni 8.337964824688619 8.768473162365138 6.860175907364091 -0.6651148201383061 0.04368818491656993 0.3013119503464682
Ni 9.000091630054978 2.2571186493213324 1.2524452491165552 -0.5059954161339092 0.3246606523747376 -0.2176755071717348
Ni 7.180045220505076 0.7767059894142682 4.818822356656273 -0.47468477894608574 0.7985787283581279 -0.5208003423572256
Ni 0.7839471916560924 7.747413644243645 2.237564221321408 0.5097872790761736 -1.1063606026996557 0.3636979687828575
Ni 7.577815869201295 3.7335329655423273 3.5531420262796463 0.3295992273269356 0.16418087768770434 0.613522292772995
Ni 7.653709850764068 4.16349582659046 12.34500340821455 0.569114198971265 -0.31241037425247487 0.1637715580644276
Ni 8.282017105170494 7.400572330084401 9.32991680079172 -0.29219276165401936 -0.058984706064324224 -1.3016937376204485
Ni 6.998446959638233 0.6780301764669528 0.39866795774991354 0.0748134455664647 -0.003552236127632592 -0.8412217598396352
Ni 2.136213754639573 6.877187505148024 8.894810095137908 -0.8194787117355887 -0.3163603600391584 -0.9039373937013013
Ni -0.022200898775310625 4.689489848065951 1.495754190080421 1.4241034449086376 0.3561733782710382 -0.993341078377115
Ni 6.839340518415174 1.7128784346263304 7.072140852133184 -1.523253667448254 0.9549264831546587 0.21919040115436444
Ni 3.7163777255795876 4.441352529813154 0.48134039554809727 -0.8587191452934502 0.18166437918444842 0.2506277937280394
Ni 6.094664916619733 5.7062582833774735 4.515658265259611 0.5469574603685676 0.21131536928166186 0.9465922522573504
Ni 5.292150609661094 3.133008654075029 9.479515584382012 0.20634285576773495 -0.37806992123381344 -0.6924335625579171
P 0.3195229354819593 5.571271000406216 12.121209802758905 -1.0479112003135114 -0.12894827973765535 -0.7566432644666066
P 4.000361949594485 6.170195247096916 12.551446311248945 -0.6740116084073038 1.1443833618003325 -0.5351188158624268
P 2.499710288518871 8.43927801713418 0.9601688712224768 0.44091513869480836 0.7035129603005303 1.564170203156958
P 6.549665154910784 8.04826218735281 5.679095365539278 -0.8581061942997995 -0.7827139934117294 1.0225313267878262
P 5.051249948011552 1.1929664775573445 12.52170692546934 -0.4295128103951377 -1.4621187478101463 1.3204964721492483
P 4.211197757742817 6.413386910585678 7.865431149305815 -0.583918096753317 0.45200713484291183 0.2637666451028425
P 4.691117186673968 0.9729121143892882 3.761327727141737 0.8329759748910751 0.35238511487319957 0.27433002244098564
P 0.2783139944628242 5.907493702866213 3.4911095149718747 0.3503074064085644 -1.3368502309169235 -2.3155262510826957
Ni 0.5601399492847403 0.11981030491413128 4.813805789930551 -0.04040642884150461 0.7564979971379938 -1.665025838423455
Ni 2.005526645755425 6.519118463721167 4.615573219281076 1.1257354076818418 0.5678697850412027 -0.07579894940818559
Ni 6.176913700903203 5.784461449333748 9.095650953198781 -0.44329752288405594 0.1351173846628447 0.07094804907378749
Ni 8.809893021013917 2.357231793184445 10.27388410702342 0.49937174016980446 1.552827781560945 -0.030794873893669545
Ni 2.1809337468900862 5.370099219857455 6.989550235829258 0.36910217051756433 -0.5577041573621104 -0.36449835319696583
Ni 0.9538477062271971 0.1392274546292453 8.576211742541064 -1.091066652655063 -0.10158968521904439 1.0723392514488888
Ni 1.5162886577560122 1.0544154139472979 11.324060258440445 -0.11833270900533815 0.8649049623891879 -0.5680636462195636
Ni 4.552166106869772 6.9826735938007385 1.460347302131885 -1.7416745374264455 -0.018396757339632832 0.3846007803737957
Ni 6.000061086703319 8.061235439831258 7.94200697665407 -1.5882591257853615 0.658738227188001 -0.13379763741015668
Ni 5.175854992489197 2.784612731524884 5.193146601609034 0.6922350733938658 0.3645117229334045 -0.7209324413285584
Ni 1.3429180027006589 7.793479145510844 6.493515609040156 0.11221322637116159 -1.0595372145882138 1.56040379413599
Ni 5.28218656991591 4.728427788055572 6.974008697558826 -0.6538772995512739 -0.6792304336040819 -0.15922867588875156
Ni 0.8212977946571106 7.467638681544461 10.974538835780397 -0.6413773673120503 0.3466803511789384 0.8960824164332567
Ni 5.120843674516468 0.6608794821427827 10.489574657164388 -0.21446111399949516 -0.9431053221500144 -1.116019980166291
Ni 8.166103321638467 7.290586059247501 4.470338248717873 0.17483707184996986 0.6356980575390857 0.07318259483126106
Ni 7.261103047483237 6.294700287526022 6.927384991875246 0.0009579930378951243 -0.22587784047686904 -1.2578839395243497
Ni 2.2389542775960782 5.599317590382396 2.363664780888544 0.9935956175900823 -0.3750370479447605 0.12679909460513647
Ni 2.3496951244355784 5.617781974253263 10.98568928719232 0.5551749631823535 -0.7112532663675816 1.7210082673263458
Ni 0.9973949237266803 3.6406292044510504 3.4728005919400986 0.4303995838754652 -0.6388566577727256 0.5195279034027052
Ni 1.6902957022111498 1.121663590950153 2.3877757569909197 -0.9633468460078698 0.32285239552140527 0.15095358036415293
Ni 1.3862652121030672 3.228267055945506 8.487247231834447 -0.5417116385885961 0.24092342195608188 -0.20198380746809086
Ni 3.4852320043010154 2.8896442563206106 7.272941708574642 0.6746214740771607 0.1963453782353909 -0.6479668476041098
Ni 4.384104757664042 7.206891761898808 5.730815641187412 -0.2126088912821048 0.2297177830482495 0.23073953944454456
Ni 0.5877683405124917 8.928143262770863 0.04776557009233497 -0.26249703436179955 -0.4212168889349327 0.2536681232162599
P 0.18283558368556488 6.274190366298709 7.575719420692865 0.5481651075234236 -0.40101598850702547 1.1538745891202191
P 8.699679468248524 1.9090591040253593 8.071301301880407 1.0855418661820917 0.007626406197006219 -0.2862740821767392
P 2.1870430851280096 3.344799046323037 10.555838248853007 -1.0435187276727704 0.8120040006250984 0.3197254198566494
P 4.256899607924425 6.347984262842196 3.607190578003274 -1.5587220355581928 -0.642704570763906 -0.24095710340749468
P 7.136516185559873 4.012080605827644 10.092550402321345 0.4364167366038225 0.2393645621093942 1.3638797242308898
P 6.271081149516909 7.8652184134207435 10.156379349991935 0.8318511172580125 -0.02733674014174002 0.19776694117326585
P 2.6425342523846083 9.03513850342878 5.441463018021484 1.544427987533024 -0.42735385507060597 0.44920283262489735
P 7.092487130371982 3.842319187796778 1.3212625805537341 0.122825197559053 0.3889410596203624 0.7071502999428014
Ni 5.508113898116255 2.9916211119973752 0.29132997594382837 0.18111956242457194 -0.5389127356872202 0.2791804085547515
Ni 1.5383077309885276 1.376910287926247 6.725745010553787 0.12753931520527068 0.2565253901593969 0.355237239610014
Ni 7.448828829142283 0.5857609865200313 9.160265387214245 -0.8715152686168538 -0.14078383892000268 0.812999274658832
Ni 3.167600963591842 1.7736718048599514 9.511037769608727 -0.4793675291337357 -0.9072065513708762 -0.522472587853326
Ni 6.388404081005599 1.775326417299389 2.6138576369026416 -0.38298227093376624 0.615332092288224 -0.23758535872178435
Ni 4.1993700061839805 7.2921952153012395 10.06903854138248 0.20471071948095068 -0.12976100544693783 0.23973351541303872
Ni 8.30366343604028 6.902215791113802 0.20537376884276087 0.01355588430756375 0.2870927214232927 -0.01812730572833007
Ni 7.900310743180244 4.167932369834666 8.058580786906445 0.10830823488980057 -0.6973371705071216 -0.8866770639589568
Ni 2.830832784503459 8.254806912691173 12.10934114045294 1.782578731839975 -0.6402525096789877 0.3163027673283456
Ni 0.26633260032032546 5.2886595592394245 9.713967803156319 -0.2135000356378065 -0.4852774668602674 0.2097742500467871
Ni 8.69356103873346 2.5741678482935613 5.89993521505221 -0.17908350583114965 0.5779667642658884 -1.1084786774839233
Ni 4.009798695265562 2.808877350210922 11.685531255773002 -0.7951149381792435 0.5945532078696599 -0.43245903750765513
Ni 1.10852669548319 3.518478804801143 12.646238330602152 0.26674732499772125 -0.10757264227535666 -0.5818691846440882
Ni 3.3258346422094838 8.94000737943826 7.860574589057751 0.35226144481114174 -0.5653860993874005 -0.2212565396547738
Ni 6.023707498543852 8.07590876113484 3.428836993947614 -1.34027005523175 0.2791107316590806 0.2234293789363765
Ni 3.03081360774691 8.607903025522576 3.3452617923294516 1.400440296963743 -1.3016317740342613 -0.1056286311751084
Ni 3.4605037304808497 4.702635834810053 9.129541416120405 0.3007941301697852 -0.3810858252420018 -0.8120320256495565
Ni 7.176026876009299 6.31662844798714 11.410762859394685 0.9119960023397197 -0.5580214314922132 -0.8439101053050756
Ni 8.1274290286859 0.12938432887001974 2.2929964654257082 0.0864803403814317 -1.580084560394369 0.5403954908803339
Ni 4.676780242624557 0.40201536599277565 1.1949520124846698 -0.8260843899775645 -0.46184263287609495 0.46228871927457804
Ni 5.954368327798851 5.643719387933018 0.10349237157596378 0.570481768742753 -0.9438424574263551 0.3651164463969389
Ni 7.835217198859514 8.716798343102704 11.474750904415222 0.6522189380122445 0.503469564388262 0.15815935408397278
Ni 9.230555505548068 5.152135850431545 5.495592482111655 -0.76925478258303 -0.7183353700253435 0.9322424112935815
Ni 7.275940011775337 5.953531930301993 2.218856191223196 -0.028635918569137782 0.015128628111322333 1.699460623062557
P 8.704352384698362 1.6790770662206773 3.5209816333977204 0.7215271374897638 1.5274211685623822 0.45291730536200714
P 2.106594373718213 3.368563644766388 1.4737860279998884 -1.3510020969372734 0.1380633546650461 0.09521232093779086
P 4.952218666128073 1.3198897977056294 8.247965726643498 0.5947537539162402 0.05510568272489219 -0.5693150021281614
P 8.818784290056607 1.5358621774379304 12.470824865573494 -0.8412749816750738 1.0579356744290491 -0.41609756543049625
P 6.566865851259222 7.728249232033017 1.363107001844939 0.2469696281501618 1.3681652389801213 -1.5828461822999063
P 1.6063923054882414 3.4470395490368553 5.925668984124035 1.5205578657836456 0.8628362527856172 -0.3597518396509159
P 6.945990290541779 4.03874532167858 5.72630454947066 0.4200148982070315 -0.1197414164274067 0.6098687551808077
P 2.3957424431484973 8.710798100190457 10.009241575123378 1.49758017394155 0.03820864985923742 -0.039121134371177785
