# total energy = -340890.98483713897 ev
CRYSTAL
PRIMVEC
9.06183614310495 0.00000000000000 0.00000000000000

0.00000000000000 9.06183614310495 0.00000000000000

0.00000000000000 0.00000000000000 13.26291317986745

PRIMCOORD
 96 1
Ni 6.016334048637386 2.2037387952676184 11.475642485500295 1.365895726219654 -0.357358656828391 -0.3848036404132212
Ni 4.460724937911116 0.5968967832719464 5.959530836879225 -0.1883523327275853 -1.1312074865400066 0.9276429648483572
Ni 2.7762927689316985 1.6518911164901762 4.564153107415766 -1.137992370672324 0.33112594838410714 1.5225450714170037
Ni 3.5946762251711415 4.5115437132827845 5.122839753699093 -0.3380201044007792 0.6685369584459777 -1.3288186188616986
Ni 5.332455421720639 4.6366786043504336 2.807533447978387 -0.1518403538444804 0.3831843596422433 -0.24275918961324
Ni 7.299952156728022 6.224928447760147 2.4819951512006813 -0.22885209261384457 -1.1606350477725043 -0.21510440401044892
Ni 5.122692045774957 4.505753200183196 11.610725459949368 -0.45506417650168074 0.13588588739775306 -0.4706363199083249
Ni 5.502663884239552 7.870575959358905 12.304375464448722 -0.12440385490008253 0.4978293353833491 0.0990448073100036
Ni 1.9604375648906678 6.403002583785232 0.2213172166373522 -0.5746700957924877 -0.35910546431616863 0.8290205897877528
Ni 2.894703777808588 1.5505979155086291 0.4304924794372403 -1.3668012687530589 -0.3481476797530843 0.5367437530603595
Ni 0.8170939569998944 9.22322713285278 4.653465655237741 -0.8159519295292529 -1.0941386067121672 0.47162927994921355
Ni 8.718945030381667 2.2211828292530793 1.4357898925603725 -0.50853232362315 0.992417023900949 -0.9460993717813319
Ni 6.726473875808608 0.7271488930365251 4.536194625309096 -0.24979295653156983 -0.12132418753349428 0.7526418566166974
Ni 0.4215140124903341 7.666612158348648 2.619956164711458 2.1869703216874528 -0.5275962822331365 -0.6180083535688066
Ni 7.808239590638914 3.9482056266645302 3.63629270625074 -2.4365809870048873 0.19253603179162967 -0.7355910717819977
Ni 7.68751781362369 3.658245003564911 12.583533473047527 0.4955027441327014 0.6291738832673229 -0.06452749025942435
Ni 7.961674595024274 8.903960532657587 6.521188859133374 0.18417197609765057 0.8163247394876392 0.31394686550165934
Ni 6.746853944605127 0.8244340440275427 0.22812174916705732 -0.6411176858927604 -0.302731199291498 1.1134303650622437
Ni 1.9618149639378313 6.261900737973488 9.526245861392946 0.21596649490042802 1.302730406415079 -1.599393545135626
Ni 0.405613209147847 4.836945176339357 1.3315035672019955 -1.1729357195167283 -0.511857531341641 -0.18345978052197434
Ni 6.428158240067641 1.8446273028988829 6.930840022330011 -0.2440712235564442 0.031450762310113574 0.3968795977411488
Ni 3.465916599768851 4.354203057651849 0.5345694763877917 -0.3795483055515528 -0.12968824322747344 0.12360655580976776
Ni 6.206097952891688 5.4305316709801925 5.015595645123649 -0.4221591982435439 1.7747836612755885 -1.1860540020662413
Ni 5.503624438838232 2.882778401847619 9.14831927927667 -0.8633067646641326 0.2020146607060263 -0.20945209082067798
P 0.19011459730117752 5.474091915846743 12.28803516206816 0.749612068651438 0.4808878224330041 1.7201919420726375
P 3.974194971843907 6.1133953722832395 12.776932985839474 0.953167591482023 1.3350792550594297 -1.6885236644350792
P 2.2217718485824585 8.180644796179946 1.4030966012290766 0.5218580941977786 1.5336236978286684 0.5661695145206443
P 6.35010864800698 7.816739592653647 5.624880864167815 -0.2392354927306977 -0.3741888410118523 0.1611714014374192
P 4.607807595375017 0.9465178149690078 12.647937752705433 0.7544819951492296 -0.6521736865966059 0.08515056582641464
P 4.1422285937620344 6.2160931578194605 8.250274130381234 0.4551675348487645 -0.6689365078772415 -0.06765986524081896
P 4.625614102793941 0.9986958657161672 3.822371161870295 1.127110690762814 0.09076791201319206 -0.627354570670397
P 0.19807451390004946 5.653226286664709 3.409232098060149 0.9344599877701907 -0.2528587399410871 1.0679827742524057
Ni 1.5504348024635703 1.040162826504462 2.5460414883430396 0.5485574578658359 0.26125262043173714 -0.9067658642890319
Ni 1.9936854405751638 6.586377893774727 5.102242200842495 -0.650204478685377 -0.7868670963481545 -0.6539901709800544
Ni 6.227130473868442 5.511888833121214 9.126104188723238 -1.5171074453412001 1.4953417715293345 -0.2151267726079521
Ni 8.748695037433233 2.377445126419459 10.278678182597176 -0.12566703788322228 0.6147584791729412 -0.3115562537822957
Ni 2.6433284517012243 4.981825807694965 7.170195729383704 -1.5190923369817126 1.9854446848027032 -0.026834603694340882
Ni 0.21794168278821763 0.0025318769327468457 9.429851488864665 0.48230527160582104 0.29883520667120145 -0.10009150340696311
Ni 1.384503526459535 1.2178654272602443 11.696668817207291 0.30698046148615515 -0.8777761619249012 -1.1817941983486229
Ni 4.1476385097564865 6.785375808746526 1.687798640992715 -0.5853717984807081 0.32452721212066693 -1.3281822708292803
Ni 5.9297663308903195 8.01041820998936 7.8220153934777175 -0.9702016641461741 0.2575070373463759 0.2883065392257358
Ni 5.227845588822896 2.963637163017627 4.944320681534433 0.5617521021792389 -0.9764959817953182 -0.15121377600407507
Ni 0.6884430736276433 7.739206525235673 7.262386316267384 0.5890394771402824 -1.824295137742155 0.6654220669660798
Ni 5.2404777879791204 4.430440282545189 7.046916702295392 0.10474648568047122 0.3327249174401108 0.6999380984650784
Ni 8.203625611861572 6.955665827787968 9.465900378006255 0.23643093340236698 0.695350479094396 -0.7995601184347907
Ni 4.518738810937047 0.6526769137641554 10.47170616011982 -0.28727346997553105 -1.5132672456595035 -1.0759922748204438
Ni 8.064979523561545 7.257588074191903 4.488779475477655 0.4958891809378427 0.14405916723716483 1.0582310941822808
Ni 7.535614259494716 6.278864494659609 6.989064129947352 0.1086134248350452 -0.1201383947555092 0.5262433677496678
Ni 2.4685800094281745 5.109516136468535 2.6308711459766463 -0.610428998559652 0.1639674761253176 1.1114925246095826
Ni 2.6357799424493344 5.101641401126527 11.387576846289438 -0.7543446982404169 -0.0982235969602889 0.5837856849405108
Ni 0.7980514151728572 3.260049813232907 3.8973071071374985 3.0862797296984392 -0.31867152467083826 -0.7623318302109516
Ni 3.860142706004423 2.8081994929123772 2.7517759720757695 -1.0390684052109007 0.02911877174282727 -0.8077760785866798
Ni 1.0254373432699821 3.494869165266797 8.260407075213724 0.47119399218400787 -0.8299580140003577 -0.4507629780231657
Ni 3.464357964004955 2.8196445915740065 7.233778100531229 0.591896229862787 -2.110874924084771 -0.27148509679302274
Ni 4.385203598048867 6.975855598031919 6.015036393745584 -0.7171907148979391 -0.15867100361306866 0.05257751698639977
Ni 0.8390263182752244 7.548572684741059 11.671655431747519 -1.551857961448508 -0.5206962126791936 -1.4991567744000502
P 0.43179013432904173 5.613752929760467 8.056861024835534 -0.7497827899013475 0.357510609025223 -0.8034499404075002
P 8.545737100200839 1.7096693817843562 7.944166222004373 -0.3035634653848062 -0.9380101670152943 0.9150630713008175
P 1.8660676064882853 3.3098717866625496 10.369078150719542 -0.9349760081746608 -0.8155333539345955 -0.05164574920074976
P 4.0613970180995365 6.236156062361698 3.7773175264578724 -1.0407555631053365 -1.4945300742613166 1.5537361523078275
P 6.870403014401371 4.018008948113882 10.43597624759968 1.1627466947988683 -0.3211235857557566 0.359961898779193
P 6.27149722212445 7.9168185076330895 10.006204184111448 0.46212725399604926 -0.3007725329032304 1.2863208547088039
P 2.3515645232701217 8.47422109177837 6.042781922710095 1.0585488825330156 -0.26865276955055023 -1.0407509351196462
P 6.861975507073331 3.8318154071792025 1.3441430158268892 0.5447170010738231 1.0735224731237125 0.7304216117659164
Ni 5.141930323256064 2.9032672126741783 0.40939290087529406 0.8269716776785242 -0.8738601146999466 0.3289284265121561
Ni 1.327839866973257 1.033130841895258 6.952259483696989 0.4761821894272185 1.6629892676094005 0.5185871367559908
Ni 6.900877968319866 0.97177315144562 9.276293243511926 -0.12665742682094963 -1.3275932310950296 -0.012772469174319939
Ni 2.28781450815962 1.3655733513968715 9.288614621698956 0.802531799468605 0.7666353426823119 -0.4334795083523696
Ni 6.235911392794111 2.2762969148112977 2.7260059233236382 0.7888437604585511 -0.8556286792935845 -0.7156004875926836
Ni 4.2647627379445785 6.7750725014003095 10.453960367001 0.3339495338758313 0.4142260594393963 -0.5330503633691722
Ni 8.155688500285942 6.9815283072656324 0.4209993002148151 0.7189776315950328 0.8607546876662402 -0.5075679028273516
Ni 7.672411733284073 3.7673313833659363 8.24442562153229 0.046267001387339676 0.21435775565241147 -0.6279883475996539
Ni 2.913923931618023 8.255558993041141 12.17032735165219 2.017807417404125 0.6858818774823284 1.122274445716435
Ni 9.074884880207593 4.880759152609333 10.228689471388138 0.1353672958901217 -1.1776369816471397 -0.06633291889927931
Ni 8.52463208453739 2.1879893245836026 5.724976090451763 0.8428909200119419 0.3793256480177854 -0.6301380469528051
Ni 3.508661279410107 2.611285800182997 11.595420019221345 0.25437286259276837 0.7074331212905429 -0.36749651659334126
Ni 1.3401367782035272 3.358443226746741 12.686373529406382 -1.1041677088133952 0.903319043391012 0.20102144355482154
Ni 3.166640409429204 8.318176278672068 8.110005973466459 0.8029015241031978 -0.12545080810735815 -0.4530093508551811
Ni 5.549386709813076 7.699660673644738 3.4165132831548592 0.5243615773459227 0.9459541044527193 1.3116688465552895
Ni 3.0452843039054187 8.20944331046867 3.588864869849128 -0.16197949916101137 0.8215952438579592 -0.26643236486046373
Ni 3.5363451878909284 4.150103329104042 9.251809975448595 0.1844170022289211 0.7458150635028511 0.5528614845578285
Ni 7.304129663048695 6.094265836832171 11.551996608075928 -0.5832845769343761 0.05586698637094894 -0.834571344402653
Ni 0.520268087070465 0.018555015059028065 0.3141983154117808 -0.4102274798029645 -0.1947027004256453 0.5467741407131681
Ni 4.583494689825411 0.4146813882695355 1.7404923101989773 0.09076045581402434 -0.5694787813995353 -0.4233961559744386
Ni 6.010063258238457 5.744062129090817 0.24340272293832077 0.01847131933131012 -0.680540667775073 1.5692525027758715
Ni 7.738400021846215 8.857572995010017 11.541426882756115 -0.037548133457103075 -1.316122511451269 -1.2313501548998793
Ni -0.08115961411978273 4.920187200334392 5.618329156857951 0.8816865527229009 -0.15681003914492994 0.4251977279595516
Ni 7.577199024148886 8.790569780834176 2.4658804885324503 -0.21103254793392046 1.386579994041883 -0.35039559524699654
P 8.604838393527164 1.4813292423736368 3.425293295896944 -1.1182905213680223 -0.1663413756741329 0.8607217775457756
P 1.9341310554570095 3.177759282000716 1.6157407347872164 -0.5318864249680583 -0.5490140857872803 0.6107786685895868
P 4.656170613234966 1.0365743395131672 8.211825667110112 0.15849539726715284 0.6443739880465289 -0.18603396900705382
P 8.394259452356186 1.6185254369398043 12.300701796200563 0.8236953209200976 0.29604067464519984 1.0727202889373912
P 6.134020110647349 7.8332865048912845 1.2307477330855592 0.46062547263954223 -0.5379580850834348 -0.7050147416570375
P 1.8060510677424646 3.231813132766052 5.889648677458094 -0.3483914203327742 0.019668682073520963 0.008183050031424617
P 7.049827363966108 3.7772722172786897 5.913468619138189 0.013241952611570742 -0.26555279046898783 0.609059371905635
P 2.4051109112286078 8.413706152061534 10.104508791634084 -1.429426656893764 0.12010599885567702 1.0940169935326385
