# total energy = -340872.6024273172 ev
CRYSTAL
PRIMVEC
9.26946202571439 0.00000000000000 0.00000000000000

0.00000000000000 9.26946202571439 0.00000000000000

0.00000000000000 0.00000000000000 13.56679464621496

PRIMCOORD
 96 1
Ni 6.601191902160558 2.1479939409780346 0.2875173982560346 0.8067725770228299 -0.13576735954201782 -0.2701756339529799
Ni 6.1774198979155255 8.83249050009662 10.797499695203328 -0.28606222327624925 0.3403749777862009 -0.05520158487280816
Ni 7.75945755367833 7.8436057316982435 7.0455078155205415 0.961207431067364 -0.5144142363252238 1.0037756434468776
Ni 2.215420009155701 4.155777996438421 4.693907356073591 0.06362940392518719 -0.44033741181446745 -0.17424957477761605
Ni 6.644350518250084 4.773819389859633 4.342487212229158 -0.09000686547745144 -1.5002487219126486 0.6669174205646837
Ni 0.6510221399947799 1.9163871579855734 4.3491751292198355 0.918998916020114 0.7398732440971193 0.15522701092852623
Ni 5.822445842256504 0.43100125782927223 8.606815245977801 0.6210386557546982 -0.007638747492180393 0.8273244330322526
Ni 2.1973816356784206 2.4294611612440282 0.45182881248811163 2.3140015869080535 0.14157496736273037 -0.5995784289983932
Ni 3.527206493936947 9.076842793639575 10.607333896951296 2.312992686027565 0.15650253520684013 -0.23599693118874196
Ni 2.8017042250161914 2.6940116129611837 6.792283719688221 -0.6987173386840999 0.5576159685236783 -0.6873276087899195
Ni 6.3048471950338065 3.51320960598695 9.081422834921757 1.2741204559878703 -1.6144707511837229 -0.16257059577779098
Ni 0.7530103250004975 5.658135354970648 6.0269672566463885 1.0007412274959282 1.3333008230027683 -0.8992281611510899
Ni 7.265385947967884 4.170099315566067 1.9585298410159473 0.12597531315226046 0.9803258970643698 1.5369028828005724
Ni 7.314430672566184 6.646454686173692 11.11956252525542 -0.3284633139502795 -0.9162483498581703 0.3669337021113358
Ni 8.024323167110916 0.28785202584212394 5.091821268513782 -0.02435426047464838 -0.8793928715927178 -0.2784684700893914
Ni 6.133102599048681 6.280023575212554 2.6368283005350053 1.5018620891463554 0.8644545051153306 -1.38782543641321
Ni 4.487745246871024 1.932339902463682 12.912523086016234 -0.5845469885865675 -0.673978184066207 -0.0007489623508825812
Ni 5.787268233137142 8.28627816940688 5.939651703386399 0.5694471568306515 0.5343328296260217 0.9499709389215961
Ni 1.6184851812061074 1.4910949619367002 10.877991997324248 -0.9507749228801302 0.20281170268602491 0.5456878496275248
Ni 4.164129781897326 4.938973398207375 2.8320274167717043 -0.43581072758870754 0.08613555544750327 1.108776154119684
Ni 0.9390150616626256 1.4340136135949257 1.935168015386559 -2.3457940488283016 -0.38580842752865163 1.484927775284862
Ni 8.39791030290477 2.1563179180502847 7.256268504929728 0.2046749811470088 0.42055200165742407 0.6578437403981896
Ni 8.977474158656817 4.842469027050146 11.858179229322968 -0.5458896812256857 0.1233489312730069 1.1474787128962043
Ni 9.400717803555391 4.6835348278510445 3.6164056019197437 -0.7843623276484298 -0.19042464187558172 -0.6602860312910951
P 0.6289654546457618 1.5756324573697928 8.645724740586349 1.152562555177015 -0.38852531223918246 1.2657463729915621
P 8.389122852721592 6.194698175490886 2.351803460669536 -0.6851023190038266 -0.30680716913308453 1.283463844875983
P 8.417061011848274 7.743078413938168 9.467452369851554 -0.48733383516866396 0.4740029223877127 -0.42284388301539433
P 3.170777132709614 5.894840342183308 1.0914281941909836 0.6278459084845187 -0.029426018570600936 -0.2247468121962194
P 5.813380308206771 1.8199384036016557 11.04996462207995 -0.34358242897990504 -0.11729038378375284 -0.9938223888889077
P 2.773052317298682 1.1312451691507257 5.305661273271967 2.468397617294852 0.21816041722795332 -2.8391473507181684
P 0.9218063050539045 3.0623244247526866 12.375168653422532 -0.561426086298388 -0.20421603923271928 -0.8941453473115439
P 4.476315999955563 7.588584287141748 9.218813876978746 2.55772931108215 1.0723467076480564 -0.4434451042055137
Ni 7.679276705487951 8.560932334942247 2.6522406353657733 0.35726995376932663 -0.4167655380317984 0.09600396360115078
Ni 0.42086510089329776 1.0429071942080315 12.93603414998734 -0.2760467480217762 -0.10717386417504123 1.157477218869813
Ni 4.1261435257257455 8.364892478482327 13.174483649989531 0.8493870692592469 -0.7699129849923192 -1.4500165652299737
Ni 0.8764156024621537 7.401415306024971 1.8215457283503507 -1.6034404615114903 -0.5734259389727415 -0.07006076137282773
Ni 6.5761087373971865 6.304383721922879 8.816422814287002 0.578579458149223 0.5598073197480423 -1.073193629029384
Ni 5.276020313935739 6.253967116916236 0.029973733029873707 0.11117938579000854 -0.8878525723242968 1.219018887028036
Ni 3.5960600592962684 2.490018557917755 3.574470554843065 -1.57854704070392 0.18543824440458384 -0.04797987031338834
Ni 5.700839767411466 1.0448074339628324 2.2157018008071447 -0.7191568374853744 -1.769801634679965 -0.16851575761763238
Ni 2.589618929455977 6.5291959891091516 12.459934177626202 0.5070955911766235 -1.9825354815757081 0.21137913264006178
Ni 1.976267883917347 3.311357796716005 9.409074223745407 -0.9881093976645304 1.1170743895727342 0.1118113629470526
Ni 8.56731899441082 3.075273863471988 10.513899571680849 0.735653806699133 -0.44372535445009387 -1.627049873400314
Ni 3.8407645924035285 4.281712910139517 12.857957469720573 -0.08414706426256476 0.6855247512532259 -0.41949604958908393
Ni 4.32146036413262 7.73487493987476 2.3020681611359555 -0.4717503789081101 0.6463915326971901 -0.45722236049526416
Ni 4.973761689913559 3.419013330922138 1.3309297781549765 -0.6659470862316144 -0.33043997806067604 -0.3559918583878514
Ni 4.825051707541507 6.774336186940682 11.33322548328523 -0.3894357398685938 0.05581505008709097 -0.8221454599344744
Ni 4.43854294141501 6.651413848460613 7.1737545330989425 0.03921960762225504 -0.5040627178875706 0.29048374938271265
Ni 8.006294063095854 4.788604182098204 7.085299762932295 0.07081358037845224 -0.5811569890684121 0.8289699390554757
Ni 0.5224055708738599 6.6483178480796195 8.078904541492351 -0.9833518283748871 0.005564638571971062 1.5504235429948265
Ni 7.704332061864668 2.650611990853976 5.106894341027352 -0.8563681285627702 0.6977369770487015 -0.37796296334230395
Ni 5.296756100918615 1.1676556167451542 4.827920606098146 -0.023157669063385924 0.4770296250291785 0.08829296811013826
Ni 0.7781555951607332 8.82771672705407 3.9156210614955773 0.11848748941564756 -0.5232061235852409 -0.49897476184170186
Ni 1.3016735015008178 0.7322115056745354 6.563995404169996 -2.343633036621241 -0.6784948409896379 1.8013704106251816
Ni 1.4845229132237547 8.62602249864084 9.61713471881033 -2.335583426843887 1.0516477845378083 -1.1063315492339334
Ni 2.2570769723658235 7.810717679746861 7.098703405300304 0.3661094064378276 -0.1318777946796245 -0.5036114892827649
P 0.22780723042908188 3.663384163389531 5.677540974125163 -0.14018194366994566 -0.6141735532037488 0.5163705887206462
P 3.829854435372306 0.5915186811753005 0.939018769447513 1.206416110662361 1.914545743799296 1.4888350807590682
P 6.371791251176108 5.877172747194769 6.3195355848653065 -0.7525968623113748 0.8058441516712895 -0.133910251728621
P 1.7036715389944979 3.5415741603756854 2.4791009853167583 0.04552266702214741 -0.4796092128308965 -0.34180553958514037
P 5.821945291296703 8.543431590273642 3.8329856597097294 -0.11490722826355693 -0.6500468700615902 -1.3659911141469376
P 5.652416096781809 2.79561418833861 3.35954509605909 1.9041350899889338 2.627794957550984 1.1138383991339398
P 6.53980952334938 4.4436874929462995 13.600712061722476 -0.30600961293245366 0.013654871779273258 -1.1138142307642238
P 0.5987738892537524 7.19718124496386 13.264160135276581 0.271393565520481 -0.19007317207343394 -0.8887198054205984
Ni 2.375373849198842 6.643998278685779 3.309769010891747 0.17077498596545426 0.21733355045128377 -0.24643072492755624
Ni 8.212391286062893 0.6449969895527283 9.824082878409031 0.7689611626020112 -0.22894799476176053 -1.7771711876711587
Ni 2.680561623282081 6.7194424316824835 9.585564784386424 -0.5994169637198644 -1.2738288928893804 0.6388386600505965
Ni 4.844063374551735 5.035125529800299 9.640917378024442 -2.4837139359369482 0.49159286755533393 0.35864857928440813
Ni 3.8730315903862693 2.5794503294022375 10.739433929973941 -0.1250841687965588 0.9870930405848742 -0.8529508753511051
Ni 0.48168389640158804 6.831556577215735 11.032883784049844 2.1442771536943006 -2.449814712086342 -2.1514983540330883
Ni 8.768095546064416 3.035897187967626 0.6493174858927901 0.9126608896172281 -0.3019269582226477 -0.5956443840513097
Ni 6.012191733870035 2.904289363388783 6.786490305801633 -0.4019253876951723 0.07800135637614308 0.5539650020346524
Ni 7.767327327101872 7.0738417806839555 0.4310540937639179 0.6085940022334422 -0.2979962557096739 0.2162575437782856
Ni 6.450322135091588 4.018775344848387 11.45068718157236 -0.37281227237929987 0.03347679160120686 0.7668605713192406
Ni 7.891334192661511 2.0492834378127935 2.9101726910588908 -0.09538921283528734 -0.7077385683461037 -0.8796651514174979
Ni 2.3994744509670483 5.067828192507311 7.896607589717639 0.826807384186518 0.20988892124778044 -1.0207048151020486
Ni 4.510251501137642 4.220460303799399 5.595624882607474 -0.45109747854444887 0.6709684507056057 -0.045260157389380114
Ni 1.3870730569202347 4.6144031786251665 0.26505192962317903 0.4796688624242384 1.7633795332037048 0.7596769090866078
Ni 4.977988564685213 6.580539540337648 4.661116633475503 0.46186525858391425 -1.4460979469018578 -0.6868997772238815
Ni 1.9854724599003581 8.986706543026484 0.6524570527462099 -0.524729759318619 -0.08219508274251651 0.11138507404291138
Ni 3.552632628802405 8.385711690625168 4.935911694836591 -0.7897706431481946 0.35788161921139655 -0.37347021767827293
Ni 2.7737197185784166 0.2997465997609556 2.841823384444258 0.6793589887621461 -0.26886077179629825 0.863127558773791
Ni 2.869630844153659 1.2244774201448096 8.805121485950156 -0.021357125519537414 -0.06576779042442867 -0.29655515238777314
Ni 4.1869326589549365 0.5124223600644914 7.077010082870253 -0.9502172506044474 -0.21472465207352698 -1.6166549033192352
Ni 7.664760727653717 1.4458877946968767 11.821277500230956 -0.001701041851506748 -0.13679040148989344 1.693287918592942
Ni 7.969892884963645 6.7870353501800835 4.54818677526702 0.4184071874002794 0.6314693641697189 0.3021349604683958
Ni 1.8688718946533327 8.615955862671505 12.014373375490266 -0.7753336417872583 0.7767433776505913 -0.2979034388855515
Ni 8.683252158378112 8.477293977344353 11.840406889411359 -2.1817841495008232 2.1119550445228272 1.1412180766984734
P 8.965155043368377 4.918840126268703 9.366108412470027 -0.09009531142619968 0.1892002825501774 0.13317105956975128
P 4.12014618367035 3.4754921642197076 8.18331391002955 0.907903834548217 0.2338482602768553 0.5696849838730704
P 6.347041787052604 8.01922496289072 12.755160987609395 -0.9816415305519998 -0.25486111508309656 -0.5026103017117601
P 6.705139651479274 0.8773388408991203 6.673682804494434 -0.5454942455594799 -0.285869647649469 0.44280309974614057
P 0.3436180374950876 8.014664387479197 5.82404853227409 -0.3202854061251774 -0.8475903823701402 0.9871604034876998
P 8.118334052931358 0.692325936694376 1.0629867032658347 0.36111118189228775 1.1304731794771434 -0.49538241650475323
P 2.91860141305421 4.8782769596003694 10.84174098447998 0.35468908041602787 -0.04242757303659145 0.3631914614600842
P 2.968350616781119 6.114526596762725 5.220000319017987 -0.24189272784788662 -0.12812089874035354 2.514741237556398
