# total energy = -340872.9127734223 ev
CRYSTAL
PRIMVEC
9.27624648556846 0.00000000000000 0.00000000000000
0.00000000000000 9.27624648556846 0.00000000000000
0.00000000000000 0.00000000000000 13.57672438899333
PRIMCOORD
 96 1
Ni 1.6134546187873953 5.2858092022644865 11.98447327009538 -0.8763214317562456 -0.23297717052581166 0.33686079398535534
Ni 3.7924263152005264 4.9289705607365875 1.8665143275411045 0.2607872507595444 0.26644033528026373 1.3885756843156731
Ni 7.160807584644456 1.8320400859019685 12.237557097089393 -0.0603443054160122 1.5899473121210619 -0.46824879351275484
Ni 7.445217295293445 9.006595067519084 2.1101623568289147 1.135026860286097 0.08030532191897137 0.027638844763191107
Ni 2.6028404934905933 0.15431128433193164 2.611428442287685 -0.061678707956719585 0.02600773691767134 1.0948752277678757
Ni 6.13775821222615 6.827864553508983 5.589998652835749 1.0068023460883435 1.4532057615912326 -0.5158291143948793
Ni 3.853909275480419 2.073621367520744 9.895083211539665 0.24506418359733279 0.941336917395682 0.4139141846259323
Ni 8.236731560803767 0.5823543922310519 5.2120769587845945 -0.1762882024741996 1.2104913091729992 0.8783708580861066
Ni 1.803450694896744 3.1362153777895596 2.8784015928222955 0.7996166827043389 -0.6874517930726096 0.4728081307486631
Ni 7.701213863616347 6.20367521822327 1.9614836092323409 -0.7380963547023547 1.3573702052471461 2.8773038071832318
Ni 6.670372444330948 2.0344941607524 1.291044765291908 0.1220798347525962 0.8827540747554667 0.25435897863569745
Ni 0.2747058294255755 0.7526458660129187 10.02715747831231 0.6449545431403473 -0.3159674954761139 0.5893940322662237
Ni 5.236125627240481 0.41140337733936283 2.574771499901135 -0.16035867572813672 0.27670237932790415 -0.6620017284306212
Ni 6.846955068333368 6.44930094321592 11.597048061740251 -0.12221173234477019 -0.018177185129659015 1.225191334387335
Ni 9.434591794186852 3.7893651539313105 4.593277122581956 -0.4344974080939226 -0.21580245851873803 -0.10906413921921862
Ni 4.779372537134622 7.845320349426266 12.891588116626826 0.7931537006878148 -0.0952747987446101 -1.8994127448125995
Ni 8.390717248891608 2.0951886400993125 2.9815979773307064 1.7397184421413392 -0.44970471196198036 -0.8217361403111977
Ni 3.7283831109500167 4.031261827923278 11.674706940266383 -0.5039699010634482 0.4926349356666031 -1.935126139053809
Ni 0.7549547237096094 8.576724539104706 5.931643730597438 -1.4120418857584134 0.06993066355286666 2.4995961543848435
Ni 0.5548698021566261 8.149757475772946 3.4705498458655843 0.42484060173044896 -0.007582183222632103 -1.196870633065771
Ni 1.6131392264142033 5.502919746222073 2.896349274106172 -1.0510592590241898 1.1088170346599484 0.42508228542760984
Ni 4.792257243204141 3.359049365695954 6.0521644326403585 0.8796324984073496 0.9216790339554385 -0.7213430465034157
Ni 8.578830247008076 5.661181783840549 13.536835458570865 0.8455550971076663 -0.12354947731958724 -1.7404123828845703
Ni 7.732298564868298 7.777149215585449 4.2691873408869085 -0.9971766500731212 0.17798538767096445 -1.3351319626742362
P 7.34674994113366 3.8661260918184728 0.32101748893030757 2.455395034387597 -0.6399120956204335 0.6920198720592663
P 8.90497378962738 5.850027605412373 4.0410436296153645 1.208759414083557 0.5330359651914691 -2.5296919453289592
P 0.33624444718309027 0.7067618414612499 1.9674435974610418 0.7641125762604581 -1.191236060487813 0.6346390201469522
P 4.433860192302824 2.0004132319551267 7.579097647214927 -2.1733285625343024 0.29379275915128755 1.570404614102444
P 8.650081094610648 5.830974195573071 10.75170652199696 1.6778528149847942 -1.7171855511461458 -0.8946621390469623
P 6.5530557577498065 4.61695474118703 6.740544464492278 -0.34769927936175604 1.6878001560054934 1.0953552527280876
P 0.3245517387593117 2.21241256421775 6.249366296852516 0.22200241668186282 -0.45710614663237403 0.05085796319213176
P 6.258191717554129 0.405081615506118 4.518143238290614 -0.3795932998568753 -0.26335578281766897 -1.076942811659171
Ni 0.20487888562550122 6.651170614551319 8.16542227284969 1.9525883003943147 -0.1867659620770719 0.48427216552420466
Ni 2.0614231036752315 1.0112778159012286 8.421831634131623 0.18101003342990116 0.1927949418799712 -0.13628800793217818
Ni 2.4415172946029027 0.3462878390200003 11.270473173669375 1.4400121457190942 1.0361093225825768 -1.0269479677982831
Ni 4.518672911952651 8.281545106535837 4.360979508230549 0.3855821704504585 0.1350711048059416 -0.2014626448572982
Ni 8.032357302975372 7.750489283804458 9.747232832735033 1.2883391706904135 -0.45013897128592156 -1.4706111015518737
Ni 3.2561015845875882 4.019907702488367 8.12424408803097 -0.6365699186210778 -1.2101382967089545 -0.2816201283444956
Ni 3.20212310754041 7.3797826541023825 8.277919021868755 -0.3900898285128249 -0.5743366237124689 -0.2587758767564705
Ni 6.270556953832508 4.214579006717973 2.281229324798983 -0.3183516794375743 0.3741158216820718 0.13273962845928752
Ni 3.287863451817273 9.294613237967244 6.45482309262066 0.40644821526619035 -0.7074066389279817 0.33606786577041475
Ni 0.7700406830190828 7.419865314236573 11.624160674339235 -1.0267865025197542 0.3182472926492261 -0.38771541474337745
Ni 0.16367843781573307 4.212092972717519 7.1606359740884535 0.6778548934127939 0.5501775099677622 0.012688394100945891
Ni 8.877117222077512 4.202974422633763 1.992804854764184 -0.7804041143316301 -0.6153233505374758 0.87821787744801
Ni 3.29041441954162 6.3569744640871075 4.456030420888965 0.4283506717662364 -0.23511452858378862 -0.8994053101589027
Ni 1.4951360976090562 4.229031398407182 0.802360980274243 0.46701980620166017 0.3593708021624133 -1.5958053135637356
Ni 4.596546999392255 5.795019465029187 6.575275150441181 -2.769785672294894 -1.034533750565341 2.072197305008915
Ni 2.5020355252706783 8.397915615997402 -0.24262578694881737 -1.4638940945430143 -0.5414725259945965 0.41530746542903313
Ni 6.518705817810693 3.879623030141835 10.688602073869008 0.13937178906382447 1.0537748581831399 1.1785044718537574
Ni 8.660117993075168 3.7657292784344536 12.007905995798916 0.32059908071085436 0.4650369714436765 0.1893828308746287
Ni 7.918509932499342 1.1030477202538203 8.033307190593456 0.7126743150848243 -0.9089027081263766 -1.0120430256619926
Ni 3.105269820231666 7.214016133251194 10.883577638976282 0.6238671263424288 -0.011813961915792558 0.6541310674332929
Ni 6.6445102697292056 2.611059247686125 4.075555903864209 -2.3280315826385585 -0.9360234756025685 0.5980398808666797
Ni 7.436479071306773 5.527158577726504 8.53552316367031 -0.5645360926822793 -0.23388502705206168 0.18894265801341653
Ni 5.605505753725896 4.070954885714114 12.951122137565317 -1.362900391036756 -0.3420184269268949 -0.10152463630906387
Ni 6.1790560606217575 2.824403635657949 8.807003642267684 -0.15340307034591 -0.6222630150801026 -2.0061765180334157
P 5.28012286330076 7.8985474505255455 7.3707624322290926 -0.41540696712137487 -0.8300649718918672 0.3878120882222418
P 8.410308681014591 8.243614535536368 7.426889287912484 -1.2524702247079462 0.9987568500760475 -0.21965397105434428
P 2.040143394731044 5.693305424674778 7.261361166590443 0.250155224966995 -0.020275462419584438 -0.04394169568827271
P 3.8425458737992386 3.7335592563688733 4.09183478844405 -0.3069526935720133 -0.011019491038955215 -0.9370236347323088
P 0.6649510166468926 0.16891487883534673 12.306987945173724 -1.1346643347403556 1.3672185587961356 1.1967096820078744
P 4.953821624494861 0.21177762997676194 10.987493860195272 -1.3360724722106345 0.05396437003159739 -0.5263428694420096
P 1.9263795104714478 3.182921277760782 9.842568526153949 -0.34321296145562824 0.23067911852025436 0.7657850788668746
P 5.469794270790646 6.239064097744663 3.0411588993833822 -0.1062248699982106 0.44982015449392204 -0.007613036460567534
Ni 4.483451004864125 0.16231297436473727 8.693610807858903 0.13396578755690478 -0.3117909955009211 0.44173532060325865
Ni 1.7391848607357454 2.903984552411299 12.24653093773133 -0.13869995980778047 -1.3328061427545368 -1.0166460716516426
Ni 6.244230966917249 0.24998277786583348 0.021125723256099523 -0.717780525963138 -0.9192154029062943 0.30194521305509286
Ni 2.5450958604576526 2.216549770054327 5.974546369597816 -1.0052216318647849 1.0513107129133636 2.843671720951083
Ni 5.792644745983976 0.6983102534843322 6.615978391450858 0.9415678024595655 -0.21076052521945635 -0.4726695482882699
Ni 7.109203826642487 4.858044381753476 4.655241520043281 -0.6684184305902424 -0.322270040655374 -0.7132718394595071
Ni 1.7475056536402513 5.557862952881368 9.550682161011055 0.5316601678898649 -1.087247793129605 0.11838515950982839
Ni -0.08532105794544313 7.749524554192342 0.9334612411885 1.3114657294055478 1.5852977291641923 0.12148076771601658
Ni 8.592512710256845 6.425377504084683 5.997884477589394 -0.4509825502331394 -0.018305997398039443 1.76358110769155
Ni 3.584007613998259 5.879284886149064 13.325228511525477 -0.8625056089190759 -0.27628174685071777 -0.9676097350492819
Ni 4.1597007337825715 1.743702392669407 12.482725503140914 0.6024009860488528 -0.4688671438230441 0.23546137040024606
Ni 4.257407435748188 2.6107531315592034 2.264678646203421 0.10158685700556698 -0.5971513076141393 -0.4010123889625997
Ni 5.526416478024875 7.547552844147968 9.799489638474434 -0.44674202978923055 0.1334122290462799 -0.7849899339300996
Ni 5.776986442279622 6.055208896666288 0.6368959374268403 0.2970683445787658 0.4527062177924655 0.17491369072417617
Ni 2.1110046399902624 1.6441960989273416 0.8506549736069493 1.1598817145462477 -0.04759034818445352 -0.36781379072344395
Ni 4.977689406148476 5.268573936694173 9.101523533726732 0.2489347222963326 -0.2279295807995752 0.03070771349650195
Ni 2.3361484132179746 4.504099929061928 5.413569086896789 -0.5244271404765356 -0.18291110710735595 0.8066532778361462
Ni 3.9441114942133217 7.623905627199235 1.6641530151533768 0.42745541364547673 -1.2163930193694148 0.8179715310624429
Ni 1.2067561535563551 1.3487662077091729 4.395586400191351 -0.6610370505245068 -0.842963168010774 -0.9921881957195946
Ni 3.9930715220282393 1.540617533072592 4.51851057764292 1.4375929947546402 -1.049488314992644 -1.2774245806604387
Ni 9.25134882536232 1.8086546690544114 0.07056626062782131 -1.5949380804674338 0.02190271361036228 -0.11221142659894867
Ni 7.512970998052096 2.8299415546813496 6.307732438385571 -0.14123018242880195 -0.8263623262292995 0.05673756190136035
Ni 8.946818936552937 3.8084556687556947 9.57999417160074 0.36733068043943834 -0.44783963372878355 0.20909007949556893
Ni 6.948455755023558 8.910363288710453 11.243170398021848 0.16230242971806888 1.3605288054807858 1.5273453210191243
P 7.664776768266406 1.5928799045597548 10.061547306110386 -1.8515699142977082 1.4916285843438055 1.31414533312024
P 4.856087093790433 5.927224526874242 11.161465220872588 -0.9431474882418596 -1.3196171548680886 0.5257124349468624
P 4.036085475983861 0.362118680904983 0.7064779883253772 0.3357549625156863 0.04762531518744701 0.5032067976451785
P 1.6653737691625552 6.436731629519593 0.800439869671653 0.2613168980107693 -0.3005784146145533 -0.12973452308437658
P 3.4178236620649045 3.366859965055591 0.28836139156016055 0.7700019451616996 0.7061383137385194 -0.5659322016988576
P 1.5890395386038292 8.24450505517832 9.658209624903092 -0.13722080415909274 -0.1145264478853705 -1.2921060939320137
P 2.300926506129448 8.329187907380364 4.748567978520037 3.0505678781191268 -0.24457541688637235 -2.316066182746566
P 7.237781876195835 7.566699016449975 -0.07704850152154326 -0.31173725944485026 0.4463265395183668 0.6183112295212062
