# total energy = -381171.1949949502 ev
CRYSTAL
PRIMVEC
9.18233611923402 0.00000000000000 0.00000000000000

0.00000000000000 9.18233611923402 0.00000000000000

0.00000000000000 0.00000000000000 13.43927707525800

PRIMCOORD
 96 1
Ni 7.297679771184236 4.632203777391614 9.436173247185073 0.04231855826255292 -0.6626182789686975 -0.420731721768398
Ni 3.717450298966716 5.961328525136039 8.43302509459102 1.5918833528015102 0.48117192933232616 2.8215360653943087
Ni 8.99895540806933 0.4305487085972774 5.7369581489571955 1.3654905203614354 -0.42829359327605593 -1.2895892410474306
Ni 6.95276369013632 2.435614580783211 1.4759686624508703 0.4477840979004997 -0.33352273075105787 1.1703471328539456
Ni 4.945890734257651 7.840016072729189 1.6764291543435614 -1.658237611857028 -0.8306241868294468 -0.45399665446911486
Ni 0.2829178677095932 0.8015784345322412 2.1783457317673096 2.1361028454136246 1.7028827613702284 -1.5407266274220368
Ni 3.9494511962261645 8.71945428752471 12.632826249779855 0.29834721129118946 -0.2250471170454576 2.8445530951147724
Ni 8.11584425893898 2.2085170508607592 9.16901410423906 -0.45984360016819514 0.29345285931336557 0.18611881541137623
Ni 5.660405015083532 3.926761644372761 0.18017763026218409 -0.07338494065005426 -0.848675645014519 -1.4550903802084552
Ni 2.0632524979182882 2.0984759381892943 3.5434266701825377 0.4850800061374807 0.0162992513806558 -0.34502790317717996
Ni 0.44353895910598246 0.43610861294662423 10.487621404515702 -0.2099089758524385 -0.5880966536110388 -0.20981873013147737
Ni 1.2083035728002367 2.5429469043827395 7.246699442616816 1.1556620200379453 -0.0033244363875426616 -0.7977369491831229
Ni 4.601075658903943 3.3933138439180928 9.24631651671703 0.911450928469527 0.8900953456118865 -0.5403479254718501
Ni 0.12323429280216898 3.8500156814465174 10.978048125106524 -1.4074432106441372 -0.4398021081362877 0.03492997910796565
Ni 6.294500398648339 6.169170696808151 4.079277487925767 -0.6749896560498568 -1.101365720588226 -1.4647039920388194
Ni 1.7037181382177544 7.226535033118607 9.480590042096154 -2.2148351664185215 0.5935291374805197 0.2730593832586782
Ni 1.0648846693610172 1.9101462301709584 12.189302900644794 0.25156907459538613 0.8807007917708639 0.6571469714414812
Ni 3.3673737451783663 8.48680144442083 8.937616486444108 1.2000441456977462 1.0352927402185526 -0.5394650086462645
Ni 7.5903575436550526 1.454087156151129 3.6142114606833537 1.0438532281940538 0.4640085301791622 -0.7835002367584507
Ni 3.820411830707799 0.6103507813237253 4.2111835786924665 -0.5689252228889105 -0.10273151213297146 1.69204479021446
Ni 0.3273879201685304 0.6578757969156561 8.158783616013878 0.1284991080153787 -1.5404597469138954 -0.2319973231110456
Ni 0.23620548883924317 7.620695981260736 6.920260057740254 2.168439095652485 -0.5883882167095287 0.3733804861779441
Ni 5.7394557443048795 5.326342454995034 1.9194112070305636 0.35749338263404234 0.48542993327773176 0.42437934582331427
Ni 4.210532551081617 4.734899021393423 11.877000640022988 -0.2977818257060226 -1.1784592204381188 -2.5656560221283944
P 1.4741230129476188 3.2550095015401226 9.422209669077636 0.2986274615357696 -0.013558712521041166 -0.47659999369092765
Ni 2.3688589992477014 6.523544583768251 13.3138883629177 0.08164383822473681 1.6098659054218596 -1.6365660404208653
P 5.590169328265771 0.34622180920394774 2.854717507759579 -0.5998216553574508 0.6278711052954993 -1.0471735508165383
Ni 2.9871699475085842 0.8447822428792462 6.856288560430545 0.905456401448989 2.41561235517302 1.0383294701623473
P 8.655031019291817 7.6922355597673615 8.987381991980286 -0.5571919936123824 0.8930176614650038 0.6082983253698944
P 2.5173649167406587 3.5164397851573845 5.3599195024504525 -0.45963894035655684 -0.3783234320055162 0.7638449244213683
P 8.07940875033748 4.960554924589454 5.02940775163015 -0.01709757891223507 -0.289224937274947 0.7998401115690548
Ni 6.907503956795395 5.168378731589892 11.812801420784519 -0.8315407851064454 0.13261801527975872 -0.14250827781027717
Ni 1.3882130788559783 9.152392239906794 0.07258544655846637 1.3900769514515479 0.40405760354682674 -0.0001370397984965382
Ni 3.4816295499990466 1.833391084908878 13.249191461076862 -0.7307756526712254 0.11798740985077745 1.030024806951394
Ni 1.9643495586171915 4.58408833760536 3.4367591476976127 1.2277637231002017 -0.4594476502813571 1.7226352614068074
Ni 7.153489551534703 9.224666405280384 10.012059967411517 2.31773354314666 -1.9066344593720195 -1.0779095464478146
Ni 7.138256056381001 7.971479574908542 2.0383077643833 1.8724678407926396 1.4806458600800565 2.964169041707908
Ni 8.117184879971193 0.561879985140576 0.3324363684117523 -0.637953686342482 0.37882299734975405 -0.5499018877088723
Ni 3.2153050813806248 3.8226798676595557 7.657740278728235 -1.6837815217644032 -0.4370697968067892 -1.7944330600753997
Ni 3.854551755350031 7.490196624344278 4.417719103974964 0.23111980560209874 -0.11227647550892922 -0.7594138852332083
Ni 0.18779529607261858 2.8256618424703337 4.89541818886202 -0.2780820332842501 0.7731165795312815 0.3351317271093906
Ni 2.0525826236756113 4.301437675868626 12.722291584307609 -0.639817221913782 -1.871960562138918 0.23974277138441932
Ni 5.440322789740602 7.631531137548482 9.066297740864828 1.2679094420811519 -0.16308533063068043 -0.8102929314712626
Ni 7.964216347261418 3.265357994028502 12.955637693767189 0.4318021206499466 1.260601852676145 1.3853538349442658
Ni 8.444535152562791 3.5544730201945347 7.226594718301547 -2.251540492259355 1.189609066407351 -1.1063354058886754
Ni 5.518464467714081 2.146049620161162 4.0984015387736354 -0.17483527207775698 0.31918728796499224 -0.12706288978948438
Ni 0.9206852673756465 5.213353812519869 5.9624827447507585 -0.4181557335111057 -1.4754249780007493 0.33985227251351147
Ni 4.30493614582255 4.100978102209518 4.185998267958547 -0.17096164805496364 0.4052050868877086 -1.086071770543633
Ni 8.187999053946687 8.169441553219967 12.017575774053467 0.08858735942210551 0.4831807322322388 0.33840885519876557
Ni 5.602069635510616 5.169967275689706 7.510714553772213 0.4139599502622032 -0.9987779331219702 0.6653940419416218
Ni 8.065791346291103 7.181018194374244 5.103968318627171 1.4854461096821772 0.1831828727115039 0.08749875434361705
Ni 9.201894212404445 7.503116170867036 0.8100564852106094 -0.37381423128125296 -0.25926927145312123 1.0496531227052825
Ni 5.883728604976946 1.4451343787099842 13.131087339306864 -0.01616581112658506 0.07588893801883059 0.1895368399539897
Ni 5.361005772779978 0.6905786859993863 11.030837373833847 -1.9016637456303056 0.49828904862858703 1.0997351269633382
Ni 0.08952410147711215 3.460096972461114 2.4693192627067657 -0.33392819371959265 -1.2758230405012736 -0.9186960400677147
Ni 3.4368289334499744 7.824433648813679 6.770694498691699 0.44201762773036773 -1.6222894758971933 -0.6191820621619336
P 1.896602284811278 2.4539425231140055 1.3258723643909325 0.5738211175286311 -0.18424319565521818 -0.36256076985462077
Ni 8.639916894503997 5.8367517748344895 3.012319447132739 -0.16117088721678693 0.6802136234529575 0.23267403746309603
P 6.391970893558853 2.856147197449411 7.64422020744173 0.3288296961507627 0.8787616657666222 1.2968934880183276
Ni 2.8420614942753435 0.2667560384027637 10.879994551870356 -1.0080393038192381 0.16989412602239773 1.22626888372223
P 1.2601470409363422 7.925329154991421 11.714614703678714 0.4353664409624373 -0.7394911781673522 0.08051563815756456
P 5.1789016884591765 9.132484935812023 6.930783014609538 0.16257059577779098 0.23137074527064025 0.016933028309912772
P 7.920453334661936 5.069787991707256 1.0858194768359564 -0.3281761217271638 -0.49744829789484646 0.07507904052302554
Ni 3.5850593808678197 2.607856836414998 11.199190910238633 -1.053745033386469 -0.4517932190598929 -1.0241259249684556
Ni 2.688257369004396 1.4740220072534114 8.987838354071387 -0.16482031104391615 2.329304278703395 0.8403753526789399
Ni 3.4379859077654458 4.68947400600743 1.1636021254782052 0.5117186917709317 -0.5586963460720508 0.35446925109573785
Ni 3.6969828723858837 5.594613578810915 5.9374590431275704 -0.6532301528855782 -0.5449319452981067 0.0435935683202346
Ni 0.45039357280835635 5.095241426647618 8.54914032241871 0.2899080793849007 0.1770289372949661 0.36842519905519777
Ni 1.894031230776898 5.24439010764917 10.556968241224434 1.3651843019749264 -0.9135939429544588 0.3215928120826913
Ni 7.833928184069211 1.6792104838686106 11.499599291250682 0.3939320850770506 -1.3473948392019892 -0.11330183144965003
Ni 3.4277384209712736 0.4629182788901218 1.9645001489249194 -0.8457641277946789 0.5208504788688707 -1.0317818988518166
Ni 4.540701800775198 2.623916741794036 1.875249681055752 -0.011256289640109647 -0.15617754776725362 0.5208463651038127
Ni 6.418296650403738 8.745835138384617 4.69796766665672 -0.4502510713837536 1.3882057025707641 -0.5616556858106907
Ni 4.8387696043823745 6.204899165550196 13.198713406279728 -1.38162779224293 1.6345577517415848 1.306909734603749
Ni 1.6148514919865766 6.676935503926529 4.390006814418682 -0.27270868478747873 2.0432811361951977 -0.40909465175010185
Ni 3.724070763105245 7.061409087760549 11.002721979734318 -2.791337173213425 -1.432551832786307 -1.2087000216005312
Ni 6.7737540529926115 6.972312883133446 0.19566272141782143 1.9170510267196532 -0.6281158743164538 -1.464365120642162
Ni 8.712457347616862 6.293830088132234 10.753315964895702 0.5778798609790371 0.3177369286717108 -1.8153122175172542
Ni 7.10003917462711 3.890941352272345 3.478689366064016 -0.4539981971310116 -0.27509826806557786 -0.6071097043784318
Ni 5.5183542796840355 1.161473660031172 8.834214202582846 -0.6298431414202056 0.2852615817518248 -1.9011610949622744
Ni 6.163725571656768 3.839198889830447 5.693227274533142 1.143883282235462 1.537145852049314 -0.5604536950827896
Ni 2.2199766059854245 7.511903666263113 2.0241568666247893 0.26145368069894975 0.3188121640137606 0.5654832870868971
Ni 7.26477946188001 8.701080433514731 7.355275972722267 -0.29025749230451947 0.3280416530318286 0.1324364953965719
Ni 7.2061686122319815 1.5854404703004368 5.926008670338742 -1.7122189511694899 1.4878513766895602 1.3646880790647982
Ni 9.185274184539349 5.634722021747242 12.880820939600314 0.01919791308468952 -0.5385424968319951 -0.16299585624066767
Ni 5.659734704567425 7.074007252529012 5.924060178674115 -0.2505421759927685 -0.3564911666217731 3.6349755129143526
Ni 4.726561460453361 2.1829534278903524 6.409997655274192 0.11447991091815123 -0.19442964926991677 -0.10582403501536612
Ni 5.668081447843322 7.64486388918391 11.499048351100457 3.7721515798784386 -0.15319866764458778 0.471734180958194
P 8.6653060530935 8.830018793338889 3.5398648421113377 -0.6297834918268639 -3.0785430231758144 2.329683002199052
Ni 7.611054528631811 6.3025900365208 7.646087894550991 -0.07023559638779517 -0.3195351582227142 -0.27688364210077476
P 5.492065252182499 5.6379725686335656 10.04600706300117 -0.6859422984066187 -0.16374379015028573 0.46052031452024556
Ni 5.991731239092582 2.95909036451882 10.883825422381582 0.8565488771150087 0.44991194287678 1.6789445053870762
P 1.8342450421417256 8.884424133173537 5.80782374401338 -1.8402519181817276 -2.039877766940603 -2.900112063326999
P 2.0176713828230657 6.251591343281705 7.492759414276404 -1.8962626292193925 -0.1259298046263057 -1.2669175104815278
P 3.8319081151758123 6.148179877084606 2.7781000975350545 -0.40268360601743547 -0.7500820663093211 0.1156235376042912
Ni 1.2430678962793893 5.3498675994096105 1.5622890469544284 -1.1363448077665719 0.7146319530318274 -2.010580560638383
