# total energy = -340893.2201302805 ev
CRYSTAL
PRIMVEC
9.07035564594544 0.00000000000000 0.00000000000000

0.00000000000000 9.07035564594544 0.00000000000000

0.00000000000000 0.00000000000000 13.27538233344567

PRIMCOORD
 96 1
Ni 6.474737282343072 2.027369599977858 11.38346769474065 0.14379537205281687 -0.0892465902726592 0.48518079338140313
Ni 4.63462517351369 0.31800938808006446 6.148466614391947 0.15400985069197348 -0.249473368408622 -0.6570610965958942
Ni 2.7755378807907465 1.4600007171336096 4.720871556673506 -0.473573548159778 -0.4137784303790164 0.4784933540588985
Ni 3.7804969987024246 4.719813953211753 5.485613191219818 0.22277863272625506 -1.8022296733016834 -0.6014216528547189
Ni 5.195717370289896 4.277044545102628 2.882311385685516 0.5556729858646946 0.6537322893329773 -0.23336874953727554
Ni 7.100256214872614 5.946044395733123 2.7193025831704296 0.11105751550016357 1.2582937733682587 -0.563471655973507
Ni 4.956069505255559 4.78715227310937 11.181880855831633 1.2159340774551253 -0.6567453651276882 0.32523992191697537
Ni 5.4802997769153965 7.648014988932023 12.55175489168417 -0.1265088170582273 1.8517763738815591 -0.8971046870501839
Ni 1.976720734365211 6.476759971639566 0.37739935537446406 0.07092953713102623 -0.3471809449644408 -0.7616993388332753
Ni 2.960536853397398 1.907332514104332 0.35396518467302523 0.24692309118294248 0.2706883119233403 -0.5053986630901748
Ni 0.5052006656327365 0.04520846632997029 5.099432824599006 1.154239942879438 -0.014588182226820037 -0.8365199834885916
Ni 8.617454594354603 2.3822472624232027 1.3707094156023456 0.2951287043538917 0.20924126036145255 0.5530494321989186
Ni 6.83508436920898 0.41660324630408113 4.528180015491267 -0.6888425027725492 0.4882200944283592 0.8339738200279702
Ni 0.5562395565357385 7.284048830185841 2.146815298666938 -0.8221580583399647 -0.3374457199545479 1.0870649876948375
Ni 7.714618610026877 3.750909498768962 3.5786979134726096 -1.0410327280261231 -0.5485700562713262 0.8282855113939414
Ni 7.720831803605791 3.8738672391423576 12.585062144444953 0.8590346196513399 0.24452810858820467 -0.08826699996820928
Ni 7.9999357154551385 8.93227756651602 7.015641588683377 0.000851035146385631 -0.5474629392500765 0.04448985488225886
Ni 6.877842025458625 0.8192508434979154 0.37914358475435517 -0.40803252903417464 -0.8870758420592723 -0.7313209836517341
Ni 1.651684541809839 6.6310557905752265 9.263163231391163 0.5226502510817709 -0.18748869917570934 -0.4643530580027745
Ni 0.03570182663645039 4.9850311506533345 1.5152790922392174 -0.21020670959851542 -1.3576913360319907 -1.5592923062393662
Ni 6.470138612059116 1.8050098326974073 6.866280043188489 -0.19504619980799312 -0.14216863508267127 -0.08073366770564161
Ni 3.5420645613171016 4.488810137054359 0.9358874530608786 0.5171555465157868 -0.3446018713833549 -0.7532877177308124
Ni 6.008938241391807 5.735439809296868 4.882898039678233 0.3725081108753197 -1.3250689220112792 0.5525485813031
Ni 5.524436127214669 3.0301064807700704 8.964905449643135 -0.692857280358897 0.1430420388265601 0.4839677469099084
P 0.2751800760212613 5.6392396179129625 12.397401929508293 -0.8003910989765183 0.29580619003689057 0.7257018376927437
P 4.025451021756711 6.059859217672144 12.653549678395777 -0.9565377935058366 -0.49634658019023553 0.4082114778142002
P 2.2145454579260275 8.41028767268683 1.4795944992783874 1.163745311266712 0.3574314190478554 -1.2383587250072285
P 6.406809389332128 7.687280558279649 5.672783606954633 -1.326486371184096 0.8949249057900458 1.241656936142526
P 4.931516052674356 0.9581107312910981 12.554197538444464 -0.6272956924080035 0.9041749636334041 0.9148609825923405
P 3.886801566213209 6.180177484568948 8.370951354565602 -0.04086691341769091 -0.5083770289922084 -0.5051364105677236
P 4.689791076209987 0.8456646260105567 3.6504380769378866 -0.22638794734406817 -0.6433190644194533 -0.09580316044425437
P 0.06277955917825455 5.59298080440571 3.6001248144820575 0.5461614468298335 0.2270024409996155 1.0629439262769178
Ni 1.5418878873970365 1.222765566686121 2.4064415289230547 -0.56686448370514 -0.11049110147373228 1.0290619288174923
Ni 1.891296125421818 6.186780703438219 4.941907052037868 0.03526705073241023 0.7568234987982126 0.34717708830969884
Ni 6.43719508055748 5.719194802435792 9.200915195050463 -1.0421285321934635 -1.141557719426079 -0.07932881693831499
Ni 8.654579559783071 2.435662586490695 10.218566461538748 0.11195251651060721 -0.911906785060023 0.25994418603295877
Ni 2.2923509681741083 5.081385538082265 7.252540228938489 -0.9761928487326026 0.6615633553416219 0.19282759489011952
Ni 0.8393344248445348 9.031343990266258 9.244100065048379 -0.9956756400475628 -0.08491710965936988 -0.05244664783549033
Ni 1.4761278093720205 1.282385013976939 11.430727875505001 0.02382229923057833 0.07456739099392964 0.940818582998367
Ni 4.147039138436069 6.85069445117878 1.579093578990252 -0.32990210327933506 -0.15580910868424136 0.3329123508605686
Ni 5.696156099238062 7.796260880689382 8.042877499923254 -0.21627554150041464 0.718562398434485 -0.4724654026972638
Ni 5.07253287102676 2.619727312471612 4.7491483902242635 0.37754027398258844 0.6551042299798394 0.822452706762248
Ni 0.7559588092288453 7.2370008957422876 6.885595365416664 0.8696548183693473 0.5474637105810249 0.5042336962477961
Ni 5.307455080798885 4.714480584125035 7.309571903779577 0.17912952857773667 0.23363125917004282 -0.43184660073463693
Ni 8.210712638647596 7.183621853097155 9.259273862914316 0.8829314808735955 1.0628948182065372 0.10122638834235469
Ni 4.674262627440493 0.2858622337992008 10.430640445580526 -1.0234926622598308 -0.44736346542331334 0.38514174047893024
Ni 8.296463780392218 7.24886492085356 4.846656526884199 0.39823971131346897 -0.8346081111778594 -1.2612104327944214
Ni 7.556440678898842 6.377557492555483 7.003547176540128 -1.0454966773347478 -0.803895512585351 0.06722329192403262
Ni 2.192694971310543 5.503383831891074 2.663678627516856 -0.10347250406405405 -0.6151585428248373 0.0831582179867342
Ni 2.2242325976957815 5.493134330074761 11.326529444562134 0.835801103044696 -0.3885227411360212 -0.1772240840249077
Ni 0.8985175880314902 3.3498274449499026 3.8907625904992127 1.893702324691384 -0.0782029308639879 -0.6466748682655636
Ni 3.681294519618342 2.5906840338735293 2.6651389547667907 -0.30331278282658086 -0.5070200007436816 -0.14337139714152083
Ni 1.1012046610735329 3.2252551812815486 8.324793222005395 -0.7438294005313898 0.36328402117389047 -0.6159018487487651
Ni 3.5634524597975132 2.7479458590870083 7.318678540791593 0.45913346147504797 -0.07333454702809306 -0.6648330272318292
Ni 4.184817169466991 6.905642665340925 6.319175241767094 -0.1572772085893356 0.21549161214653853 -0.6949671276130482
Ni 0.9435346698585187 7.613420652713069 11.54194948278094 -0.5375189406634872 -0.10386074064140823 0.3483363987251227
P 9.1173400316118 5.3844351886883075 8.118705672652789 1.4386887989219805 0.4598618550006403 -0.016833783727887137
P 8.557227433239278 1.601598038243751 8.152107257111703 -0.0748368426052324 -0.11583745338731018 -0.4934705441940211
P 1.8062706121243697 3.268194244642987 10.429073995170192 -0.37051422037374254 0.2551948442734315 1.2577440715123758
P 4.014793353938865 5.923939939161127 3.778292902294138 -0.5635284773533714 0.4692597512757725 -0.5578219138868974
P 6.955602183928758 3.889858276046924 10.310073650940566 0.008277409517443808 0.9083440074094292 0.6383632630760748
P 6.17593255815299 7.754627948532855 10.137852088253064 1.8324581331689216 0.15421913848930213 1.336629630265685
P 2.6005435103994867 8.43724476949929 5.900522095099751 -1.6421453342808556 0.0419010111091601 -0.5389057937086847
P 6.9575160289581754 3.867835452675236 1.4993216156503333 -0.09997040444806653 1.0539337523585073 -0.040880283154129594
Ni 5.46537904197041 3.137762531263714 0.15071937772665972 -0.9637955035095144 -0.5821808023472361 -0.25171279926210194
Ni 1.5260329058263153 0.9837526265430595 7.186123457168782 -0.1910206235883678 0.7127043969918113 -1.1668051811389581
Ni 6.643001448886806 0.9423373829206839 9.298250087918634 1.5814166489422312 -1.3858189475061424 -0.9825910389494626
Ni 2.719646349647278 1.631747900223772 9.312361747145022 0.9003224226565334 -0.9399485216885877 -0.024114376549700403
Ni 6.211016693573784 1.9069424888139768 2.397879113246418 0.3870777811593785 0.1785731418536344 0.5784028233620425
Ni 4.078050013821135 6.848835028282901 10.423060349414252 -0.010762894943458882 1.0525798094337744 -0.23311832408936625
Ni 7.882447399502307 7.234053030175649 0.0869856171403732 1.5307198939183122 0.8129874475842901 0.9838079420756992
Ni 7.683253320397841 3.7148276242333056 7.7232989403261785 0.4268697163453358 0.42289016287229747 0.7787033295904395
Ni 3.104365481982595 8.66249798021284 12.6892741809212 -0.0474201411551764 -0.32664734378746324 -0.5600993970671644
Ni -0.015204637074942656 4.789428932362373 10.320892771087909 -0.07781418006600146 0.45307311421358104 -0.14385759274932
Ni 8.792077080166687 2.2048764588674525 5.6549014009096235 -0.6710085599149217 0.6954378966018797 1.0795316554322698
Ni 3.9830833907974226 2.6593738367540043 11.255479535157232 -0.6428076720006736 -0.7055315333924559 0.6884264982810531
Ni 1.5482824880877448 3.6572127255278017 12.64512059694631 -1.0805953208100938 -0.41208793005047095 0.6970404652023092
Ni 3.0527551586774444 8.438097382924717 8.092766269737487 0.9814209299007614 -0.626441057717192 0.6286684043858141
Ni 5.221304843408319 7.715462153096715 3.7029155262374083 0.376645530082461 0.9466819837576793 -0.2878439977670204
Ni 2.5874640576392007 8.17938363044092 3.550607022211441 0.7868028187691223 -0.09121117019819776 0.9424453199685123
Ni 3.3770203710076956 4.184173174220126 9.378460149433533 0.5007853326878795 1.0371984418816975 -0.7276425063588823
Ni 7.161082019456856 6.220640340854411 11.464208372057543 0.49248195502850667 -0.6126355192926674 -0.8510120064571796
Ni 0.41411796887251506 0.037936762253741964 0.4869619946130534 0.033280102209368494 0.13729665170235064 -0.9611225846630415
Ni 4.329607255744692 0.23039519529732802 1.451995221290178 0.7607315756033672 0.11155682373408528 0.6243535790605441
Ni 6.101845893696668 5.718487314699798 0.42057243391011523 -0.5184981765866102 -1.9630902283669032 0.299412162220594
Ni 8.224563071633003 0.004302069656174493 11.124996120751096 -1.023042976316922 0.03221669394186064 0.28687623453711236
Ni 9.095026956861243 4.781737270822344 5.793549042382009 -0.0822318495177229 -0.4020320884763657 0.08963251285716822
Ni 7.879535815358026 8.772022523957954 2.4158275328872323 -0.3477926104065107 0.26068337819182846 -0.0003478702577219815
P 8.513626233919794 1.4438645545396092 3.594734302155124 0.7556266502766341 0.6298634531351797 -0.41337528140332674
P 1.8457538700061482 3.3340631669350786 1.7646830317457907 -0.7751850320245359 0.3978890128422696 -0.8391800468192581
P 4.732575943526401 1.0425194604084496 8.220130388856338 -0.11828514359685435 0.28128382805099944 0.0013004639789784055
P 8.643178122806871 1.6993220493667194 12.547546246690569 -0.242753276075969 0.13051356734224617 -0.8141403302418109
P 6.182880450534666 7.759934106552805 1.4231206513060628 0.3825346418733863 0.07426528637247855 0.5169943383475741
P 2.0894561839890624 3.2937091549166926 5.84886823408777 -1.2204057400732338 -0.22262668052942303 -0.12877498738458468
P 6.7093420296695605 3.7025282220537297 5.751227670236226 0.3821708307760644 0.5494298331684603 -0.3658926624413312
P 2.5625296501232326 8.57964935225691 10.495344734214907 -0.3359825051454601 0.19350996566912482 -0.656102846447683
