# total energy = -381172.90350318357 ev
CRYSTAL
PRIMVEC
9.20794942365213 0.00000000000000 0.00000000000000

0.00000000000000 9.20794942365213 0.00000000000000

0.00000000000000 0.00000000000000 13.47676473530786

PRIMCOORD
 96 1
Ni 3.0543321305109865 8.048723994357765 0.6706177318612093 -0.47761660788089993 1.2203923703367952 0.08599928697995513
Ni 6.73314740299485 3.1986667405143017 10.581901830938884 -0.787275901750799 1.0849852223476733 -0.30815159897612093
Ni 2.5944595035639 4.638292828908455 2.470924730915385 -1.2460591789752797 2.6582139361624733 -0.1378635799494142
Ni 5.1387725135981 3.934105675185102 12.387275964658757 0.7714811008103873 0.5596543391099458 1.8333659896951717
Ni 0.7125590215010243 3.4511763424358914 3.4054837341284303 0.9517923084010513 -0.6263441271280117 0.9739978979638129
Ni 0.08782910647882762 7.663923780511603 11.08961251845058 -0.8721855552110012 1.2637622526819978 -1.9758395576127714
Ni 2.042498172652338 1.067275022409204 0.03397088846476754 -0.19156903989267007 0.6372674589087347 -0.687974241234983
Ni 8.807311714326703 3.5031736338354906 12.30155087466387 -1.310208202849363 0.12230249228636357 -0.9161773874109189
Ni 9.198133927212234 0.8246133225864052 12.151499969547952 0.18973610044898936 -0.3037897224629994 0.22168925631681818
Ni 4.3450932976978915 6.000166990867647 6.322772109130559 0.0523682291890711 -1.32247545025249 0.6449807683925924
Ni 6.972572508532726 4.338610901178445 1.0949992378643223 0.8180946869038684 -0.47821053271115704 -0.054388859163525684
Ni 5.537799009578557 4.66742678144756 7.803787930983398 1.453544118767258 -0.28130491109692196 0.22061736340887814
Ni 3.8009863477963983 7.424185604687278 10.362446005701754 1.2175780408164516 -2.0489522184380453 -1.7053697894581403
Ni 2.5167536168769478 8.25045175422715 11.868703579797149 -1.2217141744720121 1.0827213660141612 0.8484491308260098
Ni 9.085097137904375 6.820475597015357 6.231939369491727 0.4546180901031977 0.6477513891591942 -0.12332759111676825
Ni 1.9420486504497119 5.994890835745994 6.606404580705177 1.4387983279166512 -0.7759159966532895 2.114018097699443
Ni 3.482290004139317 0.4261770561754032 9.89899424874457 -1.105878777967231 1.730875904149045 0.47424460608487357
Ni 3.3051382617563005 3.4002563811396658 0.7082515426774485 0.49017361861030423 -2.6137539060768855 0.45675082017548435
Ni 1.7658545348252501 5.865546767693901 9.451902255844349 -0.1501773643197607 0.7141490998581378 -0.5629936878958239
Ni 1.2549146193883145 7.7461139386544815 2.213895867329385 -0.12212585749918323 -0.5921631103709286 -1.0944425111058314
Ni 2.0245242550302347 3.4388837297179053 9.942873811775499 1.1140638848811844 0.39714776380087086 1.1326771291069975
Ni 6.738432766066103 1.573316308658148 5.067937598903777 0.47408699746108673 0.9158053487834807 -0.7414436739080328
Ni 0.5688726511496537 3.3977334029488584 0.7548778370745004 1.4083945188138132 -0.11596549432474221 1.9337948218368954
Ni 6.9005571346994925 5.599483063958922 9.830127993675045 -0.5553125172014823 -0.29705188951853356 -0.9367035323887287
P 0.3903341915566532 1.1829729091518935 4.75731110227744 -0.10073659319012974 0.04859847773399372 0.14027013250837778
Ni 2.951700324252808 7.799363511199883 6.0698674861710655 0.6220742961080641 1.778779412698543 -0.9871868858502612
P 4.7886033982031355 8.020142518794747 12.77963866751262 -1.2444995477976437 2.333347338424517 -0.37888161850183133
Ni 2.1940333992440166 2.130139436959295 5.778675287973628 0.10267237676026189 0.19136823673577363 -1.056268056918639
P 5.685697096077648 1.1508371650427023 10.217422641068248 -0.8853925408195784 1.148649593275854 -0.0049190345681721735
P 3.0237156980860407 5.781542643479531 11.481220169437117 -0.9874005445229638 -0.6801580876246738 -1.108364777613878
P 0.2131640332744338 7.672956779070663 8.722405211051388 -0.1877290973212896 -0.27708341681640664 -0.6948563130667968
Ni 8.047002107782285 0.6634557886611725 3.097755900036641 -0.31226870646828797 0.1745938454909122 2.1822148092803384
Ni 6.731950369546657 5.944679886569084 3.4247421607199415 -2.1243732156815223 0.021981389367097627 -1.0833152908444181
Ni 6.161729674575344 7.336986321961192 11.104706189437335 -0.5009632530266405 0.1687798099122964 -0.6965990067895165
Ni 0.9669636194505999 0.32360418079467396 9.599957798281626 0.4564960238522009 -0.7511691287259128 0.4426048676924055
Ni 2.0730685653292764 1.8744346765259898 8.116745880448832 0.5872703010550014 -0.6684248583481456 -0.05720447423544987
Ni 1.2680451555200358 6.004126409196287 4.384247340993336 1.1461947039774583 -0.3284949385191633 -1.0277619790591461
Ni 7.015518385474063 7.4623893875838485 7.754368865472214 0.6506446515465891 0.5877433840366781 1.0860542870421361
Ni 6.925547509917929 1.4813565159880933 11.996436256668984 -0.6513918141252588 0.8516840928235396 1.77875704410104
Ni 0.8351582664700286 5.733596849904585 11.729785085749429 1.0583989872187127 -1.1012358798785808 1.2881298828930847
Ni 5.470212659503639 1.7023841382221974 2.979860996519037 1.4388335520299607 2.0493895630857804 0.1229925763748527
Ni 3.660215214288859 0.9034490246894601 1.8834050610277588 -1.0526682553825224 -0.4661451169061907 -0.08755943237822339
Ni 5.852572766705405 6.37837431279914 13.244519498247953 0.7463583376008308 -3.0017061194214176 0.3553848209314718
Ni 3.3769142288998952 2.8326599518047786 3.4009018584067303 -0.02620082676508391 -0.7194131764705546 1.2769939208809233
Ni 1.1613342275883982 1.2779068695432287 2.296724136379645 -0.012912337186293891 -0.2885507940260579 0.3347504325105719
Ni 6.7896013420015695 6.12765105310024 5.944304202225342 -1.2076062743157203 0.007154865877226388 -0.8316793675668387
Ni 5.95214753369589 8.789439084150215 3.9439618644385344 0.21121715314090075 -1.7055263696406628 -0.6523408083020894
Ni -0.10186570485133503 2.2503768428555184 6.869471096844871 0.17444420728692536 -0.9137253263260006 -0.544042600714618
Ni 7.412224478154945 7.087837621644145 1.4394124639633978 -0.806496697653624 2.644661908509652 2.105292544900987
Ni 7.514119648445005 3.3156537402011996 8.422533599559587 0.012630030059184701 -1.6418583991680562 1.333630181317729
Ni 5.192915257254846 8.191161766743173 6.107211246574859 1.7542852842119205 -0.10521879733119942 0.3021079638852023
Ni 8.856832067283502 5.449734179589932 2.33699234157687 -0.03893627205388133 -1.4816246790535579 1.412269171277871
Ni 2.285063189004321 3.7556464039586746 12.277238204536104 -1.0654448383219006 0.22827256596129072 -0.22360138573786653
Ni 7.251195855524133 3.683308751889389 6.3023958374574285 -0.8074747452961771 -0.07559891758223755 -2.1772127280800566
Ni 0.49189143009633846 7.941405341752428 13.29028669094719 0.5964676512835535 -0.31194551880091437 1.0239181798330237
Ni 8.828195344022877 4.5328525980218215 10.163165718836444 1.1101290686031524 0.08367192439835913 -1.0047228378514956
P 1.1402572309505932 4.009003137243601 8.227443850557913 -2.0668728074722083 0.6123334146712164 -1.6111306310668962
Ni 4.512650356596159 1.2229538263215518 13.09177434707864 0.5561044169751583 -0.9306169598750166 0.6357613066768535
P 3.7802592532434502 8.217293927712193 3.111704102092974 -1.1293341807766937 1.7088114681498379 0.26719264006525595
Ni 7.49835563872726 9.189285087645207 10.365020548410332 0.6263747232556309 -0.5317429574116583 -0.535951081955735
P 8.72056362113109 8.984104346675261 1.3713684787932863 0.11051886938787418 -0.41127391878960784 -0.8619533359600317
P 3.9844271197572305 0.5889340109464144 6.950250597108799 -0.8812692626798242 0.8103045014354884 0.6458983951108553
P 5.11759422951468 6.477451850511145 8.80803637996034 0.11634627470292866 0.18093727121043676 -0.19399281884281427
Ni 1.710708124661942 8.497675993077486 4.300718346978403 -0.152489300282389 1.1085812645000586 0.2672700302704107
Ni 8.33359033117898 5.10082655329037 4.624269121665389 0.08777309105092626 -1.0183535412610525 0.15146008768692626
Ni 8.245543917089558 0.5391171620124472 8.201649621339266 0.09421576135247645 -0.7616453456668884 -0.07612933616441082
Ni 4.87412683410175 7.088933367646722 1.6804848716849798 0.8049730619202459 -0.9350040331991187 1.0362350495271637
Ni 4.749994465524098 2.488208973112337 8.534309820567003 0.2031773135555598 -1.096531532424376 1.9237194398787647
Ni 4.894144916535383 2.861655785099862 6.299605828728177 -0.5196670000837308 -0.4917314500157273 -0.9301101954419272
Ni 4.055512490680714 0.8040722286154072 4.713848659363459 -0.5252516932603599 -0.2544793062636456 0.13206651365166286
Ni 3.9094375782027173 2.4171696419368613 11.220417888104429 0.9873095274710545 -0.5295618905999395 -1.6385159650583845
Ni 1.0363547276474092 9.024886355460248 6.7547833221734646 -1.1378375902620144 0.6332207996431869 -0.37278784689926764
Ni 5.267195786690045 8.621578162915101 8.918667132037331 0.7665944621420475 0.4868725792615293 -1.1065102409036427
Ni 8.241188556928053 5.364680349120992 7.7384796276398875 0.857685304712297 -0.15988687829804077 0.9615149350054538
Ni 2.5107960734847854 8.116089353642247 8.314315330278186 0.10970640078890782 -0.4775466738749131 0.5360621536123026
Ni 7.840320471027299 8.540511374623605 5.598774051839607 -0.8504106254277548 1.8478726679517787 -0.07732027114871846
Ni 6.108222279441101 9.214211007216432 1.5798677647996064 0.18620109071253738 0.29861897689533734 -0.8545814689759927
Ni 3.193878606721528 5.735116161588831 0.06821249064781881 0.3355158499216867 -0.10514860621489634 1.4771046796960172
Ni 5.453822509212992 3.889971972745173 4.2862443709998255 0.12439665581123091 0.6400753606711751 -0.06060115862182466
Ni 8.414472960478445 5.830639430754661 0.10581223205053256 1.1668002960429518 -1.0462158148889595 -3.100930903952711
Ni 9.02624913200127 2.2142264327200785 10.243163464179206 -0.6607148912983977 -0.19780010840404644 -0.5476035785929988
Ni 3.244236883092063 4.072169671509805 7.710043637680575 -0.5691643354829101 0.5568343531626475 -0.5349720058719173
Ni 7.6994204262253385 3.1153532125200436 3.272967527438624 -1.3082119983549405 0.3978288490282955 -0.3215138792156398
Ni 7.940677913733911 1.8075665465199882 0.9363342958962123 -0.02494124332636995 0.17232587539234193 -0.5335373303079198
Ni 4.483019174778572 4.748530401537462 10.235414053794594 -0.367787822581515 0.0454794724890378 -0.8552401856059142
Ni 4.875673769634799 4.537217166132927 1.8935660334130004 0.343054324390577 0.6125406455860161 0.7587340855573642
Ni 4.396749894962236 6.394801294888194 4.036061617942532 0.04814982023234934 -0.34917894923107606 -0.27534586530000965
Ni 7.0084098483817145 8.521837652831788 12.860054453767289 1.2325426325460838 0.37834631482365166 0.6500296436704095
P 1.1664078078188176 5.50370197220425 0.9782728231511468 1.6150623620211348 0.6379606283210174 -1.268413121190448
Ni 6.238791004790193 1.0165852598530158 7.180730179608831 -0.09965724408302191 -0.018330422878071656 0.6946781356177197
P 1.8750516091492895 1.6585635060687187 11.15041905523392 -0.24704701835531648 -1.0336066107653812 1.319629753273579
Ni 0.5935582432362815 4.334780394144226 6.125580185234866 0.2530880823430738 -1.4109928756686088 -0.11325940824748883
P 3.0644608750726223 4.724258246387941 4.7270427303474305 0.2531233064563834 -0.6021665014405435 0.30254530853293704
P 7.114282852899617 5.122502066652271 11.973930186253028 -0.13433319819865253 -1.0337665333820132 -0.9711930815251661
P 5.835630139438668 2.5426463711563305 0.7760570419528816 -0.7819334064919631 -0.5851794799642438 0.12100768473434
Ni 8.648364088305827 7.311286934623441 3.6621765075539754 -0.8720174050642531 1.4719177361784392 0.6959197213343047
