# total energy = -381170.63573720114 ev
CRYSTAL
PRIMVEC
9.20956529813528 0.00000000000000 0.00000000000000
0.00000000000000 9.20956529813528 0.00000000000000
0.00000000000000 0.00000000000000 13.47912973094570
PRIMCOORD
 96 1
Ni 6.456724842133646 2.8714503273177154 3.5534757281641376 0.19853235858438065 -0.4529165340310587 -2.0689420312964115
Ni 5.027004314971826 0.13742144778249468 10.879140543157877 1.8405756200697334 0.09394322441738014 0.7820935862189111
Ni 5.649092023716997 3.659558867553815 7.783766085196135 0.3427043972503259 -2.327988130995133 -0.3381792556864627
Ni 7.436963331144569 0.613100094086493 6.288984584823704 -1.9144809519996318 0.06452260516341791 -0.5443822434422237
Ni 5.8919390479353515 7.010348643334381 13.225358316810235 -1.317664402017092 0.43483242283583823 0.1782630668123833
Ni 3.7082866769185734 8.223975933124308 12.916901429296571 -1.211493010964636 -0.4150855792262142 -0.18299955305610419
Ni 1.0134942288741138 8.7557362265889 11.394838433992893 1.3110417544942519 1.9801050177573447 -1.0183198598096397
Ni 5.086249447771578 -0.1290610045125405 7.074952822112087 0.0863155326687933 0.5026496395901279 -0.6106403432395097
Ni 3.416822358117614 3.919775131700715 3.3083714395202866 -0.6016381397408993 -0.09919418840367433 -0.8371573599622743
Ni 0.44206557531184276 0.37226628081637797 1.9108420264869062 -1.7207354732809335 0.019162946081696032 -1.0654846904209005
Ni 6.99606460774097 6.678417495134679 11.234476880304772 0.882110527634197 -1.194793181711452 -1.3399234705256085
Ni 2.5674702094378095 4.703398613694397 5.282888399658287 -1.0706412949211754 0.3943128654552371 1.3902373882888124
Ni 0.19672920562546792 6.157791565972109 10.147951720513705 -0.038891534858874956 -0.08090901694124131 -0.08709791936077257
Ni 3.358820516617094 3.3103137368166444 9.124697194462353 1.3909485554232237 0.5667922357063077 1.2278436844085179
Ni 8.831429642799247 1.0816081729417293 4.367251326555517 -0.4485348600235952 -1.1534652694969425 0.2330802717625792
Ni 5.825335472557175 5.775456467544979 7.788820294566648 1.585496732548876 3.080439983088211 0.32222658901194823
Ni 5.661414421927174 4.567391755123473 13.259986281885173 -0.325017264383208 -0.9532683787259455 0.6473269000272658
Ni 6.176339630243631 1.991365859633904 9.623774583017918 -0.6137297807981107 -0.5354324904481037 -0.7198651764063086
Ni 5.324289078966232 7.697796636158497 9.027701133035293 -0.3248036057105051 0.3942802124450887 -0.2207952837476391
Ni 6.439116153510434 1.8727098218611677 11.960652015665222 -0.3691823889361964 -0.252914532879687 0.2607713099199444
Ni 9.101969829512372 2.7309492009391945 2.8406995891833495 0.6975590567099406 0.0019283273709644207 -0.055819678072781286
Ni 2.401348072729907 1.6612121575138463 8.007412086971742 -1.3118886758755794 -1.9747866908682246 -0.24573652707400903
Ni 2.618647763140316 3.851154661548227 0.32092479685367614 1.1159356479826006 1.247224917148607 -0.2756070893811963
Ni 0.5598688073489569 2.928531212300284 0.44713083616057026 -1.735918351668959 0.5507603790544257 -0.14257204116867706
P 4.66260944951437 1.720715158138625 7.923315863491614 -0.15458089270409506 0.5065451179897921 1.1564379789720214
Ni 7.800492497475151 4.81615132018707 3.6401736538074756 1.672391020539275 0.7743159991560212 1.9980042666352686
P 7.558373028905978 8.500557594595188 12.837118966146523 0.5905456293721636 -0.5066243079671597 0.46209742919937835
Ni 7.620058696478298 1.490770734736756 1.0789245056484216 -1.814031808142934 0.7348076566487539 2.3470932272556997
P 1.1068055432728534 4.360544921191802 3.5513593700858883 -0.3298802489024641 -1.2304983484225454 1.5831344029642862
P 6.538247913102621 7.610793873907718 6.579082204152026 -0.11619406539578053 -0.21074227038701127 -0.28863718309227715
P 1.9931893535394458 9.66239949938076 13.817186157245109 -1.1570910391749878 -0.42727543642418675 -0.46477471892122535
Ni 7.515051234301588 8.680650641680398 2.827045487848216 -1.0283281359752612 0.35039996612237073 0.0844126592191256
Ni 5.33901517368826 8.00663940445318 1.7481080888085432 1.3965095944507693 -0.40483022004679314 1.8951578261909876
Ni 1.785808364827363 7.617461599097679 1.6809685167369195 1.093422811592065 1.1047104686907425 0.7637276821172138
Ni 2.9735844051584204 0.43943348158354034 5.844914087172284 0.1741775838891 -0.7433645450798294 -0.7831976179163673
Ni 7.6858426205554995 5.768604551051427 13.571192224604916 0.08410721216356482 -2.380687518271378 -1.7722683510529027
Ni 3.6581129658206324 7.940358163856287 3.7435049751215166 0.30835677300839154 -0.12816589304567605 0.5439880933275986
Ni 8.910125377258112 5.381646250904186 7.650376585049227 -1.7512141014857645 0.6662486766324333 2.8399652186337736
Ni 7.865788314597839 -0.3803476742613932 10.760280973994673 0.03793019938687016 1.110807068506784 -0.549211546510067
Ni 3.592098802613944 0.04261634191163923 1.8503747843878333 -0.34190992637348855 1.70008668668233 -1.2453148446100875
Ni 8.230919945269655 1.0732643068890981 8.47482791139669 -0.6734781045013368 -0.12824379747146303 0.7967681575119503
Ni 6.275213522010792 4.075094448453059 10.963802233940026 -0.060019060866109544 0.6647715778662745 -0.781417643197809
Ni 7.851163525092785 3.6684645170823957 8.783566611604844 0.5880143783098777 -3.629183331712608 -0.4103169541929772
Ni 3.7364034794116003 5.163692681366031 7.65966351057624 -2.146405512891213 0.25581859390035944 -0.9092125260573115
Ni 6.577167535551206 6.057075761169048 2.2131791579387885 -0.4548140081640876 1.0250306961709121 -1.0311671480859532
Ni 0.13781838004173133 2.2159411065361216 6.673261059590675 -0.7965961507104603 0.5180245793843015 0.7860548848595044
Ni 4.196872528821647 5.987175161456609 1.6490500057377928 -0.9973951938418307 -0.6616985953679055 -0.2158970751150733
Ni 2.1336720607876076 6.190384217142376 3.539740582655425 0.5735547512411219 0.2743552192519662 -0.047946960192923875
Ni 0.9903598011431984 7.7122188152296 8.557643084360347 -1.7302922637314329 1.9758369865096101 2.674488504952781
Ni 0.18338270376732999 7.070385798739571 12.538879170243002 -0.548621735444868 -0.9847366245375556 0.16434645673129114
Ni 1.7852465813514131 4.986951916006161 11.792108684271627 -0.8484745847473065 -0.13064186538999437 -0.4374606044873046
Ni 1.6879935730558455 2.3154596678658477 11.822422889016485 -1.8692624464814644 1.0894424867880785 0.0019429826589837506
Ni 8.769200610881335 1.1711067273561542 12.781921437243163 1.60236856860355 -1.7049748680125667 -1.4469124723833533
Ni 5.547400005004908 0.029185112053849833 4.5479531258990935 0.5814182131495986 0.650492442239441 -0.002386755064621696
Ni 8.573156596905221 2.084667964467464 10.6980077361639 -0.484264709325037 -1.8555468966675848 -1.0991520007663584
Ni 8.749805266613297 6.968030691334557 1.4584009550438337 -0.9349677806445447 3.7990139514869212 0.32739399214550063
P 5.332282981542042 4.805219566318998 3.4280257941584815 0.4560406814823372 0.5243554066983357 0.048704921404870954
Ni 0.19545460180462448 7.510160955191272 3.5609566579594496 0.2504781555240525 0.7319066809518749 0.9261260139831986
P 2.123081060831178 5.486635293950537 9.116083488149963 -1.3431669171635707 -0.159517410773764 0.28975535585712037
Ni 3.6834024318035516 2.799026306746091 6.288781974389756 -0.6430748096191312 0.5621439383010189 -0.23943989543201988
P 1.9808485361989099 6.356055085156483 0.1397652821206786 0.9073991269976566 -2.4193252852482336 -1.962510187493717
P 7.545654619393082 3.3634529279023853 12.998531331221628 0.42946910164139585 0.3267129069180761 0.3567019970809986
P 4.914822601520281 7.266310088368351 11.032115104615519 -0.5774887961882055 -0.5841698077528068 1.710933142478531
Ni 7.718435271725766 7.7655053593582135 8.58143415408856 0.13199992207978556 -0.8920907787753605 -0.8238891820984585
Ni 3.819289566027141 3.531886665470344 11.594423525780526 0.536938899790301 -0.7108426611927242 -0.5953345661203747
Ni 3.2181720371957017 1.185777564687105 10.64899719314813 -1.6787778979022248 0.3162911973641198 -2.0123332816634316
Ni 1.6610924331665127 3.873939125802321 7.306092647074256 0.06707159683751675 0.39140263378697754 0.3887477126626337
Ni 1.578114250899177 2.3007796209697173 5.004544948368569 1.3334049526808005 1.2439986969018253 -1.3992347066914161
Ni 8.497721048519901 7.30685059428853 5.726028731226577 -0.3390153784345129 -0.43518466396893435 0.08490759657767313
Ni 0.944735615243933 3.3242570184984137 9.575303720521669 0.8591364353365268 0.4884944311356684 -0.38578760159304526
Ni 0.5757682006748536 5.146516842306256 1.666384249318656 1.2204728458657432 -1.550600177782007 -0.5416612449666348
Ni 4.091874276210116 5.528142804214565 9.948810529767727 1.4874238022338384 -1.0852873269691243 -0.01862687107256792
Ni 4.575615896828771 2.934167466190141 1.459169953736322 0.8973083184205578 -0.5821620332941586 -0.047753870345511304
Ni 2.9963136120214378 8.332427772678152 7.9037575099199 0.953387935022945 0.26955805497363894 0.0456854178522568
Ni 0.26337882882954217 9.107965256444228 6.712727730210923 2.4129232383766315 0.0059970981236993496 0.8563267338018736
Ni 4.135923626463686 7.075451059588298 6.037140736381493 -0.74674888817103 1.03422367552409 0.3119295779613144
Ni 6.982066068668123 5.271048582663516 5.815017996686576 1.1699043888895724 0.43224769282779746 0.3531140226194241
Ni 2.8320057596538972 7.468146918842371 10.30612876534125 -0.6559727486277219 0.6479665904937938 0.07294553911979051
Ni 3.5248413481080223 1.559971407495553 12.924059103354082 1.7375034367678914 -0.0803711421599003 1.182148496364248
Ni 2.0144818682344603 0.4804501220234997 3.4688407451210095 -0.7316462282016367 -1.460432104136343 2.804394520618015
Ni 5.788156457927515 2.3811699154216126 5.522479842585686 0.050746634425248086 -0.7287943605751385 1.9555805502534191
Ni 4.027177080824097 1.6749436191964875 3.6269238523837224 0.31697639635660246 0.034373078163231124 0.6907204365215524
Ni 7.513375093438918 3.958298742846582 1.6612489957745642 -0.5381745719696152 -1.0782710435522913 -2.6581450305977508
Ni 3.898436569179803 5.720696392987644 12.280862150260969 0.007410947752090462 1.533885179020171 1.5999491605287801
Ni 6.135854381714529 7.00535705900709 4.417515291392216 -0.07296919326887434 -0.500718484005686 -0.531528270297691
Ni 5.722676449501239 0.22474286098848478 0.022597510080950248 -0.3015268945707517 1.0421488439084374 0.05722195773694662
Ni 2.1499269433294335 2.070549701047284 1.920303933752329 0.8467187783984644 1.3745112358028069 -0.4361277446084941
Ni 0.07935145549964687 5.034325919289532 5.601993386432493 1.520826288953684 -1.7333603611337953 -3.00407487676391
P 7.669956120620855 3.3319377958581207 6.101678606289906 -0.20420986858513215 -0.8065779445135205 0.35563216105558754
Ni 4.834073134026385 5.000729425514699 5.606576987022333 -0.2607000903623768 -1.6006808964884818 -1.5365311012834504
P 7.354712704526415 5.476071922689646 9.328568417884526 -0.7406815989310276 2.730978983840342 1.866715768800211
Ni 8.706667663312498 4.1643996019987135 11.330731571734882 0.056626490244792806 1.7260103485266274 1.129056758745591
P 5.749199997218212 1.0684477043002172 2.3498030573767377 0.14694908719045016 -0.6260343091970766 -0.10369336182560851
P 1.5485515466729673 7.916431713519934 5.363857975759973 0.8630601958709653 0.001370912205597639 -0.9099514611058652
P 0.9162660864045307 0.7671696728439781 9.385100412782396 0.4563720966798269 -0.2403366962146764 0.7826278614558263
Ni 1.5162351824580862 6.386547955465822 7.017140697654266 2.8060281995666965 -0.1075142782335955 -2.891361313717562
