# total energy = -340889.36693451443 ev
CRYSTAL
PRIMVEC
9.07353954434384 0.00000000000000 0.00000000000000
0.00000000000000 9.07353954434384 0.00000000000000
0.00000000000000 0.00000000000000 13.28004229057782
PRIMCOORD
 96 1
Ni 6.6217603533060565 1.9056792383040797 11.508312409170049 -0.5624319018550831 0.008858221721578293 -0.11379034105029436
Ni 4.408306650110609 0.3434588816226404 6.078169129709082 -0.4603207969149298 0.34362690906459525 0.3539205776811195
Ni 2.3830744533923585 1.2731355687589172 4.463382128425589 0.04240366177719149 1.9166602190391375 1.163629097403822
Ni 3.104738429369214 4.459572149127007 4.685079552083511 1.2059641107266068 -0.2365540892437926 -1.0059363985436223
Ni 5.22889035533999 4.597907334614442 3.0883008049412304 0.16583024036566923 0.018501401238297167 -0.1944237357326458
Ni 7.237762960071238 5.941616894762659 2.612861845001259 0.1305673033983171 0.5026843494828053 -0.18151602653204224
Ni 5.347372636075589 4.602680016469774 11.351328377642188 -0.2504809837375299 0.3853654264539621 0.8290457865987335
Ni 5.564974263935988 8.133657044386656 12.033365483910314 1.7748625941426401 -0.7698865026297579 1.1483343760282805
Ni 1.8468010395222376 6.490829176172141 0.5478984328683173 0.5677715689004416 1.3593682095137816 -0.6230533721918818
Ni 2.7375867210153135 1.6492973019841952 0.6297662590586282 0.16507227915372216 -0.013222669337861098 -1.2798270194543442
Ni 0.4298471452660432 8.985272255215344 4.65825363211148 -0.07453448087346518 -0.2676215000725584 0.0674184386539742
Ni 8.527085723563829 2.478283104928477 1.3885083474568303 -0.30138599811751315 -0.3675677361509089 0.3414260447585346
Ni 6.4899127486676 0.9359809824843465 4.99734632645506 0.22798383107627834 -0.21519670661393905 -1.3890353975609109
Ni 0.6071921997660801 7.428398028095048 2.625796175770794 0.5262490241766227 -0.9635383931933856 0.19239873488281703
Ni 7.561198354396641 3.458243534091139 3.7226482941685983 -1.1746524450975189 1.8244784573975545 0.1662166771708105
Ni 7.860407397859428 3.7747195235058206 12.804325093445788 -0.8289933360942433 0.7362191922842998 -1.1438532003284752
Ni 7.8409900230107406 8.971716386979857 6.725438246750477 -0.03827575565174698 0.19690433606265442 0.22974349407986241
Ni 6.8845028409198346 0.5512266072115413 0.5741881066470982 0.20789245964304195 0.5190640763924093 -1.5645296433789055
Ni 2.0631505189110873 6.609991972381407 9.325922876316644 -1.5241041883740074 -0.161300985036748 -0.7015884895843079
Ni 0.18605746727092984 4.916334135053642 1.3951746770368918 -0.4133811949405978 -0.4875690911079216 1.1946003489743555
Ni 6.7102273648830275 2.070227879837245 7.19855347318636 -0.92022250401457 -0.7589757692545251 -0.2877429534127819
Ni 3.2976781764638496 4.615882016658953 0.29721014267813006 1.2971948213088305 -0.8978053126616345 -0.014649117371742513
Ni 6.227415246624343 5.574265568536482 4.972991131329429 -0.3817314292458006 0.05084870722075114 0.5229590405714413
Ni 5.096253352752077 3.1544614266452955 9.369574768213633 1.5851108099643667 -1.7026580469539319 -0.4388222607215217
P 0.22824126045272397 5.5847364332913365 12.659319948962432 -0.3367669487199684 -0.30573270512198314 -1.5567525705366478
P 4.2506448251709745 6.2761945957769365 12.50877722323134 -0.22610589732727512 -0.1323364794835979 -0.1204708383942635
P 2.3234794449782523 8.404102967162366 1.6200723381289885 0.99406664368923 0.015376482456070293 -0.592714097778392
P 6.19391573824053 7.809758899539157 5.673234294903113 0.20355577994090104 0.6725455653847385 0.8583666470500378
P 4.777781184614633 1.1010649628567977 12.625229753147474 -0.26851033043541495 -0.7639089448900844 0.6481126291533547
P 4.218206920926085 6.083227628063355 7.894361490579653 -0.5565476751601641 0.2913160154760209 1.675506940460437
P 4.315057883138658 1.2973709931611828 3.455042389303 0.8434928152619989 -0.4821250372742148 1.0755397606640573
P 0.05502920326277025 5.448751294572972 3.682422570843041 0.42543709766386734 0.5941078928021252 -0.47112740061213054
Ni 1.078889231954837 1.0213176228824394 2.3355871762857707 -0.06257525162905997 0.33999728273180796 1.8902891852447767
Ni 1.7538789199776477 6.454471502798918 4.870509130410736 -0.39280979854714937 0.649964594760429 -0.3159407560032365
Ni 5.993562909252726 5.543678666379973 9.144729733651499 0.9067224126456063 -0.04613716067769473 -0.08091827291262192
Ni 8.631041267321505 2.3019842295499604 10.148435616075385 1.2045947411829063 0.030017372297696687 0.8129123713719807
Ni 2.357205791853288 4.9596058456393415 6.767483214775642 -0.13569973952887598 0.7791815547784388 1.8299597922271
Ni 0.3666989387254193 -0.1731140629617454 9.718481403041483 1.0575505231754885 0.6225162687414891 -1.5260003769554558
Ni 1.827265708658113 1.2984688914587021 11.456267493097808 -0.645481619288411 -0.8658033058337411 -0.1423918068370709
Ni 4.206247995668809 6.866419276399537 1.8280242565727627 -0.4206355625101659 -0.11876722543959546 -1.8958507384929546
Ni 5.694744027994843 7.9364527336570285 8.136934406907846 -1.051255434195396 0.24619726876051146 -0.7750623904037426
Ni 4.929400032148087 2.9602241633808646 5.048727059424999 0.37996431004304887 -1.0304356692365673 -0.3783234320055162
Ni 0.49231665104092787 7.605186874614606 7.35932117074782 1.3659923996985184 -0.5246333429500707 -0.38825174686282166
Ni 5.14152124206054 4.2860769975000075 7.097584938681107 0.5185781378949262 0.15996324006193094 -0.32129276434376924
Ni 8.28645545207447 6.82782951227268 9.239602664220607 0.47394481545626754 1.3099953155076085 -0.40722057465584055
Ni 4.781519482949989 0.6544290471783577 10.464832665695122 -1.0330535664753886 -0.6678674431827788 -1.0290146205193245
Ni 8.100738242540373 7.104654133421581 4.75746915875656 0.07295556642211952 0.054184456462203455 0.18060457046136638
Ni 7.237654077595451 6.433783832399381 7.106137657154179 0.7716117128509808 -0.922727786934927 -0.6316876508281121
Ni 2.5299478396894273 5.278595205536774 2.5225438313359088 -0.9155533806736748 0.252222649018985 0.936880167175909
Ni 2.481186637616131 5.434968587846263 11.403413217288884 -0.6043020597263077 -0.5383514638671115 0.3910838169949781
Ni 0.8040099777066642 3.3164422564578167 3.600830580258058 1.503092876229663 0.03122553367318493 -0.05985888113916143
Ni 3.7745743468714377 3.097651994903407 2.360766248811524 0.12750511953322557 -1.2362167389635614 0.0665234376435306
Ni 1.2166981521426345 3.3104264996705823 8.439825492760164 -0.485516579454267 0.17345458968014646 -0.2960591865879611
Ni 3.2708477197219934 2.68510536768596 7.26059742995171 3.2586662831253874 1.678820578214702 -1.7237161531758123
Ni 4.073003065924418 6.93738342999374 5.997094330884086 -0.25467856675864525 0.5278855313387812 -0.8721464744429496
Ni 0.8192344698835871 7.352643045566215 11.578895474098998 0.41574429585613565 0.1330031665333193 -0.2198897412142342
P 0.49048379603184605 5.432827232489117 8.036723512963277 0.11543147619814315 0.2667452681151922 -0.8291036364198624
P 8.890943737025172 1.4259611970656774 8.152285928639854 -0.9272868670605192 -0.14009401194182972 -0.3438099716096788
P 1.956391251401894 3.387633248543243 10.505469420366776 -0.5342382130296864 -0.016421121670500752 0.598546131079137
P 4.182765675057404 6.318277672668628 3.915740476729336 -1.3420369173241857 -1.3353944723070033 -0.10130275010624488
P 6.993403463786172 3.7152515446467986 10.24976255539677 0.4242531046580951 1.1277984608584577 0.08165617951991098
P 6.588932286856264 7.6446930662460035 10.054174242078615 -1.5153794069064999 0.7083047252622188 1.134043670437221
P 2.080735038750694 8.369823134368747 5.927480319989643 1.0376015908573872 0.4982239997186064 0.47171026969879404
P 6.677417445512532 4.074119111301235 1.5320390417472367 1.193861413925802 -1.013675161948777 0.37666121381174483
Ni 5.446664380453721 3.0031329323806077 0.13467129017720098 -0.2349443215545115 0.41347683997819756 0.7108814848504595
Ni 1.8267938845963692 1.0870463440992162 7.400436100958971 -2.4843978493778502 -1.8646362605633626 -1.436708535267158
Ni 6.888259286334487 0.7166372350113535 9.176416348813458 0.9959759448968009 -0.2331826016683984 0.6410019862505025
Ni 3.0062723770991338 1.9049533551321662 9.281766495615175 0.18168289112720967 -1.7782525936607956 1.93227632830984
Ni 6.232151634321079 1.8206238776351034 2.4993309948520763 -0.3337633860069542 0.3782640395224905 0.36841182931875904
Ni 4.313615190334479 6.824009552080485 10.273016222809023 -0.22670753546701602 0.9268438659858297 0.03254322404334395
Ni 8.253954033052038 7.329369416366735 0.4222652955354056 0.16218081653854005 -0.3011484281854104 -0.002225804006725199
Ni 7.882229260715081 3.8277906569123537 8.164277518639867 -0.028535645545847633 0.9744524690027281 -0.2922662952044321
Ni 3.263570740923559 8.221915364551702 12.319882460112193 -1.3810222974484474 0.6543892061906859 0.6243677201279312
Ni -0.09387484120772671 4.982534680332162 10.163933221795741 1.3293642069525233 -2.481969956662648 1.3795112601205597
Ni 8.9028935887428 2.1550382549357003 5.816326737228477 -0.21002827503912216 0.23936816165382 0.3276174210102164
Ni 3.867215186686911 2.764952516596457 11.595549048770625 -1.0646863628893213 0.3065734558557236 -0.16344837039705398
Ni 1.2294555488890162 3.356175286580437 12.623291645078465 -0.41259957957956683 0.4724630887044186 0.18129491166017164
Ni 3.1851209171189967 8.28108391660231 8.03409400117302 0.4160546280077028 0.11460435231115747 0.04982823637603677
Ni 5.541573605181424 7.906990950416985 3.522876171718326 0.8442674886444944 0.9510153210257105 0.6902154718606758
Ni 3.049253734416068 8.351585319674417 3.71616797215134 0.6267544751925528 -1.346660532139126 -0.36341669009701283
Ni 3.3828605666879112 4.579506196206432 9.23912448868111 -0.3973971608075156 0.12176975971134513 -0.3745889046637484
Ni 7.3685398870311225 6.141506973228368 11.540954468057038 0.1662688705649846 0.10650512024279077 -0.36714993188719997
Ni 0.7845953249198699 9.121901615248783 0.3102098029331378 -0.8445410540208552 -0.38223253725193523 -1.9795887402425587
Ni 4.478309008502027 0.2786983070864034 1.4430620972419972 0.21725924556992263 -0.7609282649952056 0.09018375737494792
Ni 6.14451031485216 5.780479904137489 0.22829751639854728 -0.4602408356066138 -0.04761014567879542 0.3742384633028652
Ni 7.9552531078095905 8.783449512804415 11.43419610790181 -0.7217042864975765 -0.13141268211774787 0.7204318475430561
Ni 0.0781712661373408 4.829781640342594 5.781970686701807 -0.9957118926021369 -0.8347621202572204 0.713035812189301
Ni 7.683473374705488 8.658679269092115 2.6791558477381634 0.6122295421035004 0.668593779825842 0.5591532311038111
P 8.288624028050561 1.471183718675895 3.6838570974615354 0.3251861858609045 -0.37983858309846197 -0.9901487966920626
P 1.8552303578560845 3.4119412612626996 1.5543889846104566 -1.205415951532621 -0.7159293316870121 -0.2263208415515586
P 4.968035163973188 1.14960839997852 8.197066568869168 -1.0741642204727695 -0.017941929190401357 -0.49340678083562123
P 8.561973483513926 1.53448980480641 12.41618900994583 1.1613814390202255 0.8236004472134462 1.0358452702879128
P 6.287917609003342 7.694524945997873 1.3046643043309847 -0.5217277392675015 0.015472384603986257 0.37147581295606347
P 1.907475799154566 3.002588520001672 5.684628845994228 -0.8421419576610594 0.34262289328011314 0.3786700167116575
P 6.998139851482908 3.648316042656716 5.857853606139689 -0.21092944669715286 1.1140708268597201 0.0772919890139443
P 2.51152855420212 8.562771955003031 10.225712231203342 0.059478872091923374 0.6093169964423958 0.21057874822595346
