# total energy = -381166.471863215 ev
CRYSTAL
PRIMVEC
9.32380520119883 0.00000000000000 0.00000000000000
0.00000000000000 9.32380520119883 0.00000000000000
0.00000000000000 0.00000000000000 13.64633137662950
PRIMCOORD
 96 1
Ni 5.918919251122447 5.993444424596139 2.389472115567426 0.5513321923974956 -0.7099636010218805 2.3589406135125888
Ni 1.9884972190551236 1.4909230406994365 12.140103207458733 -1.1847576518523208 -0.33264855567622065 0.25869077324183193
Ni 7.264754562005281 8.944260882909756 5.731459489421547 0.6903147164427015 -0.05019256169399097 1.3429830832875387
Ni 4.615833586226962 6.152378004857936 11.931137157113467 -0.17076547288375754 -0.15754203221494803 -1.3795228300847855
Ni 7.217538813416419 4.472237665212535 10.188022906025722 -0.3160747104779395 0.239975970441148 -0.23649623942266365
Ni 1.4947085055349576 8.921277703551237 10.019859691180963 0.00043528776520570194 0.27365587919209644 0.8993256059609028
Ni 6.854423227161833 2.1338087201920533 10.654850904968567 -1.3383769519740951 -0.4500034741493218 -0.7563753555172006
Ni 0.827657388208097 4.920516886461328 9.742634064331146 -0.9433593471423496 0.2208019686158584 -1.0398420501521317
Ni 5.194869848986458 0.7432228747659534 6.153008294076854 0.6117320336417916 -0.19370614084033091 -0.29088407014492484
Ni 8.689487910913183 5.171802755382815 11.844769818892004 0.2790919626060032 -0.014280164068097987 0.5532656619747827
Ni 4.768361712444418 0.48559029177170915 3.002916015968603 0.0749653977632967 1.2697724634318197 1.037308999317633
Ni 1.3446325400360795 6.563753605862906 11.255821419022553 1.6429524035631833 0.2916132350014655 -0.9107932402808702
Ni 8.590124120883265 0.5572959466092883 10.230641086362379 0.4473477816940296 0.5763899066970719 -0.21305060680521373
Ni 2.0731946637986507 6.560797959673596 3.965077682922367 -0.7396840109044487 2.5032589479484115 -0.6755786957841076
Ni 6.3749372305325265 8.937491800469884 9.939482897680739 -0.26195298893287144 -1.0828884877196447 1.481022526693185
Ni 2.4833768177618807 1.8643414314940487 4.036666790197277 0.10365016729249893 -0.2691327945107623 0.39207266327080864
Ni 6.22325757057131 5.974563719443602 0.293457438997993 1.0204543896541391 -0.35515573563980124 -3.369826385641687
Ni 4.846532493678425 7.502968456297704 4.114423594488681 -0.5913874085471685 -0.2634159466316431 0.9827995554158429
Ni 6.790527191403644 3.9775258949960226 7.9908141765022025 0.09372905152404502 1.1913229637746645 1.353965036220339
Ni 9.775356890406869 5.132111317439928 5.321155193612638 -0.21961669005850568 -0.7809203918464164 -1.981537893549129
Ni 0.9853024186170143 7.266479465932797 6.06120890705447 -0.49644145389688693 0.7828759729108904 0.7720336308797479
Ni 8.455674852587178 7.918092226918142 7.567258889007968 -1.4025609428511716 -0.5455454105123895 -0.06063021208754719
Ni 9.18773340322985 7.944413328471529 4.07529904389062 1.1807552155611472 1.7195669068941288 -0.15323723419200708
Ni 1.4399497986900947 2.8403013974874374 6.105177174357095 -0.6450298764629729 0.6964655665354457 -0.8392409819641805
P 1.5093841746263612 -0.017434582994927467 3.1913174819758767 -0.6477300490029554 0.04535914486108962 0.0030454716945431423
Ni -0.24996748289256507 1.1844029508773926 0.15667348992650043 0.19049868964662678 0.8354835718042772 -0.6400640478172654
P 0.5961351887739333 6.634325486010832 8.360738937558219 0.12927763805261608 -0.6488975869484954 -0.4304605190203877
Ni 7.51759750636404 6.601496368557952 4.326801225088423 -0.9804261700876599 -1.2961375836889097 0.8055127364737998
P 2.716276143196553 5.276826095055987 12.834238113589095 -0.07426065838678825 -1.6296705988526128 -1.0150131640339102
P 0.8267054277162085 8.447041009144586 12.267928844673161 -2.121967434453507 0.6077697065599339 -1.0299702995643747
P 7.760687750678574 4.128767336121601 13.610932515973364 0.06885285710765561 -1.4614078377860509 -2.1582253883442766
Ni 4.542744278725365 0.9567249562503354 0.5941203145104947 -1.0474412026556283 0.13508267477016736 -0.37090734204710313
Ni 2.970387125037161 4.528385619004424 4.23201355855918 -0.16887776894274142 -1.8004730956218926 -0.9271380001874806
Ni 3.837948533942456 6.704263347417832 0.31377867202513055 -0.47464029886139547 0.1744480639416673 1.8110688688598682
Ni 6.516770952399384 2.84074894012809 6.2215531790148235 0.32234100310262553 -0.5480401519097852 -0.8950866281788907
Ni 8.811378013855954 7.44807921618265 10.090834359705477 -0.466685562790693 -0.019753271367527272 -0.14604920108400007
Ni 3.081060690548573 3.2265959630058285 0.112731329277913 0.8566368088431247 0.3305186538174114 -1.3811889049332986
Ni 0.8180566661855947 3.6979982206883455 13.348977416974815 -0.2364800414727476 1.2162068715005376 -1.0321151138215192
Ni 2.5870388819030667 6.8530712754348615 9.190967831189067 -0.37975553646635246 -0.5012653576480914 0.98633687914514
Ni 1.823941384370127 1.0424014005202902 1.1837055302623751 1.0494767450284184 -0.8873848886592589 0.2667092726709342
Ni 3.853799002465573 6.959353328784869 7.178556917035066 1.0023674502454416 -0.38447093966415075 -0.9252618662106903
Ni 2.564092997764601 8.684956541676575 13.254599065485671 1.87153273057288 -0.06885825642429431 0.5053765516029877
Ni 8.548474683887523 5.2789892178191415 1.4098022075591259 0.7212065209255515 1.7490942269292844 1.3458694036963983
Ni 4.985140179010577 2.333533947388343 8.182681300833032 -1.1094091597179925 1.3543771840570933 0.13765172104892423
Ni 5.847993066384005 8.13289404682142 7.739066779232541 0.7879320472775592 0.8219315441514554 -0.7112077578416268
Ni 4.149643335547047 4.636103538326525 7.112494961372217 0.0853570254102659 -0.4237121445529606 -0.43257370870864853
Ni 3.078645825050051 1.254256898039271 6.762412189765639 0.13035287339466584 0.23195464279856826 -1.9932670090605995
Ni 4.243907004234526 2.008524752224333 12.059030858104492 0.7542009735737011 -0.078515062787768 -0.8861610435544867
Ni 5.6115973140692335 8.042770147559978 1.2059362785562977 -0.0037556103876903056 0.8432159074515284 0.2742374627271793
Ni 1.9594908616578195 5.255698352895173 1.8979863818856182 0.9867420850033586 0.9769196995962982 -0.14522773362396926
Ni 3.019337101358552 8.911571622532081 4.656932918726904 -0.14718357179875943 -0.0656556903265966 1.0014937893912366
Ni 2.2987281832725803 3.612284481198336 10.849734280221295 1.0412291603076453 -0.07263546407853942 1.0046976410405148
Ni 6.084957570804606 4.110091754679363 12.093501897620268 -0.830350621453086 0.8898696027543256 -0.08182818632140101
Ni 1.4050507965241963 3.16765086770986 1.7016568844752813 -1.3312136014564362 -1.4037745035432985 2.6749554172868706
Ni 5.2880799277073995 4.900769067442526 4.67288594910517 -1.0937495988038648 1.3560815683427097 0.9553576571548064
Ni 0.0199893055686534 4.355009464776563 7.426306266714896 0.15090138696997882 -0.11393997925428119 0.9381538916820101
P 5.76547739201366 6.736383855689679 6.063665729675553 0.4329660590510607 -0.26445544363975104 -0.5299462705225518
Ni 2.2708873015019755 3.515037194906506 8.253246654317447 0.40140936729070226 -0.8678707298857312 0.735483599669856
P 5.8116488744409995 2.8169359421233597 2.9931866254369126 -0.0271315661094694 -0.13927203026116658 -0.19976623099148177
Ni 3.646568112233337 2.8104931928589636 2.2898677713681574 1.821728405456243 -0.15168248811037746 0.6594355103653418
P 7.843240720268974 7.8326302301635 1.5063912332169964 -0.35503695067374985 0.42734614176112207 1.343967301577679
P 4.761033201703729 7.087788742847185 9.686834820846764 1.2972827530369464 1.582693715882442 0.36672621408622
P 0.059945539573927564 4.243142452223411 3.2097944663713247 0.3953454204848095 0.35527143528205907 0.16218390186233358
Ni 0.6839626348605252 7.186201504765715 1.9056831829243435 -0.4976210760272849 1.9500879025699644 0.41336911075573973
Ni 7.661463817723862 5.634487255377618 6.461701762847568 -1.0273187208741403 0.43074873968476785 0.3396707526303247
Ni 4.073887419811561 5.099711095017674 9.525971212947152 0.2465016873748077 -1.265350165994408 -0.11832448147522202
Ni 6.737773102636705 8.544931637982355 3.6491787776371445 0.9477713601671162 1.7711159826160143 -2.923775982602842
Ni 8.689935453553836 3.0712986666993354 9.28575549771831 0.8349629234141168 -1.7296433172935244 -0.26841262851528613
Ni 0.17320366383510888 2.13652194745101 3.684318333972394 0.49279331562133843 0.6196014090875394 1.7320318721303591
Ni 3.643053037743211 8.601452543974787 10.870626130115264 0.4312220797767606 -0.1719458663451039 0.2685933770675245
Ni 3.1753709782611197 8.405932352839631 2.0478367113031672 -0.28074338216649714 -1.0380628467645219 0.21686123880055555
Ni 7.269080807531591 4.35406776047019 4.0395459811854755 2.1569359801088916 -2.2306852460769 -0.9561976365575984
Ni 0.28185303127806854 0.4037757675383868 8.213071310894353 -0.8206958719721414 1.494445227856994 -0.955727124679083
Ni 6.53256547809242 1.9835556023979166 12.959579889147898 0.13702411476725435 -0.9146864046876892 0.7393855058274234
Ni 6.613412191365331 0.8124819631679643 1.581350896004321 0.7892957603943052 0.791862749790533 -0.22966944630881736
Ni 0.9860483230181022 6.349641747530635 -0.25967729343372636 0.31546458769776636 -0.13800859016771072 2.2322865291257488
Ni 6.8125593426507765 6.400987941740521 8.937760326054276 0.019423141721618162 -0.222166710173869 -0.5895565259860168
Ni 6.943251117526384 1.2206632285752763 8.44181128691246 1.4257690055365186 -0.1236482076809806 -1.9492605215726624
Ni 5.4665095842526314 8.625834294085347 12.352549834215576 0.30077690377860455 0.06482753799834642 0.7787946037526652
Ni 2.3200051063136113 8.473119691767621 7.616235904363899 -1.7076305604678592 1.168644548340542 -0.5879922668226906
Ni 8.820198333398817 0.5403872262171276 2.289172215514143 0.029438359865775105 -2.2896033605693473 0.599266039964297
Ni 7.981540720035678 2.853336076896448 1.9351454743868128 -0.3588329273810723 0.3429573938013965 -0.31746619150882743
Ni 7.177101471072444 1.6706673537515848 4.384853099864088 -0.2696369878406905 -0.564953382725356 -1.2371675329126048
Ni 0.8613275128732031 0.4654518053228382 5.834666551878069 0.18317978738771035 -0.6834272452942488 -1.1290518736495847
Ni 4.156477684622015 2.948317678569974 5.466993489732837 0.36011565074823787 -1.0763280608933075 0.10834654432690372
Ni 7.745107672500852 9.61843725202801 12.238098262912654 0.018791678785206347 -1.8700821141692825 -0.18654638986709807
Ni 5.8628365639656534 3.5616748675845247 0.7222648258563871 -1.828390390857451 -0.06535024327103585 2.5920494245202588
Ni 6.872399523228051 6.573030791851436 11.253705847664966 -0.8453393815524344 0.7895731824254079 0.5307697948651118
P 2.509231729064589 5.7646475733674505 5.92133411662097 0.6275371189948483 -0.8458016659008337 0.9321439380425044
Ni 8.816375573343242 2.6340122115615747 11.907706435114294 -0.7257270345037244 -0.29927100865703943 -1.027055697020741
P 3.851710470142527 6.211220538298754 2.7238489376285973 -0.8450128514509512 -0.5114438408429901 -0.9207187269246981
Ni 8.234542169079667 7.364276856720429 13.14268636628795 -0.37843553210334824 0.3608533002452108 -0.8434699324438636
P 2.237769146093674 1.2341361268199258 8.595101167999525 -0.2701625213268573 0.9200736371415316 2.22305112657041
P 8.77109917619721 1.8307104668099996 6.635406115011907 -1.22100634977171 0.8200407548866457 0.23978545169689672
P 4.886867274167252 3.2622781647928694 10.292458845983036 0.08169191785385285 -0.7723146524552763 0.26851470131078914
Ni 4.1725332768554315 0.18718470945299953 8.682764515117878 0.28956380867160453 -0.3781149155391359 0.4532764884736387
