# total energy = -381166.5290471218 ev
CRYSTAL
PRIMVEC
9.24981733673457 0.00000000000000 0.00000000000000
0.00000000000000 9.24981733673457 0.00000000000000
0.00000000000000 0.00000000000000 13.53804265817275
PRIMCOORD
 96 1
Ni 0.8071242355397735 0.960519501468296 11.117291281275252 0.90955731099124 -0.27261406819114337 0.34018985835858834
Ni 5.766113949531986 3.3500802373103804 2.0256969828610267 0.7115828817928583 0.34671480396129967 0.6939692824761532
Ni 8.69748271871805 8.452279318702418 5.017631704086863 1.2642831581824743 1.2243058464585883 -0.024946128422376392
Ni 7.37393564772946 6.788338980499859 6.002808442848971 0.7463786493158049 -0.09378433024201267 0.05637143681119324
Ni 6.209087687762342 6.6838437973553955 10.268049853789682 0.4207232371279658 0.5894061164510817 0.014781786294864865
Ni 2.7063669695942187 8.929708625421146 1.8417421713830064 0.17626146300132225 -1.6110311293745545 -0.9848821489764843
Ni 3.1639739183879585 0.7694432558482094 11.28466209577534 0.6726664072333189 0.969733466260504 1.0890529646591438
Ni 0.28770075944193096 5.946624129142873 3.6177708675413336 1.0677187219577418 -0.47422018060484133 0.9925589487954517
Ni 6.876905978694798 6.056854198854528 12.413680889423073 1.7745772016917374 -1.1323775955887079 0.1328049344795842
Ni 4.35268640632823 3.6535759843364026 4.250864420309442 -0.14873343278438256 0.07936146994846333 0.5488431074270548
Ni 9.065671686148814 8.48471842707523 12.537648787408267 -3.1814786808997915 -0.51459447065683 1.124806210999353
Ni 7.541671830002779 3.43277360168247 13.69765539313463 -0.16373736239238254 2.7681252538733356 0.5131795925871743
Ni 1.644108730460529 8.574376903681344 7.6034920572337 0.08952812606882 1.1410859219959832 -0.6372273496994186
Ni 1.9638471562155666 1.5873426032623732 0.2531693424538005 0.25188274918106296 2.4630998592310225 0.640507048891955
Ni 6.220659208884209 6.217310775114332 1.777788936341773 -0.39615711775282736 -1.1708747232226415 -0.1266833949628786
Ni 1.9076822671252611 7.852965172796775 4.039927892514488 -0.8009801387107689 -0.03803895705059255 0.7753781218719484
Ni 8.086365806264443 4.52219855347397 2.4903633920226396 -0.5343415713767701 -0.12452881051372101 -0.5334766522733135
Ni 2.071524276423117 5.132177738431182 10.75439043424846 -0.7736002040359192 -0.4077818464759493 0.7881451917296297
Ni 0.272308138899247 3.5749247900124788 12.21982969868983 0.7341108876920454 1.3077342873875737 -0.694360604377301
Ni 6.756815604014391 0.11913764352489024 12.364998177339546 -0.9036224335640438 -1.8887835472335277 0.6632291730798191
Ni 4.12611213783893 2.0770094179301246 6.738316894908379 -0.9204032525668084 0.23976771108508385 -0.45114324418071977
Ni 2.5512567875857646 5.3103847135981495 5.05804230478807 -0.09734967899576781 0.49571203193003016 -1.9941409270251205
Ni 1.5845029094299088 6.745604825757234 8.95101465399997 0.061851486089158 0.1657821607365532 1.224625691691852
Ni 5.118654505913061 6.0492970983296965 5.151983446685491 -0.8748751862280223 1.2041743658160358 -0.08465125759249291
P 0.7608196514182207 8.05456493526766 10.781602471009787 2.3412923043032063 -1.5690866666219687 -1.620136176999616
Ni 1.3471618539015577 3.0223407198124055 7.007222951098895 0.713927727875951 -2.0755250838305677 0.3700470509293369
P 1.8157113362581816 4.225926913559201 2.9445645581808306 0.07519396883433502 -0.652322039249012 1.387893313536668
Ni 4.271130769452535 6.559813000614304 9.020789723888607 -0.8083088111616983 -0.7390093534349272 -0.17917709398622045
P 4.127980600881789 1.6256275960069009 1.543540094651184 1.164253618361698 0.7325016342233965 -0.8999264727696953
P 4.1200720073092905 7.144512435590652 1.4466075619217789 -0.6484525289912767 0.6185655116238573 1.382061537346239
P 2.4855183378550665 5.321891486000708 7.07039180165481 1.4783871459528668 1.1109623631377255 0.6002451160481147
Ni 4.479307151841601 5.136506652807708 11.448960121053458 0.31814521985372307 -0.10238852697125593 -1.2401001331783674
Ni 2.0709785372175293 0.8079465442749725 5.488565789277393 0.5229101896113769 -1.5439515621172377 0.12770952223454782
Ni 8.403310787272234 2.094352824887358 10.091012980478762 -3.2147505555790445 2.2654799851585823 3.3051988794692884
Ni 3.0973104869528743 7.024597807434077 11.461645320147406 0.08770521392746831 1.7972880130256919 -0.017638024796737366
Ni 8.504688782072918 8.831494068049462 7.639490495204987 -1.1174307444708884 0.11906881584041429 -0.405591780803166
Ni 8.00685437895544 8.74541527063932 10.152109872016853 0.36944361301738304 -0.7190485940422843 1.9820857956327995
Ni 8.047775569557468 6.899429283196592 8.78705609700736 0.9628429097882578 -0.7108318625594467 -1.0269232852079346
Ni 7.473667175096337 0.627734208772897 3.154675077313768 -0.10376406716254387 -0.08454558525256407 -0.4166351831015212
Ni 3.5111565513121223 7.402286336968884 6.522141270739784 -0.2151694529204294 -0.34562311355901765 -0.047783695142182225
Ni 7.296551678340545 5.062517366273887 7.799171011814811 -1.104833110311536 -0.02970832569771013 -0.20177169145728474
Ni 8.605826281630462 6.298043178273124 10.990778758621294 1.4857153041831637 1.3604087349631537 0.5437338112249475
Ni 8.786040467095944 2.133905042566895 4.557324733698021 -0.46890365348793434 1.5432910457151034 -0.47537254904172965
Ni 1.2544046885857505 6.467934567917664 13.052893196165694 -2.3616112183662166 0.6341754502469723 -0.2308236145179186
Ni 2.0813013330384744 5.960656101598406 1.7586186905183774 1.638570472445404 0.4128744305075083 -0.13091851609014873
Ni 5.8466151072646815 7.54884043821177 7.448035007086102 -0.08421082762096466 -0.9922748418961298 0.1642652098713945
Ni 0.7620582019203932 7.645908018270015 2.0018703791377535 -2.726605023142362 1.9548531851690913 -0.8997457242174568
Ni 8.173230838123313 1.8182642857622864 12.34268761862976 0.7028696702895766 -1.980761420394421 0.8986607186833941
Ni 0.4469345098885366 1.4679829641284303 8.680511154405979 3.025158694017403 -2.8868289730648473 -3.708085345526149
Ni 6.983241875430989 5.073876141603745 4.583764410736184 0.7877415285333078 -0.43534150126177285 -0.9195990114979582
Ni 3.289188691710663 8.6141233675188 9.4722705188542 -0.14596615445189054 -0.41767005212393876 -0.5137146391550379
Ni 5.305343563309247 4.665256223874277 13.460158015698239 0.5096929195901544 -1.0148182744142846 1.3548055298437636
Ni 0.8012339520462448 4.125520149548123 0.9596777681173049 0.25539719009222467 0.9400199983564714 -0.3749732845863607
Ni 5.527968159920819 9.005140883413807 1.9126817932374665 -1.6307581754898366 -0.11593489819712291 1.782846383679065
Ni 0.652014978513024 4.906241707317908 7.835372020779357 -1.5560218630182105 0.765567820649746 4.006973002701841
Ni 5.440853383001765 1.5571142011630452 4.381383963706799 -0.9056806016446531 -0.20864039355266004 -0.7453340101013745
P 5.686241779358272 4.572804302520917 9.709876119150005 0.1680223629209816 -0.11591304382025197 -1.0491838963783477
Ni 4.23366901042491 0.1437329070445085 13.513714456382175 0.2756261155445898 -0.7051497245730048 -1.385544867909149
P 6.948952803649407 3.091538601117507 3.828909966329548 -0.22460154486760672 -0.8083427497234272 0.5506541924938645
Ni 8.965144674516166 2.2634949793513446 1.5926825226417922 -0.9294121409336381 -0.813478785398412 0.4729094322132178
P 5.015824289836494 8.357422444917656 11.334929301518482 -1.1037100524506862 -1.7189531845695296 0.4570503536937741
P 2.6831036797289163 1.41837619532222 9.233378269007593 0.2669910655774112 0.20881779967078876 -1.1396944409650953
P 8.228831488373942 5.523962989140829 0.4316713867844666 0.6693278297783892 0.3534467233684945 0.3982096294064819
Ni 6.118457980366622 3.337528235581865 6.155517372352839 0.11672576952953446 1.1591821173760617 -0.5791345593217445
Ni 4.096235228787268 5.605601874369919 2.9922048158835164 0.44350295402664264 1.1297270453397383 0.6892551648299354
Ni 7.139924526336898 1.3374957950907262 6.082168173158454 0.3534258974328881 -0.7642424169701031 1.2167959112347884
Ni 4.897001140091094 5.0485316429035745 7.231169346566035 -0.29692590546363057 -0.21660952780106565 0.44296816456909516
Ni 8.93408378888289 4.507657841081025 5.983827818274975 -1.9621306926671114 -2.4134168901835986 -2.518052047097186
Ni 6.3557897860779295 1.5892110663052321 0.6553874618072147 -0.0755094431922248 -1.0989689382212748 -0.07564468321850844
Ni 5.518847840315575 0.9341390232592132 10.575472148150823 0.6403856928227422 0.8616352904989806 -0.8581774138573671
Ni 3.1228214823598344 4.215502369750773 8.742841046556016 0.3661155770854146 0.09689510795685248 -0.44108174617965973
Ni 2.848999148410508 5.034370173009428 13.209392700694135 1.0798988089637014 -1.6739383104217365 -0.9037435325229404
Ni 2.8600989288631373 1.4048529628040995 3.1763362988670747 1.307152960962807 1.790066298466272 1.7562411223867107
Ni 5.159205703833335 7.023386081401332 13.196044289718145 -1.8327448111714046 1.664475879457256 -0.5412380413862873
Ni 7.6086590050344 7.195377179514827 3.3784179768059435 -0.578783603740229 0.3859459815477805 -0.1750029080038728
Ni 6.28657340513874 8.719145790234764 5.0070721129495945 -0.5742795452222884 -1.7225316459494076 -0.1169376284300244
Ni 4.121690725291966 8.275330318653417 3.781337232291282 0.7278484517221012 -0.28947767671570146 0.8137806329095468
Ni 3.6208501316352337 3.8626125997105487 1.5545464519516703 -1.726387529360388 -1.291757195233027 -0.023549762295482023
Ni 1.4595193815333003 3.0743339414159316 9.895686443927024 -0.19294149476016448 0.4110836571556727 0.6683562098937392
Ni 0.433810869466711 6.497950224224982 6.139149821093732 1.6012164572769778 2.484731321457869 0.1060988859433076
Ni 8.011710532903466 2.9516443681461997 7.885368206883114 0.23927457349874923 -0.9545387607979369 -0.9946533694306354
Ni 6.3306302837186355 3.024810420963116 11.603252619235235 1.1430605292238507 1.310664059439859 -1.0660480191235382
Ni 1.9488624526045166 8.862268209354378 12.922386602512198 0.6369206170922773 -2.3141327131692795 0.12389709046699307
Ni 8.508120464196189 4.367153120184824 9.956946132245085 -0.35767361696564853 0.13133092103721897 -0.8282816547391993
Ni 5.600412727008314 2.5068946650434225 8.52793727223095 1.1889470073433202 2.0238924472559403 -0.45624688395587226
Ni 7.248748623857887 8.125446283274742 0.9471886651446879 2.60952778381068 0.2547636702732838 -0.9305866208577135
Ni 5.24262980375189 0.27199642006486896 8.264081616146381 -1.0683982645232697 -0.4803072673391857 -0.9960656763971296
Ni 0.7023728324631956 0.8598833419945303 3.1411240953445163 0.1700316800415265 -2.157611666019678 -0.6183307699052318
P 2.3545316786969943 2.998707437265349 11.955228507351526 0.7915740149055207 0.3741695577381427 0.48201627961049237
Ni 1.7647540941635684 2.9142011087526623 4.7927103779033 0.6507027584780342 1.695769804474531 -1.9158384944687907
P 7.147379878874248 0.8987103740178285 9.006047365484106 -1.1717589255998078 0.9330831620273221 -2.809657568789168
Ni 4.531873862101846 2.4289279571807434 12.749004331915309 -1.9030932789879806 0.1433469716614886 1.2045821427774157
P -0.10994332538329546 0.3212859201464748 0.8273702350853698 0.27449148771951437 -0.45771858340539234 0.9743514246484896
P 0.07663380922665862 1.0909604214207806 6.283791060171948 0.7484548151185432 -0.14534471881780775 1.5945722124875827
P 4.307861792933695 0.11473380563030948 5.89554663942669 0.12499597995812665 -0.2559854584955269 -0.10451148685152968
Ni 4.292830840237425 2.90093687111177 10.363438592054466 -2.0284957503559062 0.08827188506421572 0.6562594266302053
