# total energy = -340858.1411067527 ev
CRYSTAL
PRIMVEC
9.28963583274332 0.00000000000000 0.00000000000000

0.00000000000000 9.28963583274332 0.00000000000000

0.00000000000000 0.00000000000000 13.59632105200261

PRIMCOORD
 96 1
Ni 5.655233153562671 3.161142379570511 8.298351984783059 -1.7205693800167143 3.8277920520608792 1.7838524563460763
Ni 1.091411469578916 2.8739997295353215 12.818856095906444 0.6534443257789133 -0.5773430146389605 1.1911864381968
Ni 0.16885028261305757 2.578004056352816 10.815520072628907 -4.195327392311956 -2.501924545407704 -0.977609269464155
Ni 1.2322888001445467 8.569679958421617 3.7931153904934782 2.8446037458470497 3.4117711055045885 -2.9846548203660856
Ni 1.5621730656055501 3.5334059646517186 2.1981173959361544 -2.099906083778093 1.3004575512205023 -0.6420677085108555
Ni 3.4969813017339586 2.827087067526984 13.257270250273823 1.2401705814049868 0.3603755892778439 0.2874629602785178
Ni 5.440020155394919 0.44478405780086877 5.193210318160046 1.1731835738614762 -0.8741704468515138 3.800991901148899
Ni 6.97391556889089 2.9722840788517986 2.1946774437100776 -3.4937319607491117 0.3465821350381773 -0.04989585638917859
Ni 3.326339977292147 8.84722641442619 13.294836609461056 0.9177113075569421 -0.3211570100968534 -2.44150799199286
Ni 6.602645974866095 1.2683232983485748 8.57344597687274 1.2824611146430815 -0.7530573468875611 0.7886457855151321
Ni 8.296536789900598 2.006765756903969 5.079572058394583 -2.1773860204331275 3.2952625941921827 -0.5756226895137442
Ni 6.928377773016657 7.91487209314564 11.949073047145372 -1.096395263956828 0.3343531970721532 -0.014285820495052814
Ni 7.465197970932655 3.604211570558164 7.214439109416644 2.052050397747395 0.11141078507452425 -2.001388352616153
Ni 7.7549974568756435 6.717670248328913 0.17732707550070267 -1.6266554661753727 -1.331962563807319 0.5150446708203711
Ni 5.413841961030663 1.189872321980177 3.258997547701882 -0.35876273626476923 2.232621543867664 -1.9654918958298604
Ni 0.7166127428220495 6.546109249919017 1.3908220129701867 1.2308621595198672 -0.1613200112001415 1.3388821737452878
Ni 6.1938276719625485 4.908783028739715 0.7094532203250543 -2.284898241784194 -0.44349086984178454 -2.224541852183324
Ni 4.162593013725914 4.4806051243261935 6.791730013740611 4.8474087763050715 -0.32699649959676585 -0.12641162935873068
Ni 5.4748934490937895 3.065858582695359 11.884354010773157 1.2498993786569763 -0.5009712234464405 -0.03480065261895297
Ni 1.603744186890166 8.926587775126631 11.390875538771237 -0.30098413469340424 -0.3653995248549965 -0.7512645166531964
Ni 3.6453739478569647 4.152736709886143 1.602761343397001 1.5205280409869748 1.042023888294799 -0.6327957962906263
Ni 1.9419891247882985 2.394914619615723 6.663108500004206 -0.21854788247435908 0.6736663092527431 0.9890373087954385
Ni 8.407120617335698 4.587937579146853 1.3474849318741284 1.7173557581754229 1.0117666320721543 0.9812445522238972
Ni 4.173099592088573 7.150669473847846 11.173701498435177 -0.2783753961549528 -1.0978877893419543 1.7030102880870284
P 6.281289595290964 8.574445541710782 3.571182269613482 0.8958903550271087 -0.8067892891933783 -0.645661596509701
P 7.218520975493172 2.896647862203901 10.40778029646975 -0.2684344828921571 0.0007070533693536211 -0.19066915378622
P 2.5457968881977853 4.401643217975527 5.744663550768228 -4.2383982553595 0.6857759480320834 -2.164507878918879
P 8.191954067348151 0.5561742256443482 12.84462183043047 -0.30238538591630504 -0.12729068952957434 0.6295045271338643
P 3.909153163248398 5.891254936462835 2.9825844272943423 2.0705191459755437 -2.0435027652877 4.09075317054329
P 7.578512951363882 5.656988894774468 11.782246047262097 0.11826457477156406 0.10933281949957299 -0.13451163275804576
P -0.26042937263495675 -0.38161824857475185 9.727148171962689 2.9430762255933507 3.4369997981643907 0.7841342707980238
P 3.2552185237602993 2.326227050726684 2.767096455899768 0.6640298146042435 -0.4535847637426769 0.6123838082931775
Ni 0.9891697353088645 1.5582156806519756 3.28567366655795 0.7035497270757367 -0.4272132157276836 0.6890787871530712
Ni 3.5385710022906567 2.663747397013599 4.954880060703631 0.9299014218652307 0.1787477197582857 0.05786190531379067
Ni 6.517655094724654 5.850036821347787 8.085786532887065 -0.7547349917003001 0.9259162119652377 -2.4789437682418147
Ni -0.19149841528163705 1.3020353875422888 8.161899307863878 1.6167975995446864 0.9881320233723498 1.1045145506298526
Ni 2.454386869551837 1.2862058477279903 9.597031026823641 -0.6092917996314152 1.4387654177961866 0.8981153877028855
Ni 0.5922124397027925 4.841321691808122 11.536383752903435 -1.2009496882311512 2.5077781759750035 0.8410932046815708
Ni 5.353542933486877 8.496737736225683 7.513653641487444 -0.3990010149595257 -0.6402784778209167 -0.4422842511281932
Ni 0.6246927231574363 4.617134905224518 7.204160127136996 0.6550859751473944 -0.2674191542537653 -0.04430704944749144
Ni 8.354931442055927 9.551417984897478 3.739287523416031 -0.7097594554308744 -1.5987463984699304 -0.03882854283142345
Ni 7.260528709671727 4.316169276759941 4.481402175098534 -1.289582041958579 -1.6348207755949842 -1.3890040301023432
Ni 2.758715346263348 6.288712014487927 7.034124486965074 -1.2866928933362423 -2.1027857193187334 3.8123212101187898
Ni 0.23172253934027082 -0.11165585143425931 0.8968233213499577 -0.18168006291373226 -0.3000490244736445 0.28092438782905166
Ni 5.059052181343056 3.6919893415119813 3.588435910632905 0.40127721258821214 1.122402486653867 -0.04080983492751036
Ni 4.585949597034025 1.4730854559699154 7.2962343547598945 -2.2931527684835022 -0.6817573137909936 -1.2322634107427681
Ni 7.2943429848618955 7.555753343062808 5.981076427345728 -0.32364403818476517 2.2355669996492336 0.4077373663912591
Ni 0.6559802173443827 0.7406004410077779 5.765357144013728 0.5913408715799493 -1.5399864068219027 -0.3814275248521366
Ni 3.572710414742269 8.574408383166617 9.62222544873113 0.006473780649801754 -0.054811548523241084 -1.9960391724890978
Ni 7.984247095101732 3.7567938425357763 12.806062409150426 -0.7505237818324301 -0.4023077107352555 -1.309182846908642
Ni 5.96790372343923 7.720337824805721 9.702919872203491 0.0938375520774513 -0.29875267425972424 0.18454735715919832
Ni 2.0994856142317344 3.4787643254570573 10.689455066731055 3.4318845884250124 -0.3213616699084917 0.7332061164895889
Ni 8.93043368444771 2.243939454673248 0.842386983111808 0.25202673095809497 -0.5880326331423228 0.6098569281062658
Ni 5.037017164653198 0.435487919014385 11.09516970223322 0.4452893565031041 -1.2181254286794894 2.1682436918122274
Ni 1.924264499221584 5.38051074691464 9.22900630266806 -0.031646680371003565 0.15480663556165597 -0.5076751178291773
Ni 4.075391200206655 4.625895032011421 10.842100508233749 0.11144498074656935 0.27531604050333874 -0.9357038874796209
P 5.233864552367391 6.755581253013275 13.129763492862372 -0.3485451723018191 0.3735614918404986 -0.0428641463533778
P 6.743346802346942 5.737548618524231 2.47153925353841 1.0615442177159136 0.3096227842050087 2.2045584670828613
P 2.2892357200104074 8.356482811274818 1.407273958399249 -1.193525627852938 0.10256053377274595 1.3511566202372667
P 3.3655701102943665 8.127112407780192 6.524507130268684 1.53321849197045 2.50451955982839 0.21760557316574783
P 0.9812828343098391 3.098102909394555 8.88860895609917 0.6046676705958425 0.3401716035261432 -1.7563311109973558
P 7.8627943934983655 0.6921382677077593 6.551781501685808 -0.9941558609689266 -1.9062457085740332 0.2155314642455385
P 1.080403250870029 4.72486681439495 0.2290285448883069 0.8773622143159342 0.9315898653112472 0.20363625546984931
P 5.739945344622875 2.704566057778873 0.48137407624016365 -1.1516554699817134 -1.349056028954496 -1.195771229354005
Ni 3.7069177866302785 8.178688467081239 3.1329455472944896 0.6667551839552065 0.7224573626135171 0.2936912005764168
Ni 3.350883195713142 5.3333286854611055 12.889869789660214 -0.8123415864701752 0.07192506827507612 0.3501307716213841
Ni 6.026251927414352 0.29683917213505123 13.382192630938599 -0.12426064445399888 2.0972599044044977 -1.906497676683839
Ni 3.6519695894462556 6.6359307408019115 1.267577340574462 -0.5066785582438629 1.8850893862113922 -4.671864908196064
Ni 0.6582942656822593 3.6354990647451104 4.753912719405142 0.6460081812158422 0.9628483091048965 0.4437464374960164
Ni 0.35995574629014954 7.341785156124584 12.931664791173421 1.6384540014721976 0.48224536490216297 -2.147604932515953
Ni 5.862670726363894 8.056371829326036 1.3262627583378817 -0.9223120395537471 -1.6220285089263229 1.4626540514883262
Ni 3.0912471579961087 0.5013142800027174 5.179042694233528 -1.0803855187921327 -1.549972828610653 -0.13762189625225332
Ni 2.0755926703336267 0.2058769139462914 7.643267288353054 0.6233040547501072 -0.24743319805014158 -0.8501085208063037
Ni 1.0631152381972535 7.4914411927492 8.105025369128505 -1.3021233689586995 -0.21007995421266404 1.5753100218238612
Ni 6.350060770904373 5.016338434825364 10.022895811862892 -1.0940337057031868 -0.7299940373101944 3.280828421044724
Ni 8.401621152799274 4.4395356433878055 9.23357494567315 1.641612344595521 0.28251770045810054 -0.03921703651909375
Ni 8.414125002910803 5.646826032945336 5.655621460349195 1.8933719379351583 0.8352334034666841 -0.2320083788546391
Ni 5.558388697832589 5.9994699067074135 5.725098648301741 2.063459668025601 -0.29879381191030474 -0.3214714560134786
Ni 1.9151327869930306 5.685192229795718 3.5860568348427395 -1.6459801346459135 -0.5840114277980717 0.1876931018770316
Ni 8.755036066352776 7.2193663323729265 10.698754921371956 0.8543027613933094 -2.639105240357481 -0.1793051349236525
Ni 7.282898153259069 0.7374949156791863 1.6820010098653013 -0.0868616349802504 -0.9306526982089586 -0.06636197236500184
Ni 1.2280434364736934 7.578596558088254 5.698652912419497 -0.18987159758558914 -0.6999956911758912 1.9607222423553587
Ni 8.154749075002925 7.642137668610438 2.242590599520058 -1.1916037282398768 -0.16046151985458817 1.651351426260156
Ni 3.24256603947211 3.5470617296323637 8.493662866696027 -0.9787444115098627 -2.2206273476202663 1.8888385688411795
Ni 7.714522512643895 8.713260573075253 8.292994651678068 -0.8200723794555296 -3.8389799503568987 -2.092081188417036
Ni 3.5312693483622306 6.49852773411571 5.053575940896735 0.17801804068111277 0.4021850691144621 -2.345702003335128
Ni 2.133968743216873 1.3271731426699245 1.0871289473638976 -1.6330050625424846 0.06355021394781958 -0.30883525530670686
Ni 4.2846867002161275 0.8838661369996154 1.343795088438542 1.4390006737354444 0.40879280423896686 -0.10288269299885507
P 5.890827613204938 2.7295087305496426 5.952714239548174 -0.622395684003225 0.53246209496587 -1.145692053309427
P 8.74640599447045 3.0384262874655334 3.0097631154602413 2.5902961892745773 0.4648366825074124 1.3157633283396373
P 2.5937406998067023 1.5545462744156797 11.899541636737004 -0.27629074571178225 -1.351657471133085 -0.9892309128634835
P 4.675845405005249 1.5491582855117518 9.494025684471001 -1.5956212225773874 0.9703605583215417 -1.226095077148527
P 4.346825075696082 5.449402687796586 8.857745069315703 0.08817084070997719 0.6533399389905651 -0.31270553689539055
P 0.16437825182279744 6.985453296854128 3.9087787909159353 -3.2255126791915547 -3.8151723064143392 0.13470600815703898
P 8.519246524353644 6.377102901420467 7.710664526795962 0.4852417285263257 -0.02419202386517124 -0.2471616895563098
P 1.665009336582242 6.64302802273743 10.82061915385195 0.7422368592332894 1.536296102454509 1.6500147097266034
