# total energy = -340869.7331188638 ev
CRYSTAL
PRIMVEC
9.24863761880521 0.00000000000000 0.00000000000000
0.00000000000000 9.24863761880521 0.00000000000000
0.00000000000000 0.00000000000000 13.53631602174185
PRIMCOORD
 96 1
Ni 7.87503911383058 5.026125810459257 3.3399502897124087 -0.04000225142455046 -0.4055771255151467 -0.5013820857316139
Ni 3.51934703631613 8.264397504274 6.162123932321004 0.5707890155705267 0.4982201430638646 0.544508741717759
Ni 4.03774241726922 0.9053075067756804 3.9484625448145905 0.2871865666886796 -0.5823566658034681 -1.5150266515527715
Ni 7.233803329498086 2.1748448558859237 7.9016483688044445 2.5754902346099966 -0.9892833633679735 1.2370088958475536
Ni 8.802769942244067 0.954995811786661 12.930944612201397 0.5052621375123105 0.6033744057057157 -0.2424138904586793
Ni 1.0177293200024788 4.97929995875696 2.7117846799060246 0.02136303905680837 0.858740999670321 -0.16870807613409652
Ni 3.073608951624793 8.273572152681798 0.31283886315838505 1.17309101414767 1.1539753763641416 1.746343660767341
Ni 6.66066526313597 7.1244751855176665 4.696302749381437 1.8116247413633382 -2.413879945862946 -1.0735103889388544
Ni 7.368204529762315 -0.011533050972302063 3.946093043885076 -0.0689382177326103 -0.2148480650252687 -0.5616315174409747
Ni 4.689891593860989 3.2830720939028177 5.1236850632109245 -1.8806272366749806 0.06327947678493619 -1.3570151359005724
Ni 4.266156017800851 5.432991871705057 10.27627026890641 0.6308307021444555 -0.8478261525300302 -0.8587561691789727
Ni 5.536271406755336 5.469634973511201 12.287401292810692 -2.1308531669789113 -2.2690016251585954 0.7341695088441228
Ni 6.346785003394199 3.7445421109950257 6.773518062870634 -0.8031961725254813 2.78118105861603 0.25004492464137584
Ni 8.637765000466327 0.09413355741875512 7.931089556583217 0.027112539946075886 -0.2765121176939689 -0.3028227305640398
Ni 8.141723576369737 7.408315870633906 2.0833610331131704 -2.036327073474867 0.21439760775141142 0.02320626291313423
Ni 0.27345354033116104 2.546011176351382 8.760879163515964 0.1301494991346081 0.3000634226513478 0.5972636648222875
Ni 5.484072096660971 6.955077140923693 6.69430348261581 -1.090547032706167 -0.575874400513234 -0.16709188068691222
Ni 7.959664147027503 6.623513486266894 7.316947655830001 0.08089847541828003 0.04295284941244215 0.2328802399366312
Ni 8.651702697190673 2.644453673985049 1.7147935797874212 -0.007290620124142282 0.5596432833663524 0.1046259009422069
Ni 3.5173400819769247 6.962041364967113 11.882340565606427 0.7381408347870448 -0.16775136864778206 1.6291046990468137
Ni 1.26179161519741 2.598201237808239 11.126919252874387 -1.647156414342202 -0.13728765284128613 0.6941099218190756
Ni 1.8642756083719676 1.4460059770789757 0.5995873199070957 0.45221179465455025 -1.7359954847637975 0.050252211287332815
Ni 3.052725528132044 1.200121700294996 11.913744314264369 1.2144037568535277 -0.9841732958349179 0.45112653201017144
Ni 2.4704405592746537 2.402028387629009 7.765378018899877 0.02204798093897493 0.09920935791232591 -0.4169964230956818
P 7.644479829397124 4.936478767095566 11.71126851762353 -1.2128860346574208 2.4454101552607432 0.027535486416107417
P 2.0775306920282155 6.057265654848134 10.47597147429489 -1.1961738641090625 -0.6276569324021642 1.1276475371028905
P 6.381957571836593 1.163654322601502 9.444571743192041 1.3913172516165524 0.013570282485266953 2.13985408492594
P 4.53002889453762 7.481324615120958 9.152417457819986 -0.1391362760142507 -1.121454778028617 -0.2701344963023993
P 1.3163678251312951 3.2849680645919292 13.53956415149867 -1.0278365410508234 1.6331277041632777 -0.8607423463710661
P 8.46471374405675 4.0340244649910595 7.449562944191462 0.8394898647501929 1.0794632640881796 0.3001791222936056
P 4.870508235751996 3.8767606328074002 8.495797489856919 0.353247719983811 -0.49550762922870795 0.4943925417876582
P 4.81096550747639 8.747823786809867 12.603352322490473 0.7165204283037918 0.3179500731237815 0.37009358789655616
Ni 3.0507555683428693 6.3505584474974075 2.68358835873581 0.5744669786427461 -1.0915919290309137 -1.0057908741046937
Ni 1.5014238130260762 8.247472497634615 12.347827265968299 -1.6574655095776938 0.6615461289504414 -0.24110262784642347
Ni 4.930143450402681 0.161068721654394 10.51701322809977 -1.4683284761652844 -1.130994342087936 -0.493998134562717
Ni 1.3297691008801849 7.146172489111108 8.492820353443138 -1.3582266397101705 -0.24090542423395284 -1.3524802241446965
Ni 6.771084746342317 1.7489173527364232 5.6981530836466705 -0.2766568708019494 -1.3545769587727252 -0.779330164541161
Ni 4.618871306438128 7.680105581077403 3.920956172002462 -1.0710950946291424 0.6800069067587902 0.06305553369958819
Ni 0.044397159492733616 2.192084316200576 6.39176667677743 -0.36584741102569246 0.13962350006331437 -0.26139711642940144
Ni 6.201951340021104 8.509218187744574 8.46584207783271 1.426032029389918 -0.09224372522777016 -0.5206033958550711
Ni 6.639578369618048 6.508145981993842 10.648545501009062 0.3763071729064358 2.4510331578744755 0.4700670776684162
Ni 8.759051632744411 5.333263813457798 1.0337858795798756 0.4494969668265484 -0.6722465460870809 -1.0263087915523872
Ni 5.709526133190087 5.563693616966142 2.697612067788979 -0.964488672921797 1.9926260330424908 1.7588561914120548
Ni 2.285754516880187 1.9769795050427559 5.493795189272985 0.5174388820841606 0.5142864524981078 -1.0686705443480498
Ni 5.815913210443006 1.615339281210394 12.390345102319435 0.04880622286942562 0.0869621651138567 -0.3441894664362847
Ni 8.039109943220025 1.8492465724216942 10.54830969256262 0.12649493310115634 0.11238291917980645 0.3657967602934152
Ni 2.1172258442119527 2.033451685665752 2.9858541794952087 -0.08763502281116521 -0.466809489963067 -1.189936367839783
Ni 7.1474118065371615 6.598912110495986 13.32275296672065 2.879529354079641 1.4844474932143337 -0.47155883172259433
Ni 8.748517434622958 5.467757500097106 5.424461853331558 0.1998636758012945 -0.35047607077594484 0.39029963053078587
Ni 8.465398143232331 5.208314720726602 9.70635072839703 0.9855056414930964 -0.7775399054099577 -1.4745592875663445
Ni 5.001376456488224 1.4631437023810414 7.867130603897608 -1.341300039158161 0.9620715788398722 0.3756602833510563
Ni 4.720254870799295 1.3063238047977586 1.5301454568067367 -0.6551661935660266 -0.5802198219661233 0.13426403552361393
Ni 1.8952585440233003 6.00739700140575 0.18238128192750777 1.383692902302075 -1.8103885549633918 -0.8012362205856329
Ni 2.6663359503286475 8.120201996888946 10.04432553857428 0.24802223778439222 -0.227925209924201 1.90197690599535
Ni 3.7326946063474566 5.613543773133511 5.078460150661237 -0.06528596569200369 -0.08733806039603667 -0.19509865031248336
Ni 6.302141830143758 5.803094598857111 8.632094660810258 -1.7907648671951932 -1.967746496191992 -0.9858242011747798
P 9.307828787910822 7.035706762717221 3.7840902098423883 0.9878132065803504 -0.7990911492181721 0.5342096737845962
P 4.463531190856102 3.176213336136997 11.566740984151945 -1.1610600511250648 -0.09046272206794743 0.9081537457754941
P 4.39818031822556 1.3463241620192552 5.878645793795073 -0.1872416161619098 -1.3973655146931612 1.8039669677077639
P 1.2463556391967907 0.3565608721130448 6.593485010006373 0.28163735473567625 -0.40509170123829585 0.4022868847996491
P 2.612767841883119 3.933436283455569 3.7026698295419385 1.3340711255098894 1.3155820655667665 1.139122370511709
P 6.0985238267707 8.016025344000404 2.4486110001648504 -0.4221861948267374 -0.21679747544215563 -0.2820595298747594
P 8.166972356766196 1.9781818279187777 3.885734585781277 0.6241772013836799 1.0546194655716223 0.05702089746973406
P 3.9489924917437906 5.132697860462335 0.7953273338509571 -0.26181414936216196 0.26372165079752 -0.23265963928539285
Ni 0.6034532503853812 0.6460617233840946 4.219662192185086 0.09221724286520894 -0.38336562241511396 1.1693328326568184
Ni 7.107568676153298 8.863533490670712 11.599377576189683 0.26502597143124035 -0.31868026642158664 0.18642143425345958
Ni 5.126593759707147 6.953606607559943 0.5350336798297308 -1.193616902015164 0.6740607164776843 1.1764421900080901
Ni 6.524173870794965 0.061509913473527925 0.6432325651704401 0.8371311347100293 -1.0008057621852764 -0.011957686582508438
Ni 4.458638661614445 3.6196022669013383 2.278609019541614 -1.3394311042702223 -0.14527632747371755 0.6070377134899159
Ni 1.4283410794389622 4.460590124128602 6.713146656674325 -0.7731397194597329 -0.8697916010575278 -1.7254989561078475
Ni 0.3010875443408975 0.322098599031255 1.9295478675836932 -0.7499607102401084 0.23699066256057894 -0.11105340173510551
Ni 6.210191876040608 3.592106067590469 10.664504949892626 1.446574115207328 0.3670668852550904 -1.6164278749100938
Ni 0.033662265937359916 7.855311770026312 5.8269375863523765 0.5629942021164563 0.6642964380020687 -0.25869694388941894
Ni 3.6750108542109308 5.6036477310001 8.034074060096994 -0.18120003795352016 0.6923782838399495 -1.510643434883411
Ni 3.0046141158161537 0.11023636018369104 8.224719924501526 -0.08895219896069197 0.29947541135836164 -1.2095420578858525
Ni 6.065959374105523 2.2537357338279738 3.388328987652277 0.8180530350326556 -0.1433135473203919 -1.0212444896556023
Ni 3.2016563379211216 2.9483361565808224 9.840536435407326 0.9240071678679828 0.17517182948156929 0.15750269433658037
Ni 6.463743273318604 4.571712503785546 0.9026993909984637 0.38581794061034846 -1.220090265715344 -0.7785765742045881
Ni 2.7566303983178893 4.414744628002138 12.001243823998733 1.2677824295849844 0.21282332128575607 -0.024870280879118457
Ni 0.19055800234820727 9.099641957608883 10.497589239605762 -0.0925802826315825 -0.23260256079521233 -0.8259280669053581
Ni 3.7312240729837067 2.7880757658446154 0.016120375176200876 0.41152305868593647 1.3795076605761338 0.7633019074337047
Ni 8.351954355560915 3.3257175614515626 12.580638593634918 -2.285014198536768 -4.872422010519958 2.6762013738788295
Ni 2.185628767220089 7.948343814717882 4.430165806182745 -1.1263743268174213 -0.35204598636622597 -1.5216642114739471
Ni 0.512385616300482 3.46514077188256 4.417427657743168 -0.3680228214104565 -0.5791245320194155 -0.29208837486567113
Ni 1.1268817398702489 7.408343616546429 1.5923175727258276 0.04180562318187639 1.1482819255237902 1.4514643534200937
Ni 0.5346924051056907 4.722844489301496 12.036573619278762 1.9927484175529682 2.3873824137930497 -0.8944045145102015
Ni 8.963539008043206 6.809263121974765 11.622511193188096 -0.28324583687337673 1.5900383291729712 -0.47700031445313984
Ni 1.6574760736962066 4.6799493085400385 8.900249656713166 -0.4176050032139582 -0.7143830702458148 1.8009487497067307
P 8.362590288694955 7.461227325816376 9.218434232351095 -0.11924596484822689 0.6565340204478306 1.435434810761057
P 2.2496940792370386 6.397153083262008 6.527414593377719 -0.36033110919315364 1.1879195945200705 -0.5850103013762312
P 2.8611400021567133 -0.09299874959654063 2.3663378954861756 -1.040170637136144 -0.48839107278858473 -0.03779033137489621
P 6.012779708435325 4.8855002771522384 5.007598014939761 0.9635229665744179 2.4510532124791333 -1.6078933550765213
P 8.765248219874676 8.23187929479636 0.04350559083697586 0.09854807017924319 -1.1960612497905982 -0.18071744189014682
P 2.100300837572568 0.9116215516022967 10.04615306934583 -0.913436334330672 1.0459723314195857 -0.9995258670315883
P 6.75758173558084 8.643443663896154 6.118739498635382 1.2046435921429706 0.9085777206867902 1.1674325303103121
P 6.635841920064872 2.4052191675692214 0.6807709350873444 0.4509326708318105 -0.33984918718971796 1.0629650093228404
