# total energy = -381172.5124309708 ev
CRYSTAL
PRIMVEC
9.23111712801343 0.00000000000000 0.00000000000000

0.00000000000000 9.23111712801343 0.00000000000000

0.00000000000000 0.00000000000000 13.51067301246622

PRIMCOORD
 96 1
Ni 6.971348774163113 8.899184475314195 7.247246552228069 1.3758505234395209 0.39824896728484965 -0.5622323842497672
Ni 3.4683060404843093 3.406826801399713 13.334669720002964 -1.0839220711904816 2.7190050993079176 -2.1209587906833343
Ni 1.5888967790085708 4.856841425449161 4.426420287814732 -1.8771901859689737 0.6634135211764833 1.3527838714280445
Ni 4.634362275122155 9.391738415115382 6.951795422176779 -0.10616264930170749 -1.3109185986528262 0.04677325159979687
Ni 4.565812000431133 3.6863911791289925 7.905202722959268 0.8096097893613089 0.3935978416660834 0.9378139918440881
Ni 0.03118271315732235 8.736042944932503 10.73510779092211 1.0142222927014983 -0.46276771579352555 1.4330889362366996
Ni 2.520196477736451 1.053122749508574 1.2322534976107515 -1.4729299794930375 0.29650758697928936 -0.48498153288640344
Ni 0.8942709191873336 1.414770219421072 3.8108746378232268 -0.0715427452349929 -1.2204198811406206 -0.16098756756138727
Ni 5.233775625079991 4.565544298038723 11.873989463395205 0.4447077729680212 0.5948015764350402 -0.14244811399630308
Ni 8.686047215370616 6.805825615600666 4.836794208704414 1.0451413508778582 -1.131328071278271 -0.012753700121242552
Ni 6.177094238115401 0.8343609699892809 9.360626781558803 -0.3569071711132692 -0.22011574118211122 -0.35191460299468424
Ni 8.729765785386329 0.3860517738716492 8.756577564653776 -0.002822557050459655 1.0294259970251303 -2.556924041572035
Ni 3.973977397513605 2.8594123333883528 1.7762755301320827 1.404871593262219 -0.0376805452699093 1.599786923919303
Ni 6.085069232945079 9.073994137558191 0.5408548362856067 1.9557494717311157 -1.1503678615185415 0.8370892257285002
Ni 4.439991875998242 1.3722424634957362 13.20692583079151 1.7780165663905891 -0.24317082322936187 -0.056338269580412645
Ni 4.221445181504575 8.208078440397307 12.972596695597703 0.4242844721166628 -0.7502712995019918 -0.6611311529002097
Ni 4.427649872596424 0.17013779394058393 10.940929390659301 0.43117965657459933 -1.131320615079103 -0.8956394153585671
Ni 1.3963726032805914 6.597811625580802 6.732962563056742 -0.41878205424119486 0.33716032750364516 -0.5780593239796948
Ni 3.335091791350704 4.7162422827318204 6.007385691114371 0.7563463020514781 -0.13185876851623096 -0.36305210766874246
Ni 1.9271895229625058 4.254151028963543 11.349127537276875 1.0034869085618652 0.7645316660757479 -0.4342140725255489
Ni 7.512079913481193 7.522677235773853 2.1858915763177333 -1.07793242926595 -0.8403403856759463 0.05236925763033561
Ni 3.789521218025856 1.5847150830167807 8.67856724128199 -0.07773550430926612 -1.071983924991999 -0.13636308414448772
Ni 2.414740197360711 6.179725106454606 12.510302357255872 1.4026866697957585 0.29867374139267266 0.5454873035809443
Ni 2.6915906266979683 6.6433671878754685 3.3451481701883554 -0.442109930333858 0.06530602029666172 -0.2637486473807135
P 6.4684929078126165 2.798570041375354 12.658459938556167 0.007891229822618669 -0.2712750376647457 -0.3031885985438907
Ni 5.749499668500147 5.339804234708471 9.097574102771057 -0.6866789194623271 -0.9911888079208027 1.560297864685745
P 7.111874067944616 8.30313125193696 10.332921870793394 1.2705795327141471 0.20397358420461004 -0.8657997062893154
Ni 5.657760827956195 7.571426764543485 8.667528671597701 -0.236994776325637 0.8549167408282243 0.791010686202883
P 8.761354667690757 5.389652266398684 7.753572395451223 -0.8745769382613131 0.27035766805679895 -0.11322932634050178
P 8.448798277876138 5.51030296532296 3.070814143339756 2.4861986500320152 1.4646654254914 -0.6315187293504156
P 3.8251164050994606 4.921579248827581 10.288187877909918 -0.5634999381082813 0.015456700874702413 -1.0990620121557135
Ni 2.1971350767989706 4.267120748319978 2.4384604755516692 -0.6104256561255423 -0.3442725130683942 -2.0396029160126616
Ni 2.410816972644352 3.574971597184386 8.974342383539266 0.21509849047317794 -0.5210273707663672 1.3661029571344536
Ni 7.3248359366655835 3.6210256397959553 7.9670548991698436 -0.5610118815791048 -0.06647278691125326 -0.24295845010823966
Ni 0.3234795705366598 2.6214433687694623 1.7129509907632505 1.4345128131674196 -0.4386263426606317 -0.6493238758526365
Ni 1.5298730170405663 8.185416048212218 8.892968241140087 0.030435433671721773 1.0355907310749455 -0.832611906683437
Ni 2.728468939031746 8.97412268295515 3.0483594512867107 -0.7892893326364019 0.42866794589633916 2.6768202384097513
Ni 5.0826899334737465 7.307250658819314 3.077258386103263 -0.12460440094666284 0.0389090183603717 0.9136919019849038
Ni 1.96529557385458 8.569208967758943 12.543592534419654 -1.0471213574223643 0.06631235007398903 -0.16542554872808285
Ni 5.849768061133313 3.7299066645711525 5.852837407529053 0.6821293524184316 2.7438931207988486 -0.30626543769700154
Ni 5.492662300774812 2.7480296759116656 3.626075060783834 -0.35376913970491974 -2.048698964776659 -0.33733670518050934
Ni 6.378406437208025 3.0256739813091738 10.170469904850082 -0.2897931510735912 1.3182135896523426 0.5252504077087793
Ni 4.645716549007148 0.539898492566513 2.0737261201211696 -0.034115453626470275 0.5684904493443371 0.7526323435350005
Ni 8.92532699860062 1.6940945881088803 5.858781323752261 -0.1605905892332847 0.9002748572480495 0.9109444211467537
Ni 4.098975952535305 2.5667028450800244 10.849854267426188 -0.5371448451535201 0.7111097988111817 0.6014838735512222
Ni 6.4636650336322505 7.648045035474739 5.332649195937529 -1.3039745632348252 -0.10558672219357944 -0.7198402367056441
Ni 0.5855205189034338 7.8333504777246175 2.106408889787688 0.4653727575165405 -0.044272596665130205 0.6963444675765491
Ni 1.2207967583272843 4.299577355620495 7.185110980726218 0.17803321018976434 -0.8865744769428215 -0.7832163869694446
Ni 8.88315002512051 4.133666490144901 9.733061734773742 0.9876936502833507 -0.580271244029349 0.049354896284044034
Ni 4.221528261557393 4.7518190075714655 3.6017289128616548 -0.39013379437688295 -0.4469441184977077 -0.6720917656767716
Ni 0.3814888327485987 8.779419963619969 6.559850503225308 -0.0614647921737006 -0.242991103118388 0.3343542255134177
Ni 8.147550006361616 2.528661412006808 3.8203993043228492 -1.447421807919604 0.6105493261876002 -0.8778031585080948
Ni 6.484924296036428 1.5782163766630937 5.466729323843827 0.8587199166243985 -1.6176797450393239 -0.9331047592938768
Ni 3.0990798235315027 7.219287345120047 10.420254699202951 0.5848598918412959 -0.682987843763985 1.3354803471525905
Ni 8.058654349847401 4.248160034043738 1.2690219596524717 0.012454423713268874 1.2078469295716165 0.15021053155054132
Ni 8.619970880030143 4.356671814139749 12.265447902481846 -1.288190818038007 1.7793375991948581 1.226333161301262
P 0.7510575241413506 1.9459471526651935 9.73512858186549 1.288890415208193 0.5791924091428734 -1.31988403537623
Ni 1.5261990324826582 5.8674364190324 9.155642444131665 -2.149572854875601 -1.0622772392271964 0.397883870635947
P 3.6285859246023042 8.284465933404068 8.674608938321107 0.5828634302365575 1.4557840638413702 -0.899685817513799
Ni 7.521080252536369 5.7804054481480796 10.652840999510996 -0.8075336235585706 0.2496435754378991 0.22273363842093255
P 1.5931430928192185 2.998137559358821 5.465066799675789 -0.1101512016358103 -1.5846714084341031 0.1505352618798117
P 6.471963807796972 0.2758922393947675 3.252140974171397 0.1909244643301357 -0.2068277658239535 0.3536107597501845
P 5.248526950013503 5.839272281127429 5.057409596513224 0.8707948455110616 0.06470926725292726 0.9324522133115425
Ni 6.721287046300856 6.0943557366266266 7.1517940333231955 0.771630224793742 -0.6502566720795511 -1.145616462876485
Ni 8.226716065579259 9.00652390355379 4.563999932168024 0.08797183732529366 1.5017062802947814 -0.7472050018718422
Ni 3.3417012711081466 5.938340628553238 8.005438806683005 2.399970791981022 0.6518965216758192 0.044651834381419876
Ni 8.282416625434582 0.6496712432419465 2.1687872396661043 0.6291193758803036 -0.6354355479063185 -0.03205728554586092
Ni 0.4545558929777738 6.386945220414219 11.110136688008335 0.31121506839279306 0.4388615985998893 0.36877615463671326
Ni 2.6424718532491487 0.6070631765988876 5.653581901299498 -1.1581819582463215 -0.345467818928076 -0.09678660740344622
Ni 2.3205828041680863 1.7660419138484218 12.559737758017095 -1.1416939878936272 -1.0318682879180359 -0.7448814959449881
Ni 4.698075444515832 0.13629651909311685 4.482732870725808 -0.06036436002067024 0.4318283459021918 0.2474653368396577
Ni 0.5032177261360997 2.6777070267605456 11.748759207337315 -0.0027978744601113107 -2.7341861779237298 -0.23974508537726452
Ni 2.9313596591278945 2.2995173952204806 3.764357193139278 1.24414447845107 0.40146258912614086 0.48193837518470545
Ni 1.3774765068232084 1.7259604039226981 7.52067592961266 0.5409577911417071 -0.09362029386032264 0.5767953696656065
Ni 6.43017454123001 0.5155781917718767 11.93195072379885 -0.85019311010031 1.1462774934992517 -0.8882580352928315
Ni 4.058682126919049 2.3781480496533023 6.077195090161421 -0.9327985409073677 -0.9817425749062384 -0.59655686856325
Ni 6.646967323497539 2.0851985523035026 1.4030559319738716 -0.9011667729346996 1.00902275077843 0.03469652294092088
Ni 3.7507136022433274 5.423807399223461 0.9130959360439729 -0.7704706572680021 1.447773534832068 1.1787505264262925
Ni 3.6025172502517187 7.170482429648536 5.62369616007782 -0.00016789303643196892 0.748518321366627 0.11417163564911303
Ni 6.897822927420049 5.943630058582589 13.099543016302112 0.06096188439535308 0.46834212455750956 0.9023577079190073
Ni 8.58743119267681 7.284809813441738 8.835250682224705 -1.0216363257773824 -0.9642032804708942 -0.2535555088977956
Ni 8.235522551177864 1.297590420481152 13.171298334808478 0.04230955940148843 0.9020257785008852 0.17867418620787293
Ni 7.873699690042752 8.099622047003175 12.578828631042748 1.076866449895281 -0.923443839165345 0.6295752324707996
Ni 2.3634244180707302 0.6637560815295257 10.564805683099287 -2.015846179912696 0.11684661137811489 -1.2131855681757104
Ni 0.39322250554145616 6.326619870952082 0.016700936839617406 -1.4658411909670561 1.1686067531240711 0.8173544663037342
Ni 5.674903012187441 4.255212607416205 0.6925073184744032 0.7547434763407324 -0.6935522495433927 0.6636338647174055
Ni 2.806684193200483 7.806312536091166 1.1612246680106875 0.007138667927310286 -1.2131230903688914 -0.31946522421672724
Ni 8.095800364573591 1.5831550242472165 10.597866005450275 -0.7844381751916877 0.6740139224001489 0.9353735007233955
P 6.013731160926196 1.892895923383035 7.451932724576762 -0.7139439258258672 0.2834972907625504 0.940091217914039
Ni 8.257446454004576 4.1647291987814885 5.696978305332621 0.706959266977918 0.6195013931745653 -0.12440951132703734
P 1.276072686801543 4.489027569394244 0.4162015250389466 0.48834762114515895 -1.30473201022614 -0.41602686009356094
Ni 6.763057850633858 4.614921542762972 3.565250307893096 -1.670406643119394 0.16812032195142657 0.67546762412754
P 0.5209885494336607 0.14991149352643088 0.5595570792864164 1.194727104360207 -0.5707357937350881 0.06761127139107065
P 5.2830236341665255 7.009759451915516 1.0233311656800879 0.722211565151298 -0.5676499557209127 -1.5421433052639053
P 1.5670559562346735 8.174338707836615 4.774549710022203 -0.6363367195643493 -1.246877561111517 0.012272132499133705
Ni 5.7576230514422555 7.209936223619643 11.404291769235678 -1.4905011556075813 -0.5047833981036791 0.311210954627735
