# total energy = -381172.48637715913 ev
CRYSTAL
PRIMVEC
9.19930231073102 0.00000000000000 0.00000000000000
0.00000000000000 9.19930231073102 0.00000000000000
0.00000000000000 0.00000000000000 13.46410881148320
PRIMCOORD
 96 1
Ni 6.263188594203319 0.2835740134944602 5.10095885874074 -1.4034371748085377 0.6322388953458918 -1.3549070884186343
Ni 1.8963165816628886 5.591731518105509 11.548381880441125 -0.10740372079766018 -0.292823967480115 0.3118377895784565
Ni 7.425014480294193 1.5205526799315934 0.3954559282704784 0.5001374146912355 0.19768697986494985 1.0056867444266615
Ni 8.00713713159428 1.7578762810984836 6.14060329118179 -0.4965352991622739 0.08041639357553894 -0.7637017139752847
Ni 3.2451918817597467 2.3911930497911484 8.058726818986477 -0.6645211524183652 0.533295646610759 -0.2920557218555228
Ni 6.153036148262845 4.321685039560673 3.0735595785063636 1.477965999255048 0.6168127905988087 -1.844788115489184
Ni 5.767143814680835 5.634655462715351 7.9603715583369725 0.8952216110948582 0.48192834788237643 -1.2186954422503464
Ni 6.135539075256433 2.535539302442892 7.4027153714784495 -0.9224490793522436 -0.04644877838084258 0.4994254762258754
Ni 7.822405941772111 4.3518403525549 6.774237435804382 -0.3401538629143303 -0.06198158390911906 -1.2067914917239086
Ni 7.678832430514972 6.830058802262274 6.940815642364957 0.27397778130788947 -0.40551284793611453 -0.7132386722287265
Ni 5.426364859660048 1.8228877505707841 2.687153003924848 1.990252904824624 -0.7122755369845087 1.8671181464449522
Ni 7.411362715656172 5.570260346498271 1.1586475271404455 0.3962954431029046 -0.5338427773634806 -1.3835970001541589
Ni 1.184768946068788 4.5783179762903705 7.295836957232499 0.9601465939030174 0.6655709338391183 -0.05124414288695691
Ni 1.895267861198782 2.7935429352177814 11.772491603760269 -1.2402289454467479 0.9939897677047076 -2.0754595206999547
Ni 1.956912386023161 0.544962069591673 6.34338627194007 0.9718322577710617 -0.41681850275692084 0.687128862515552
Ni 0.35888226204987195 6.7163738242321775 0.045218250607633584 -0.7690552649777141 2.771365100966872 -1.9245614761640852
Ni 3.819163951207215 8.57309660872388 4.988789005802209 -0.8487383799316545 1.5778099054275794 1.0894262888381623
Ni 4.200843004328164 6.780023796961602 10.985447133913265 -1.7795898244149804 0.5795690757560018 -0.14372003873019118
Ni 8.065009942468802 7.90652436215625 8.990793690205505 -1.8365770404333015 -2.0593518165048144 0.018021119167768964
Ni 6.8567735761900455 4.170614096915403 11.932930195954661 -0.30165956349387407 2.329341302588918 -0.06737652967244526
Ni 8.546805002702676 8.048359205275528 4.767991031317084 0.7543333853865073 0.19412754464846566 1.8668594934669267
Ni 1.0004149276416048 5.1706610524643395 1.2232974640316987 1.1960679346588177 -2.7532167121926197 1.3751154450457093
Ni -0.012385940639239503 7.418133402161282 2.3929353976499366 0.7973350857590139 1.7696807928313845 -0.8155186986465761
Ni 4.258697416598053 0.19488445978913926 11.356409919765461 -0.4958668123403396 -1.9061341226968336 0.05608758702218728
P 3.0993553421326943 4.774401105171379 1.968021463500839 0.022589969485374 1.2034344023262178 0.06035176161517994
Ni 1.6342100600547396 8.294909706666093 3.9249356893844634 0.17937249782647818 0.3170625283125056 0.7915971548339722
P 9.167721111872396 -0.054849920133245404 6.953013917236935 -0.5748870968993003 -0.2885294538698192 -0.3246256853717442
Ni 6.021854097226337 3.195994012969898 5.100190716997294 1.418417964488086 -0.7220403296807565 -0.016850238788119365
P 4.526102736340635 0.10191723050654085 7.133176733528619 -0.028143809424067655 0.8625117795666629 -0.31858333583240617
P 6.953228260980915 5.263675198188753 4.853286042467533 1.4055115408390633 0.08055394759466772 1.0431469461556484
P 2.497224208293729 7.838633511058815 12.155101626275673 1.2319474221642461 -0.8886706973502179 0.7848999453194546
Ni 8.87880782331331 3.141359356510864 11.404207654742706 -1.3807487320720864 -0.5892235681266303 0.7958248197620745
Ni 2.949931074602118 6.581824828547748 5.493262186107277 0.6440834533893036 -0.9130036176686276 0.19572085727751454
Ni 5.903771852688845 2.1977501206750403 12.068486515242773 -1.0775354509378474 -1.6698307160112662 -0.8092858303629868
Ni 6.866386847111024 9.118376054245479 7.164306252638187 -0.023992506259855453 -0.38127942931004655 2.0863180606810134
Ni 5.372604136921102 7.353186327805199 6.091351146508273 0.8172683343478312 -0.07353586440562174 1.8722927486673562
Ni 4.046607501685941 2.0325306510666463 5.797389280837765 0.5513553323259472 -0.6614029185043577 0.8809692149409022
Ni 2.146142034678209 7.358107954544647 9.320421250957958 2.0380610254468388 -2.3303198644521026 1.6241488977034353
Ni 5.543821551640002 6.386569636875244 12.776200801561496 0.829506528285236 -0.7998244278397708 0.2381934246194285
Ni 0.13312586361603285 1.0198990499484297 12.517420747671073 -0.5367571227967982 -0.359472103626968 0.5325993918746827
Ni 4.6962254340838445 7.714534922806185 8.746945023905361 0.8783145509268744 0.21035429091997318 -0.24492971490199755
Ni 4.980999036600405 5.9690685005329644 4.378636080343059 -0.5927223253085083 0.24171840705355144 -1.3645394693020756
Ni 6.575118537158854 7.897269864025625 1.1343898868614715 0.9561480142665856 0.2087730624757824 0.31579266046114646
Ni 2.028225377582419 0.07988306159751941 1.203040600330269 -0.9890432223327096 -0.14783920310488732 0.3970276932832388
Ni 3.798364328669098 2.2140696829849116 10.629550045465171 0.223732254888776 1.4166372184385798 -1.1415785453616858
Ni 8.208785838376906 3.167742955555233 2.300786906273527 -1.140397637679707 0.16274465946181005 -0.23612188680238042
Ni 5.757953711666426 3.4477421201694134 0.6154324050587187 0.684495538657763 2.6611316240299008 0.5125478725404464
Ni 6.070122836482197 9.02959358758676 12.705540960466724 0.696726019285684 0.426906226010226 -0.1581704098275663
Ni 5.124756533903879 6.1129179908596045 1.5800132903859818 -1.1181925623375775 -0.4796894312495286 1.6460896636405846
Ni 2.863282846080879 3.839476010722545 13.410252594509267 0.2623268273325224 1.517905258652147 0.4464350400717731
Ni 7.715197272572989 4.507244166591348 9.06883137175829 0.0058497739125576665 -0.8618096112933159 0.539304057588368
Ni 4.293249996099674 4.374075066254426 6.306049983557408 -0.7083782588126316 0.576358282128188 0.589772755761881
Ni 7.854318321508832 1.615461881933253 8.874275327061858 0.5524223401378809 0.5765685983667812 0.04804389078210435
Ni 2.8666405914264836 7.301900217389453 2.2031188335070815 0.1638180950316469 -1.4173848952378816 0.31785519941713
Ni 0.3385104070694828 2.493443295041555 7.520055232318981 1.8135888070682442 -0.4834861792877996 0.8896690567077452
Ni 4.914037315036959 8.562158638269292 3.137905018490933 0.7115075484702328 -0.604658671734778 -1.8335827336916681
P 1.5645161457032257 1.7772316131728745 9.489342519818603 -0.014093759088904761 1.45857473921263 -0.20285643988103128
Ni 7.075578981793367 6.917268188224834 3.3171663031555774 -1.8531123190841634 -2.100838108674059 0.5327212621645278
P 8.734939934382034 8.829039597779822 0.6366717542475749 -0.19473895298021945 -0.6277291804009963 0.25030203495750436
Ni 0.7540318535532033 8.939661208138448 9.080302901747247 -0.7320300939036167 3.2364532373634582 -0.4778014701981964
P 0.3663879728100884 6.1995478207762105 8.790904809956068 -0.6793690160644751 -0.9317919540197243 0.31561833966681124
P 2.3709085881827683 3.5413634198467316 5.334035142027998 -0.683303575232191 -0.15056560089711488 -0.006588194740478977
P 5.161930914565767 1.5048678694815762 0.6163909723601215 -1.2648315744867766 -2.4542416375094445 -0.6522711314064186
Ni 1.8730607454062063 0.48100392023463745 11.306889155464296 0.6002785403892112 0.28117044240158673 -1.563042774420734
Ni 4.226978222209982 4.448718205252339 11.555800197829333 0.5691414526647747 -0.25758956975785313 -0.17350806862590118
Ni 6.330923057161371 5.96000718775099 10.262720506143879 -0.15704863751829726 0.5650474851010591 0.31333391450800874
Ni 4.10249326326005 3.7674362742802656 3.698334794997949 -2.0462049947102114 -0.20851055284301512 1.4653290272173278
Ni 3.563276157965172 2.631083256304405 1.7926652826696452 -1.5841278772258072 -0.9486223953135016 -0.705297563004779
Ni 9.271240860842509 1.1012760782421855 2.3013664623194803 -0.11133622308284695 -2.0984886346052765 0.8420424559687175
Ni 0.8928125283033275 2.4552845890317765 0.7828284295952499 0.6673586218671603 1.4305995941559426 -1.8174940556599215
Ni 0.5461938561718825 7.708941746997615 11.352249995257838 -0.5530800283265378 0.40417201763750393 -0.9333315305927021
Ni 5.644149142706212 0.8118660273579945 9.336094102314965 -0.5196916826740793 -0.14211438480596814 -0.1772935038102624
Ni 4.095906562801274 8.292517888063745 0.39309722715646983 0.19502871630649637 1.1667031083434551 -0.007967848696824986
Ni 7.514735275789219 7.191480991681795 12.17805756527683 0.678044897936413 0.6790077760703145 0.03934687722873869
Ni 7.401491864270326 9.040476362227446 3.08571829637838 -0.5638426661596806 1.4439567321891391 -2.0180768690154274
Ni 0.7951573345601257 3.8902009636969703 9.63420301346985 1.0616090095155781 0.2556311604799017 -0.7140040896398414
Ni 8.745969897859789 5.627388013885138 11.062865702420133 0.18481320922607525 -0.6610169959198487 -0.8103960327080302
Ni 0.398567132313995 5.9248566535987806 5.620982539682002 -1.2602881780904682 0.9167047206692988 -0.9075222828390822
Ni 3.0528252710146955 1.5068641180843056 13.122389866274748 1.6400432003361882 -0.9272107624069451 0.9326396467320002
Ni 3.0102968964044723 1.3417182428944456 3.957061492934933 -0.0029626821727497367 -0.29099025670548595 -1.7880824352670237
Ni 4.809956408625524 3.886263662305412 8.940626214951473 0.5528807678315382 -0.6636338647174055 1.107158416010603
Ni 9.132901752603589 3.8148586777229867 4.706998737026962 -0.6620629206858598 -1.2633081958637147 1.319288053663444
Ni 1.5588309768714892 7.246575613256664 7.077745417488956 -1.2093638804367752 1.1074417515789765 0.7618258371088106
Ni 8.802334023154367 5.348382373921163 3.042686719931432 -0.7064982681810994 -0.7322440096866357 1.4166374755488955
Ni 3.3811667693032694 6.17201430894225 -0.07410957946354237 -1.6398933050218854 -0.7484828401430013 0.41289577066374705
Ni 1.8228417540592003 5.33794116579168 3.9497774853605496 1.2070794552779727 -0.5505158671437873 -1.5889569231833345
Ni 1.2934863008478528 3.0551710931054603 3.0080430673368745 1.9307825173731328 1.034701900712089 -0.403770154213395
Ni 0.8060134312240936 1.45144752092835 4.581863387403237 -1.18714723513042 -0.3086894737574619 0.6844837115832212
P 6.390166564081084 2.839751030754695 10.065808520124133 0.24292708264967194 0.36902066654735155 -0.7487828878819234
Ni 7.920074934468787 0.18429698275281964 10.695833778447874 -0.6403229579056069 0.12819726050424374 1.6524863111955477
P 7.7140749576903485 1.6664536146748634 4.032567526490155 0.14159013687138194 1.602326916732337 -0.45582188060331175
Ni 3.09293422911562 0.25404517298800233 9.05124690537987 0.842759022419768 0.4825024752182916 -0.5701033023574117
P 8.446008247218312 3.869631323716772 13.47797693823477 0.022308176578897065 -0.2918397491899748 0.6652665152248219
P 3.619621884655117 6.179438145911848 7.698966023565358 -0.5241857138896908 -0.6163931865628868 -0.8581110793958061
P 5.926871300806144 8.149615925875727 10.622024096239857 1.3022516670064475 -0.12278971633542726 0.14394963824249402
Ni 2.925387336021094 5.09286255277179 9.49144272053751 0.027043891491669556 -0.4906919530076194 -0.35562830440084564
