# total energy = -381174.9274240096 ev
CRYSTAL
PRIMVEC
9.16119059743409 0.00000000000000 0.00000000000000
0.00000000000000 9.16119059743409 0.00000000000000
0.00000000000000 0.00000000000000 13.40832846667754
PRIMCOORD
 96 1
Ni 0.7686953356212132 5.456615736423954 2.007347831523496 -0.057053807590198506 0.29246812680259304 0.983425619035616
Ni 4.430855564677871 6.958977679880867 13.400537736261281 -0.2257515993116499 -0.6572811830265003 -0.34043488448985887
Ni 4.595848604592373 6.856234929040159 9.213827896942739 -0.41881007926565295 -1.026968279513257 0.047483390292944024
Ni 1.6312782153989938 3.410628751960569 0.7039532027463777 -0.8505810895673481 0.30548690765976416 0.5724679459348464
Ni 7.042252901025943 1.0554699123592275 11.462176417145791 -0.7447264584243626 -1.0476180945531248 -0.6317411297738669
Ni 5.3725160081388275 8.927323575322852 3.806463636470165 0.35209458021597423 0.728669662071816 1.687639976278545
Ni 8.079730235351185 7.467652779339652 8.671393810694118 -0.48911869498322863 -1.2196783749889057 0.8814592672034431
Ni 4.787088455131808 2.539197994451005 3.5493722328930044 -0.0418462466118247 -0.5622609234948575 1.3160060404780627
Ni 5.105907043808353 6.946784135398568 2.2109259733542608 0.5299089895267132 -0.14652922604421215 -0.8993420610211349
Ni 2.4239410574624234 1.5465188814018271 7.560822086165332 -1.4695253246868627 -0.6556197361636773 -0.5836072503811175
Ni 6.571010425725439 8.320046583104501 12.838648945983653 0.5722440028494984 -0.4403034732527385 0.740776472637679
Ni 0.6632482013611409 8.295851879139247 3.0703995450950075 -1.0480410410231564 -0.32385846818841646 0.49179444204317885
Ni 8.241516858609936 3.4588532584630642 0.9829618383441631 1.251360022362903 -0.20259752979268977 1.519914832883008
Ni 8.543790337342806 3.9533468351129857 8.45302584300894 0.1404670790105323 0.8976680157528216 0.10471254711874223
Ni 5.216940672001789 2.3096277230896773 11.708809405710937 -1.8464120242458524 1.0072201503520524 0.08698581926294051
Ni 4.003962412321626 2.589758604516976 1.1825759330693755 0.11508874814674373 0.14881596519585982 0.31560496993037257
Ni 7.598987605559214 5.195979868263622 2.6626257971974843 -0.9607410329539067 -0.21836019194358522 -0.23440721810411888
Ni 1.2714083323383905 1.136170838989258 10.820668636829687 0.49867368566151543 0.9997603516398975 -0.4105668654202542
Ni 7.773141835918718 2.8080148056787246 3.3880161855851685 -1.7258427126005118 1.1827200525970019 0.01981523495371426
Ni 8.823967024722329 8.651993157688736 11.150968945490956 -1.2749262397186172 0.7523436086499882 0.46123302431655405
Ni 6.552697206025879 7.84282185044341 10.568484882973914 0.030530821599005484 0.19193002277651464 -0.43454831593651616
Ni 7.96855002811063 0.7071394647831497 4.107748622754019 0.3018500822381253 -2.056039207191814 0.48442900281704315
Ni 4.715502912994555 3.291973013316892 6.26811215380422 0.20105512500623438 0.31495808037499307 -0.39358652881217376
Ni 8.650417432932194 2.3410964122682625 5.73923388105707 0.41825266410028616 -0.07274884972795213 0.4525956603565302
P 0.11088338467013693 4.93490426296193 13.037171942926866 -0.5498777193391563 -0.0407949225291749 0.15836529944719177
Ni 7.52507512104893 6.2898992969205265 0.47390105276764327 -0.9112755792339273 -1.2784265395623917 0.43500905762301856
P 0.8916000343932828 0.5535750099487889 13.406182861813493 -1.2269995912406675 1.0292187661103307 -1.9806981712566534
Ni 4.349119423527555 8.146625247980596 11.484434445450972 0.19057865095494275 1.1282640876409666 -1.0968364652593046
P 6.747427470124861 1.7652972704189411 0.054421135719495146 -0.027018180460056693 -0.009160326343029386 1.190416135689679
P 4.197813202137887 9.152120866462333 1.862403140778838 -1.2245148771456007 -0.9662884451346971 -0.14626234553607068
P 5.367724705536091 5.139995833454209 0.5895565015405821 0.15449141831408233 -0.11015968627624254 -0.17670523540696018
Ni 6.090167022838574 0.9227792299538057 2.0936838063962475 1.4924479949213072 1.6876456327055 -2.0039501998060585
Ni 4.040543045768523 2.820996212539294 8.47293677432211 2.1043450933860535 0.17866827267060198 -1.212744109762918
Ni 7.7440184114940545 0.49507897671935647 9.368090434489009 0.13921289488845703 0.7747687704227239 -0.7742422084952924
Ni 3.301977033282835 6.103533199697832 11.21484626198778 -0.7760535506724183 0.06809926677108272 0.6349997459204806
Ni 4.226258698469621 4.84100206090065 4.387995851299969 0.5189329501311838 -0.8181702773368102 0.16560398328747608
Ni 0.5131457603959466 4.245011655310542 4.244513286550334 0.7128067268976305 -0.36583326995830545 0.28394826225704
Ni 0.10428641143069034 7.840650648307945 0.5859946306955651 0.30531258686542906 -0.2855850265295146 -0.03377169713380635
Ni 2.8003926952284823 9.021024231194342 3.6399855675845276 0.49534564972954687 1.7515678852807575 0.1700008268035911
Ni 8.758565286135454 2.180812224242492 12.362049922629957 1.3152817607175282 0.016842011258003255 1.1249931301991785
Ni 3.6910619526725523 1.2339115798469937 5.41263377721654 0.2954909727893169 -0.3281650659835703 -1.0318096667659586
Ni 0.06055088824624657 7.941881802725227 5.516374181696707 1.4144638649363448 1.7250040187492999 -0.2016611340213495
Ni 2.7897657143122787 7.74540175125125 7.554895712066459 0.9240210518250538 -0.07837545188611018 -0.3794511178520562
Ni 5.761252802291635 5.600061656411809 11.286353017887206 -0.5665204701021598 0.8907777163908918 0.9964809095576773
Ni 4.259843622641002 4.213927736130647 10.232525706974767 0.17939383798271685 1.6880912048833507 -0.015988919229088593
Ni 4.5196641448517285 0.758978977035243 7.399318543691331 1.377842357058569 0.15699104480748444 0.09229951816637008
Ni 6.185974752512413 1.6502052348583698 5.458369188275127 -0.3734617330378407 -0.6307157738331461 -1.5991824575660847
Ni 7.735452698427976 0.35041828287849386 6.8014821582265546 0.08852591005655078 -1.528564023917574 -0.12495792763133964
Ni 7.769871290929853 4.403362832152418 6.233612026707384 0.035497935796293706 1.2103424422999605 -0.797421217714917
Ni 1.860399588428516 6.1558619195196895 0.05812866949258781 0.9634581747747537 -0.6268120679033656 -0.4757641280531936
Ni 3.3978672136706805 4.929389226314038 1.7979898946409785 0.6071125325919092 0.9334652279570892 -0.38532094636927183
Ni 0.9420452134596468 8.61968163898921 8.806723832066746 -0.26742069691566206 0.5508228568612449 0.21996918830191792
Ni 2.6401817967262717 8.540886239971739 13.268721031424313 -0.014582268689549082 -0.08217734213070363 -0.8276435069345681
Ni 2.15942084455341 1.1392398377883337 1.5706109800340957 -0.3373058519425739 0.06524842758584891 1.430707837599033
Ni 3.3323372184175746 4.326014901225258 12.699670938575824 1.8410026803048227 0.14232572948582584 0.708029103003329
Ni 7.38301254081827 7.876599159614136 2.549432876416162 0.2600501154832037 -0.5884110995276641 0.22276192055570668
P 0.761998505405916 4.399606744069966 6.573419818812475 0.21864455595322344 0.2999127560060964 0.7577835487186368
Ni 0.9113249935404185 5.421647472495378 9.772351781969919 0.27800669996162447 1.0929289026747822 -0.52724738353415
P 2.3634497169540696 5.755243061359713 3.798914815543483 -1.305811102222932 -0.39554159565601554 -1.8327283561111727
Ni 1.9210833139362151 3.3630180452178893 8.986141166336905 -2.5450658566818682 -1.8184839303770164 2.1491316535731246
P 6.334633389863475 3.9675008743505145 4.713845653643054 -0.8233016850261048 -0.031505012586816705 -0.8566422081597634
P 2.3973094768388 7.311637706061253 9.77345112482332 -0.4452698161190783 -0.15987145167907307 -0.4123866922378124
P 7.169721704877713 8.060922311367595 5.118281063742419 -0.7137361806904353 0.8152726440740411 0.061456564643584476
Ni 1.4805491490073615 1.5203728438717887 4.7067658856671555 -0.6777319946816844 -1.1699766368884044 0.179736051813484
Ni 4.5943553305498375 5.768563432266746 6.681048232517503 -1.2858192324820372 0.3019485554892025 -0.566026818295193
Ni 0.08241681760037946 1.6557660774584866 8.101017177469194 0.4838674738866184 0.8461955589051426 0.0769510607347578
Ni 5.9817626563028545 3.553653257187954 1.930731879712892 0.36885765860692604 0.7407119379483307 -0.9689773048207698
Ni 6.680202654639429 6.557964890531755 6.784158347095055 2.5224733160933335 0.03973151426166706 0.2793061354993383
Ni 3.2840485835819644 0.1482372225905917 9.458073479277918 -0.014531360846955619 0.3939485401372828 0.5031589751263786
Ni 6.09395059449236 4.442343697495904 7.845923829528089 -0.8050967319823038 0.7452255095479682 1.7104464326500994
Ni 5.113281802116581 8.075305380366249 6.150936863536455 -0.7965791814295959 0.6438420268024588 -1.108592063133336
Ni 8.06371647445332 6.170620597326589 11.52309008853366 -0.3300378575262509 -0.7650970516609146 -0.41590601824498047
Ni 2.870805604988774 2.0115409083901734 12.649631600246176 -0.8816999224593395 -0.9826157215398111 -1.2778704099486058
Ni 6.081335635249591 6.485234199588877 4.262105520561873 1.1132233912577603 -1.6210545750488274 0.6403319567666713
Ni 5.465483768774717 1.0971533288839905 9.45739005447072 0.14467906020935084 1.028063826570281 1.4888229965742101
Ni 2.734212255453781 4.926439322990746 7.829551866083824 0.6616769981013507 1.4841728993967085 -0.26064943963009946
Ni 0.45098158651233505 6.610678380352303 7.2618026622785266 -0.11950590337783289 -1.5392263887274265 1.0168772138258424
Ni 2.4991819145872323 7.457593792231039 1.9972109742961002 0.8421982648202915 -1.2014502820166535 -0.31788348155190416
Ni 6.6359815883614 3.4381031621051332 10.351041279404637 1.2755157936735 0.5309094057667695 -1.664360179814998
Ni 3.9509374420259498 7.22379105088412 4.159826325957683 -2.07732202782999 -1.6949066851432875 1.2679680632332293
Ni 5.960948431611808 8.3654219593786 8.283102250396938 0.4817314013802219 0.09722755159560674 -0.36809404096802417
Ni 2.2295680797907975 6.146599955979791 5.932488277375362 0.23816797069813178 -0.36128473135567457 -2.266229975950729
Ni 6.828870453180936 3.863219043515047 12.680188750975482 -0.7848130420326032 1.048554233214149 -0.018213694794549276
Ni 8.527116970732902 0.6850060286680227 1.8193895194014607 0.7044046188768643 1.5012167422528726 -1.4551011788417327
Ni 4.738204342917272 0.6793966317585475 13.253569338547324 0.3846020659253763 -1.132250325982224 1.0089502456692818
Ni 0.9432911353601672 7.03354977010319 11.569121406043621 2.7269654918055743 -0.5857446084390945 0.10084637929511664
Ni 2.558354043671506 3.318366402988945 3.252538669046377 -0.6933617307991413 -0.59716853400532 -0.3950356025538745
Ni 2.4327174779087364 3.3412785402918974 5.718370185937621 0.053989309732261855 1.0292830436893627 0.6424878267674096
P 3.420229679546932 2.3899163961496828 10.464904799326533 -1.8091269146421487 -2.627833781208719 1.070746453040472
Ni 6.798638524712427 2.342772910119698 7.462096517334758 0.05562607400473646 -0.37560423330214027 2.150264224515671
P 8.782631733434476 2.7191970643144217 10.218406480260931 0.530104650477287 -0.8012241364007749 -0.4668516560549121
Ni 8.546034829001831 6.185168567753253 4.41887547593294 -0.5516281263713596 0.3409447342467419 0.025792021362439452
P 6.8537888911913445 5.744038925445475 9.391890291146082 0.0405295846829302 0.33469772489576555 0.28702895806489276
P 0.569856277607648 2.292248944815507 2.978941548644455 0.8322784346034182 0.04975727392878527 -1.4805363310853858
P 1.561689812778752 0.010213811227133718 6.362748167220145 0.2249041637096901 0.016873635826887067 0.581038975433309
Ni 1.2819070565883637 3.7966629949321007 11.488899609673865 0.07925708316011511 0.026738701546424923 -0.14707635679693382
