# total energy = -340890.6125926187 ev
CRYSTAL
PRIMVEC
9.05576500764599 0.00000000000000 0.00000000000000
0.00000000000000 9.05576500764599 0.00000000000000
0.00000000000000 0.00000000000000 13.25402745944492
PRIMCOORD
 96 1
Ni 6.127384238684648 2.3767127219025843 11.365248742929023 1.3019439059580415 -1.727383060504438 -0.4434145080778944
Ni 4.758632508746678 0.39747111457437057 5.866736679242915 0.36584946790822154 -1.3172594532691895 -0.7659321459677003
Ni 3.062569204467981 1.5856916390489277 4.555780653426166 -0.22348517187497643 -0.20057355738412552 -0.10692472427871264
Ni 3.525237299992608 4.334877035924079 4.782782423157143 0.6759697605749391 0.1209313229704498 -0.2549212788970706
Ni 3.9628028146166017 2.6273853560694085 2.527185126217558 -1.071398227691858 0.274422839265108 -0.5693155163487936
Ni 5.220739146834133 4.719919112877195 2.699633155738724 -0.1818618399072352 -0.7165091154498822 -0.702878412040325
Ni 5.279855181509218 4.444605741830636 11.687468260545211 -1.7425456271774893 1.6762592452454292 -0.7936977461167427
Ni 5.519153774690762 8.223368242001504 12.425650765101963 0.20210079266192935 -0.5366956734312435 -1.2067554962796507
Ni 1.9329621197045892 6.393786736857388 0.4040573725429964 -0.6926006842634008 1.282175979302495 -1.311214275516374
Ni 2.7018780799108986 1.8175826163658548 0.16094992455380205 0.45899076524959664 -0.8123369584844848 1.2128292132775564
Ni 8.060391637214815 9.148315035150784 6.67904877146002 1.0701772108005632 -1.404983436249735 -0.3010908354745976
Ni 8.522009263986025 2.734524113152884 1.2297276238822243 1.1309408631421813 -0.6747240610932961 0.36093428999479127
Ni 6.969733398213915 0.8187815308157389 4.4657726872120005 0.6751480360045922 -1.1273086657062328 0.46285024820500287
Ni 0.8841940389757482 7.2217734529132045 2.59458175251441 0.34267688644650013 -0.177720564045352 -0.334564798862327
Ni 7.807101886929564 3.6758165623359464 3.889394065859457 -0.8099574025087148 0.5637434215776549 -1.740513941459441
Ni 7.556891096783638 4.267674203000703 12.346338563065913 1.5524053493115457 -0.8769683213116253 0.5192340263113703
Ni 8.362664021010719 7.438432633305577 8.952353711506785 -0.06733924867660662 -0.06831961031200492 0.05836892685719625
Ni 7.022247780119677 0.8150840619190114 0.17506333448657166 -0.8557472071493197 -0.10121867503287084 0.42379339141285727
Ni 2.133592595842228 6.572357369173258 9.29084825018885 -1.5773707610076317 -0.2991445103815042 -1.7630712579346668
Ni 0.11819765744273036 5.0055198330951525 1.0083250337222647 -0.42278886140774286 0.21684298396811041 1.1378756425888017
Ni 6.592434000434696 1.9416375426853996 6.759527356042968 -1.6449727764273216 0.35156107631000744 0.639723376648395
Ni 3.2268226721359787 4.339359639656335 0.2696308784364762 1.3206047155923384 -0.3173528058594147 -0.20571962036143926
Ni 6.062101227965792 5.860945517451444 4.695477602830006 -0.048425956711871436 -0.07487669470423233 -0.43384306233937536
Ni 5.708401154078006 3.076216242497294 8.748480365881225 -0.8530269800046794 -0.7088485135808308 0.467901180365349
P 0.19892255883682386 5.868642917799763 12.258331920942311 0.352753811066528 -1.9642708789385657 -0.1599041046892214
P 3.8552022135122264 6.196488782282315 12.517328614403459 0.8774069515109405 0.2596014579815594 -1.0585062022205383
P 2.299159149451998 8.377035520249287 1.4136484022284315 0.21433024484858573 0.5334550550067586 -1.1067161862668615
P 6.639370031029206 7.813015301550094 5.410280838587637 -0.42194656801210556 0.9196262651914677 0.9247401893792655
P 4.6648691167390455 1.227010894347524 12.456360675762218 -0.15439988704154053 -1.0901654809970323 0.34081695041962595
P 4.162636383424061 6.196153718973036 8.174739688906875 -0.6838350222556289 0.9085131859974418 -0.5761592787435045
P 5.036291322958195 1.0394931660973732 3.6117886806621224 -1.2865743654805069 -0.7843191331153202 -1.700284404515433
P 0.0526321068522662 5.426151066952846 3.5135635131819996 0.765641611310475 -0.04700028000893841 0.3929175277696072
Ni 0.8683754284716984 0.2695004754188106 4.478164596196281 -0.6332902194285416 -0.15976912177325386 0.6157139011076751
Ni 1.8603348834769267 6.1565709696524475 4.65631232428125 0.32728163493735246 0.8909574365018655 0.14738797450008165
Ni 6.318605774867107 5.786298845602988 8.846029973283718 0.6240938976412541 -1.2928982508160056 2.498865446866406
Ni 8.479628283244695 2.597745836845825 10.395862593627623 0.63474674936941 0.3738743950952271 -0.7296201989105434
Ni 2.344854540225662 5.158571319315068 6.92414214873908 0.9260470811161471 0.37435467716575527 0.4473310695234812
Ni 0.6230049447800983 0.4633898400043458 9.261582734064545 0.6591843135864841 -0.5181675327200689 -0.808856199024736
Ni 1.497135311982804 1.2011023503515958 11.32681245347208 0.8525320426461318 0.44377549096173896 -0.8504882727432256
Ni 4.05561535128709 6.919347121110334 1.3294587651010832 0.6001088475805665 0.5838946997145492 0.8755159051358149
Ni 6.023795341526514 7.621612650065322 7.697607725339502 -1.0442635762585952 2.588099181623259 -1.1183558273883192
Ni 5.370014379000816 2.7271074415231515 4.777759190247482 0.6059578501621758 1.8458602655074405 0.09992952390780209
Ni 1.1545013830663649 7.603872406203727 6.796347191426764 -0.7864611191589875 -0.7063272898208739 -0.05725023987172076
Ni 5.304025018602938 4.889270976305315 6.935527962219011 0.22957534393311432 -0.6421561544596037 -0.8783819138297001
Ni 0.7741972824217674 7.669707818594638 11.434713705978295 0.48112436392384234 0.9656179014302338 -1.241546635816907
Ni 4.762780049169655 0.6917735194919745 10.122551452248137 0.43351318980378245 -1.5069137926376501 0.5879516433927423
Ni 8.570158767106035 7.305783785891262 4.569458481056872 -0.2111767868212686 0.11439377896224816 -0.09250983440496327
Ni 7.713519610224243 6.256157218629456 6.594209835973879 0.4070619375907893 -0.45250952840062714 0.9854722171519995
Ni 2.5218223021160586 5.324916668724787 2.451372071822203 -0.39167877026649967 -1.4337381397849243 0.36840514445053973
Ni 2.2729970440328313 5.283803495099651 11.233636780620452 0.019980042666352685 0.15128808088543622 1.0827283079926964
Ni 1.2781125768952422 3.4263211776341596 3.8724027337729274 -0.060158157547135105 -0.2822425924198429 -1.5243103908475424
Ni 1.6793282503449416 1.1496927717899448 2.384518791432291 -0.30598313056989235 1.0824166902895487 -0.3175944895565756
Ni 1.4307837209802998 3.453886926646255 8.338108408323071 -1.4012329680683673 -0.035593323723577416 -1.8709166942554358
Ni 4.057779679149734 2.9626931710072713 6.9189604399398945 -0.9085733498114159 -0.9408820892464506 -0.7671428784463498
Ni 4.07790158923675 6.759295528456006 6.016625892284439 -0.5350792208737429 1.1444993185529064 -0.48741739602140566
Ni 0.5674034525464045 0.347921590167478 0.03646937727382079 1.1378990396275694 -1.4978629952892915 1.470981597517415
P 0.43536224697135134 5.698639039283316 8.040516043938947 -0.10932999128609558 0.17143524525727247 -1.5044648168765251
P 8.725410804249059 1.9134469458803234 7.916140543534306 0.9100139389126843 -0.6913830098062158 -0.6598391735616637
P 1.8071503749526048 3.2634351304986273 10.321176076412655 0.09889928287107484 -0.1325056580716105 0.8347924592745235
P 4.042520714929832 6.3047776215354805 3.680391534872382 -0.02520503851071788 -1.1764437326699868 0.30419467121090193
P 6.848449536019763 4.097371484235437 10.199756377741771 0.6503808563622412 1.419111648121001 -0.15746747022327073
P 6.359401996713195 7.957717372333365 10.109297434424844 0.39446970274807547 0.49553334026032075 -0.6061437409207368
P 2.6872530192490935 8.61871577965625 5.575598358656726 -0.6430275013209635 -0.6007392820757138 1.3175152780337374
P 6.8234827915958665 4.127155895700872 1.2338144906789255 0.5871851975403629 1.3709988517741745 0.736169569993287
Ni 5.304296691556408 2.8749337512713264 0.4731356544218284 -1.5660267967497223 0.1836011911958451 -1.1276141127617936
Ni 1.7160946567145563 1.0073723672320964 6.943361199044064 -1.257134462952835 2.0221332984729883 -0.4115014614193816
Ni 7.233754230161233 0.8216929593004263 8.901259273571158 -1.9740850368155098 -0.7765274049850434 0.67934279081223
Ni 3.2319572909565633 1.9808218383408982 8.9372840127778 -0.7466054206146303 -0.3508936179293376 0.572781106299891
Ni 6.484181384241992 2.1127552803110747 2.262965973014205 0.3255839355199554 -0.41753892586271313 1.5849706848420768
Ni 4.192692467842966 7.006554139174223 10.198695947646726 1.715142295463872 0.505497136341252 1.5487379277622877
Ni 8.184283559762278 7.459912908159943 -0.053670803111033394 -0.46248438022515187 0.5552366696582245 1.4216773519656485
Ni 7.830175976444287 3.850565661773004 7.809671007492879 0.6969095960513998 1.2711732004340883 0.8532812621073305
Ni 3.1047871814372283 8.526138692878769 12.431031700733694 -0.5073974386877584 -0.4028674398934675 0.13299853854762902
Ni 9.160268645103468 5.01984605350814 10.065386934955479 -0.6354358050166347 -0.40137080074328296 0.3345468011401981
Ni -0.4732108172722885 2.3689157081379935 5.691067514070105 1.5856473991941271 -0.8494788576421048 -0.06917450211313247
Ni 3.5732781339312303 2.781686537875286 11.430683890501822 0.19063187279038138 0.6048088241593971 -0.7235575376562312
Ni 1.1143571763086058 3.3966907141756915 12.44000505838681 -0.9005563930442103 0.741704383768587 0.1489440061332919
Ni 3.0806897904644344 8.553170151749041 7.959110149008154 1.604705958487475 -0.847337642929386 0.9297803229063342
Ni 5.544428415128594 7.893828949442322 3.2030349883301406 0.8384711936776915 0.42698181644316785 0.9054101215920858
Ni 3.131003621447089 8.271146458751772 3.537487033464573 -0.09678120808680753 0.2551789034338315 -0.7660208490267646
Ni 3.6879784548862893 4.5112290057866105 9.361372737756655 0.07107171913584534 -0.9900657500599529 -0.007735163860728615
Ni 7.312303936774544 6.42150643387645 11.253623759807244 -0.49445604803574195 -0.33334018242660657 -0.9576703644483829
Ni 8.478686483672666 8.868383223895234 2.0979002032153318 -1.372107511457321 0.38797818148646085 0.17933136017589763
Ni 4.544572332942503 0.29646582720373715 1.3136492103621489 0.11586650685303272 0.672062712211049 0.42901067394773856
Ni 5.914374531633889 5.9140304125594945 0.09331332048138448 0.7599808134802718 0.35598131686489015 1.2257554344209214
Ni 7.977630999822719 9.35858990113661 11.126809541856955 -0.34790445339402665 -1.1405164226457585 0.20160559819306567
Ni 0.3491097065506537 4.6357186088317075 5.761022394012134 -0.7422070344366185 0.18346877938303888 0.3981705486384304
Ni 7.293649060636266 6.13662111910263 2.4474228526552597 0.20065120469959635 -0.11809642462481598 -0.39824896728484965
P 8.559663135336974 1.6459124770681242 3.2510405047848114 0.8297613246085194 0.28550172278708896 0.3638524920828508
P 1.744475424587062 3.3363974300355697 1.472960041430015 0.16731428111036348 -0.17052276074533212 0.9314541110643313
P 4.8665228943347545 0.8904081049981201 7.875729191705634 1.1683977224370587 1.534492473586867 1.4626026294251007
P 8.569135465647964 1.907823315743493 12.477818311203794 -0.6571785960103649 1.0404501160497759 -1.3735504145514346
P 6.442542976240148 7.927471116847031 1.2097397391189206 0.08409204265491324 -0.5159617833180017 -0.032749683627195214
P 2.0578320648845443 2.9523695987754093 5.854264173949105 -0.45731337754717366 1.4854692496106288 1.3344727318236824
P 7.030560972495861 4.1967403948496695 5.811042818205041 0.008491068190146665 -0.5801126069642977 0.1421192699019746
P 2.4830726831861125 8.458437792874031 10.22646273464439 -0.23830526760694443 1.3577792677601068 -0.020229696783313548
