# total energy = -381173.3748873469 ev
CRYSTAL
PRIMVEC
9.22497816635693 0.00000000000000 0.00000000000000

0.00000000000000 9.22497816635693 0.00000000000000

0.00000000000000 0.00000000000000 13.50168802154614

PRIMCOORD
 96 1
Ni 9.045090923974966 8.011838038680994 1.5787793390033034 -1.6064931322948848 0.5181644473962753 0.7757653300080382
Ni 7.865539112660271 -0.13202511756925295 8.035664311846157 0.9791236492261525 0.42639226248828505 -1.97194125099963
Ni 4.6842408762816525 1.5361617856625798 10.836994929593867 0.4958660410093912 -0.04158733652348322 0.5539781146607751
Ni 1.4605723159725736 5.727945661643819 12.473209904091062 0.046140246001488285 -1.3189149865947414 0.007263623540948781
Ni 6.575665789504864 2.20601511280444 8.857417971647228 -0.19482277094327738 0.050668987109777255 -0.03780832909702521
Ni 5.438964000976363 3.530242254012761 11.876543862369342 -0.8642264482649246 1.2583570225060263 -0.8191578380610602
Ni 0.2165877233548739 7.559694192218184 3.840028085054258 0.1719317252777168 0.28398271503940126 0.24526910051928724
Ni 4.404770167926913 3.0030624365396377 6.969193203290439 0.5138277676941345 -0.042331413778359354 0.6197425626510941
Ni 9.08095763841904 2.93496364898147 13.323425388499722 -0.42437728894078525 0.35658398344589554 -0.8414948109953636
Ni 0.9287984594580025 3.290494300903954 5.155295005136157 -0.4873911707691606 -0.5045111182788988 -0.24523310507502927
Ni 7.715762369935479 3.6533219104203836 1.8549973201170493 1.4150960992037047 -2.019770454667767 0.259252816392889
Ni 3.2562604075649726 8.741847447327435 9.835385563817914 -0.10526070631272838 0.08188680747347833 1.0243403549721068
Ni 3.4560642059559705 4.233231702112213 2.2120085810077104 0.8175655538732758 -0.03568896876117725 0.3519943071926841
Ni 8.136974865181474 0.6798541257861046 10.141644685771972 -0.2933883246240173 -0.14719102799792716 0.8514200405288757
Ni 3.49780723138278 0.19738224166734356 12.24018419244712 -0.9735497546828008 -1.1666899957173325 -1.1505583802627926
Ni 0.9333648235654658 1.6135778009955708 11.502479307157355 0.7308435297946833 0.05455495242774476 -1.8160863766791175
Ni 4.273757030443699 1.2521154882223826 8.665019063092716 -1.6435316731054208 0.9043521126412167 -1.4919468869151724
Ni 4.545746281644594 3.591699057414618 9.583511377134846 -0.5708113841680298 0.1620679451097596 -0.32270918507532165
Ni 9.0174897898143 5.247093683660958 9.220005731735792 -0.2303471891021323 1.5439448772490185 0.5737229013878701
Ni 3.59565657297442 8.57056728089659 1.1386436463964222 0.48648280002227834 0.11535974241994326 0.08073058238184806
Ni 7.541687035172187 3.420400441027784 4.341440693992096 1.6391816236668415 -0.19637931679711984 0.3696387597473247
Ni 2.3008294366357656 3.1520735060908542 12.55952617819351 1.387124039470811 -0.37030313280420096 1.463567564441531
Ni 2.9936252840508804 7.928748661881154 4.280048465436203 -0.18332094095126492 0.19242701701759118 -0.22988310498152023
Ni 5.887648480691095 1.7346187372663262 4.489108606747259 -0.838268333638266 -0.66362692273887 0.28429793228697486
P 0.20430097516349985 4.5589472251552605 3.1745169550545853 0.9183296578672314 -0.8582036391096124 -0.08968264936881329
Ni 0.5884428963370884 7.595191907542463 8.098339734841138 -0.037102047058619976 -1.3933808190138004 -0.0035437514872003486
P 7.031185977913799 3.965550515634924 13.155909935588586 1.4261279315378341 0.1835392276096581 -0.1633514398078735
Ni 0.15186989023182812 2.116929500307932 3.103106400396258 -0.07604911774577872 0.1982269115288199 0.03931448132890649
P 8.788249086641656 1.2492557450439714 1.1444111026388182 -0.15081088413870156 -0.41585356774049026 1.575505682774435
P 1.1175599591891354 8.68868389914297 11.206225596336541 2.1276225758567553 0.28380119515621444 0.4220905497891376
P 5.582107984522839 3.611348260543702 3.2546764788432525 -0.10312617646822884 1.0995104125470418 0.47632925652804414
Ni 9.179342028734382 2.8496602774628608 9.030590181064822 -0.26726925893946235 -0.11815376022531265 1.0435107572529707
Ni 3.3220068257344466 4.936258050123644 11.274368663789083 0.39307899304813587 -1.0546330924183773 -1.661394412318455
Ni 3.4458521553156443 7.020697177933625 12.085211942115617 0.16245823856964278 1.0305436555693412 0.7414238764136908
Ni 4.60551491407339 5.844798457904901 3.4510854853321367 0.514774704988436 -1.005452002708036 0.4675741360432334
Ni 4.605856238259199 6.68376408164881 9.457310910671556 -1.691241063366242 -0.13574730493735976 0.35580545340865816
Ni 2.118626896258989 5.624570558233249 4.0780362073132315 -0.2885063139413676 -0.37279067511274505 -0.6004371774542626
Ni 7.351883112927634 3.5377421611225945 7.050297364825782 0.35467468223832466 0.628768163188472 -0.5920070444090385
Ni 5.360671612733858 2.1241157581659396 1.8158419010178024 -1.320411882855242 1.0113873943558644 -0.7989697931489594
Ni 1.9066461269147557 0.818667904661786 0.3663349461500813 -2.5563149472331266 0.4508748210106816 -0.29331839061803033
Ni 5.354518552411277 8.266013857373785 13.072914653564293 0.35363132857547486 -1.0882029579540227 -1.6008395335535333
Ni 6.896861073330423 6.927681724811301 9.386656804208808 0.7151903966384586 -0.733914198300207 0.26938887638562636
Ni 7.700753330737817 7.485534594117383 12.736074729557227 0.17173966387156872 -1.0234528101608307 -0.06725080272785837
Ni 1.7507439988013678 8.937167906412924 2.5150131307251753 -0.5034227703107265 0.5976339036775127 0.7094565794784748
Ni 6.911316613848392 4.611022225936329 9.826109848444068 -1.2810855744517937 -0.8204516171718192 0.11617529634270314
Ni 8.729384502056359 0.3610222813228327 12.75975617056787 -1.2084557668002092 0.03624329860275048 -0.3765673685463579
Ni 6.2985105506268395 1.700523218597268 12.92967565274447 0.28156562095747634 -0.550291152727491 -0.31766725177604
Ni 5.7913028105126205 7.588162474310368 7.44533029502012 -0.3285761853790599 0.1093202210940827 -1.6349642431513842
Ni 0.5493557420750034 4.4386811870360745 7.201921870642946 -1.3303214286594702 -0.40221592235239767 -0.4857626340268021
Ni 4.230593358405678 6.496819902582668 5.688071616758771 -1.176621910119064 -1.1627225264291523 1.7457733900861678
Ni 0.9802830616474001 0.41831954214680106 9.079331274798545 0.962523578775626 0.6525866057643084 0.18410718429798617
Ni 3.58901458881811 1.1425135246652725 5.809006465782585 -0.8616052085919935 -0.7255617125704537 -0.3206582160835639
Ni 2.135831480219431 2.2007476503693666 7.711839909292059 -0.3982831629568947 0.6339265674609598 -0.11539085276819482
Ni 2.9812545885597532 8.509516376526507 7.440780535873047 0.6022030111054338 0.8602893179940474 -0.2714429307011777
Ni 5.390920315579054 5.017151882160703 7.878612751474608 0.5985713278901176 0.5030386474984304 -0.8069337851910425
Ni 3.8952100584240017 4.723364007957918 13.498204589084022 0.07532020999955415 1.0195933272054247 -0.08806465414941607
P 1.984864715333301 1.5020570420155266 4.320661431058641 0.12445476274267599 -0.6431285456752021 -0.18916531554718388
Ni 6.660775436485582 6.131141774865822 5.553622174972464 -1.9976661665695596 -1.5541521567993233 0.47487118392527894
P 5.409628570952661 0.7409124101385833 6.915874675475661 1.1904891550194594 -0.5218393251447013 -0.4760538913794704
Ni 3.277754606293031 3.4601785461416847 4.508901719533063 0.9122343436027709 -1.3462345003453007 -0.9378636141351008
P 7.131498388630069 7.74929516494685 4.042000675771852 0.7102093984840995 -0.15265230822281453 -0.34090873880248385
P 4.58848560469485 6.576237738140547 1.350153941862917 -0.8131867080792898 -0.45650785092674284 -1.207554338031862
P 8.977084386196747 1.991063900545857 7.204365567313788 0.031151743012456025 -0.9396595296932592 -1.8079843163972735
Ni 5.296613365537447 8.41362273026978 4.981825751427128 0.5161931826025175 1.5177656477504893 2.3564543567556258
Ni 0.9999783896664582 0.21306193676523266 6.379682054501544 -0.23267480879404442 0.7469149814352491 -0.38855385148427274
Ni 5.588141120131488 4.044479427359074 5.33732503842443 -0.9994225086845046 1.0423018245465339 0.5047427746737307
Ni 5.935867440670307 9.053522553862281 9.196148093645446 -0.8895101625323777 -0.09335392757281341 2.4892171251433646
Ni 2.3762897566338435 2.118045722645312 2.242130901654376 0.8898672887614805 0.6315511252502478 -0.280707129611923
Ni 5.624681257969188 6.015506675700063 11.569825336511142 0.44312988695794003 -0.09769292126779949 0.06340571795015532
Ni 2.0190248088483234 6.747010530781673 10.160937804750453 -0.7975626283887877 0.23137177371190476 -0.041448754063089906
Ni 1.481429991218986 7.062735402656271 5.969312598390726 1.0973445152439747 -0.16596059529594645 0.3290580101114849
Ni 9.031539431300494 5.534479423135299 0.8969058655341207 -1.7544020122954431 1.9057122046680663 -0.4634369739464083
Ni -0.14692991451557255 5.60941391938767 5.216485206673963 0.5968664293838688 -2.0165617179224817 0.13830015326620052
Ni 8.522994069377019 5.3451275248124945 11.656061353305033 -1.568711542670737 -0.2840508492731753 0.8243954323109157
Ni 8.81646829432798 7.567433948755885 10.449509876394936 -0.2845398730944519 -0.79588755467921 0.13763680865058875
Ni 7.730734509221162 2.6931124008898313 11.008871029603181 -0.012089327064366277 1.2938336181460814 1.328705490322602
Ni 2.647015185849441 4.553965737038028 6.3318191786729345 0.7369110761450018 1.4357747105989789 1.3993270092949062
Ni 6.861086608666299 7.071692856289294 1.3948461927546882 0.14471556987424108 -0.10238698430935915 0.02498469496979568
Ni 7.9611560095771505 0.9581431144597 5.494728070457583 0.0427481896008038 0.23913187727329785 0.49558399099259814
Ni 2.068645965482756 4.768778574626688 8.926249222458189 1.8316718898222002 -0.9257583462311347 -0.6180667176105678
Ni 3.962663097522528 0.7409077976495859 3.36406719040428 -0.1718738754565879 -0.12656435288651105 0.09015753212270279
Ni 5.244639839514321 7.99699504908724 2.8215425445344815 0.019949703649049515 1.052948762737419 -0.46897487304550206
Ni 2.2691877621133445 6.479107944832507 1.0510008204583126 1.3503523791684162 -1.18535543333732 1.93692719681829
Ni 7.718972662277697 0.34333246351986035 3.0536494483701335 -0.2683979732272668 0.2385796043142536 0.07094650641189072
Ni 8.233385110205912 7.527010095182343 6.019606255920986 1.978417859862909 4.238292840129888 0.32115983831033074
Ni 6.197164942375141 0.2270350109340699 1.2049269582851985 1.6041891667520567 -0.8828160383416538 0.7216078701290282
Ni 1.413155929078916 4.13634175823204 1.2155707378956853 0.8424124377136267 -1.0128251552436556 0.5516893186265982
Ni 5.968164088630364 4.840844102722651 1.3656150049823277 -1.8417863525483829 0.7517931354631568 -0.1854863240336999
P 6.710119843780168 8.858774043412476 11.356823362102874 -0.5150063613832678 -0.013637131167460384 0.365368414506745
Ni 1.0193047185657214 7.788796520720905 13.362539295197992 0.589840632885339 0.9856858758247026 -3.084991092794003
P 2.8835251716820474 6.4721799863583565 7.795240167850325 0.25914688694264404 -1.2156666827263516 0.03955462236417059
Ni 7.6251085111798425 5.664440913127099 3.435207453207358 -1.2996144864939168 0.7184729240444723 -2.0033719587050856
P 2.4576356125926515 2.37283961486376 9.935891699072078 0.30359174751958035 0.22017513366513694 -0.1919019977520566
P 3.8368067227384475 1.655855875146083 0.14393456416063663 1.3325346342607052 1.620125892586971 0.9691451978572019
P 7.951967931494255 6.221712608819504 7.578267762913065 -0.5388227470765753 -1.2262904809887847 0.5327125204137793
Ni 0.9992957412948376 3.959379005356352 10.858395033546378 0.09084375955645 0.008546089797798187 0.1281455813307019
