# total energy = -340890.6820455943 ev
CRYSTAL
PRIMVEC
9.08424248826006 0.00000000000000 0.00000000000000

0.00000000000000 9.08424248826006 0.00000000000000

0.00000000000000 0.00000000000000 13.29570713087463

PRIMCOORD
 96 1
Ni 6.456434415756934 2.1730688432531435 11.451632127352134 -0.2642530978209578 -0.17961598129585193 -0.6640346997002499
Ni 4.643110650161225 0.07242048770467485 5.708032751031887 -0.6524616501506698 0.07232230371349481 1.0274189938974305
Ni 2.8548139719861916 1.616313803747353 4.8735542572157735 -0.6085803753866873 -0.022516950155593476 0.252994494188003
Ni 3.6113133302599847 4.190597290565513 5.065345321886932 -0.6531481346947332 0.33780644572807633 -0.12033174171323792
Ni 4.921651686274763 4.677885129524691 2.274097426676583 0.17235775707154186 1.1404832554149777 0.740192832220067
Ni 7.089506174471838 6.268045399811381 2.711127603767829 0.575598264033712 -0.5855052387347787 -0.27927322537887384
Ni 5.313309706984407 4.5138600513149845 11.735269423372387 -0.24635950536998863 0.4052351687946957 -0.042982417098796945
Ni 5.560755381848952 8.091943223395354 12.591233966977024 -0.3804836728816286 -0.3174335384986791 0.6240550739835188
Ni 1.953248349095052 6.441154720279047 0.5469694937455171 -0.5524251683513582 -0.7057372216453588 -0.767067288013408
Ni 2.6025082275136393 1.8005240682542454 0.34708800291941966 0.35442631367294447 -1.3598767737190838 -0.536460674602302
Ni 0.7594880739766613 0.2228755248294432 4.937918838886091 -0.39050069079799843 -0.6686572860739258 -0.018994024603999547
Ni 8.956772170595308 2.336639709349953 1.469854016367635 -0.5998082856210122 0.7787174706578267 -0.04219026021480476
Ni 6.891651378093492 0.7736068032939811 4.698742549748965 0.19246815466817174 -0.007492965942935483 -0.03225706026149284
Ni 0.7017985935174927 7.531027600935419 2.4462102057685513 -0.32369777424083607 0.38935012213332304 0.4375174258671691
Ni 8.008658890374386 3.8665260322550847 3.6089732294543344 0.3715717151039794 0.14265483069047047 0.7675557976140522
Ni 7.611704756428353 3.738837923077213 12.823974978898612 -0.13990169342536551 0.19147159508285735 0.28154068125681186
Ni 7.8820699745097285 8.87571347692754 7.20489058593553 1.1216213855134682 -0.1087365806764708 -0.9706135548726121
Ni 6.776681208076763 1.129243986602366 0.21332526094365095 -0.008830710917752534 -0.8465421436112841 1.972691498902093
Ni 2.144653333470248 6.4254298969305195 9.15917272179954 -0.543862880603644 0.13090848878781972 1.399714731651628
Ni 9.078610027759055 5.11576377484283 1.1570326836694627 0.13140522591858014 -0.5663700605672246 0.5785529757866616
Ni 6.49437929566843 1.6946108877687016 6.936463036727778 -0.549919371210369 0.8250261239163791 1.5745757147609978
Ni 3.2818823690173597 4.224163565708672 -0.060705448888810944 -0.37284363983786756 0.48456655683617195 1.211848594531842
Ni 5.975432872440264 5.117962161469257 4.50628742696875 -0.5328619015074499 0.054945760108260217 0.7624269610279192
Ni 5.399028616930508 3.089387275571209 9.408560607658835 -0.26485730706386 -0.7956438140995201 -0.8618193814853286
P 0.39075777230188014 5.796982017524917 12.319456149224536 -0.3478494317863751 0.06738038632718718 1.465133366266754
P 3.9849936355411275 6.245080435383261 12.676552261839548 0.29324151463350784 0.3160055478029009 0.17197440559019414
P 2.3647826918651105 8.555085146432878 1.305133085200968 -0.01747861640073764 0.5710998619427261 0.548123712762527
P 6.4295904798846655 7.849157764809142 5.945747385589705 -0.9800176217953316 0.21066076641679848 -0.11612027473505161
P 4.7010590315247445 1.253725358263178 12.801000021804008 -0.3735257535065567 -0.1322215511722884 -1.4684817139136968
P 4.209656030822711 6.021717086744565 8.406515998000861 -0.500406609192222 0.2578327961169108 -0.543113146921813
P 4.574869822319436 1.242197454837828 3.6445262283793083 0.6611362951065324 -1.0034213454312526 -0.371085005275548
P 0.0031949280021241764 5.892030444269943 3.665985025441059 0.7435288385718356 -0.8141850674368172 0.7875944614324824
Ni 1.7072561529917805 1.1420345997015722 2.6638477565120553 -0.5982501971052729 -0.15939579759423517 -0.07268714325208127
Ni 1.9538660775685932 6.298568453798123 4.788422189319537 -0.5351614961749042 0.794558037234509 0.7329829447351892
Ni 6.208134822120141 5.9394865258255205 9.306995145517948 -0.3632953340278001 -2.0067992392190797 0.1613662910570447
Ni 8.75019650164932 2.490735710771711 10.429138888371494 -0.16801464961149773 -0.5189967134895836 -0.5753164711272349
Ni 2.0803005613148664 5.253580814138327 7.080561829544652 1.1471609245454695 -0.2931774941647919 -0.6001391865978696
Ni 0.42189492106526033 9.215872928276815 9.38599807516274 0.36888825473454534 0.6285316216976338 -1.346420905324494
Ni 1.113092203867715 0.7394182575561525 11.520397115972205 1.3472341452544088 1.185737242156771 -0.05027406566420373
Ni 3.894768941435079 6.955195652687915 1.7032599948225045 1.4392104757534052 0.22144757261965733 -0.010660565037639704
Ni 5.736599059236264 7.916980717507065 8.129740030158045 -0.28655638930384847 0.6925451484351169 -0.5213924674152698
Ni 5.312119671248614 2.562374045217976 5.141409499161275 0.014551672561929777 1.0473085337325059 -0.5569490243636408
Ni 0.3742680557552329 7.132238450053277 6.5047117128126315 0.8373555920160095 0.4743263671654025 0.6152153642047018
Ni 5.076983144643604 4.378568431367201 7.183298250512587 0.9335171642409471 0.4440364579326095 -0.32560373301429735
Ni 8.098647394181729 7.327386142238752 8.9147312058497 0.8211581563205408 -0.9716525376600881 0.23361171878601703
Ni 4.902002470270798 0.45532765784722684 10.608259251941254 -0.03203774516183514 0.17594958818785827 0.3138105970341112
Ni 7.972830638908996 7.6865225756649025 4.525193551956013 1.001950674422997 -0.519899170699195 -0.38277118336422467
Ni 7.3143956758098705 5.976532065753476 6.6274307414754 -1.028303710495229 0.6776147523775298 0.8675138607669447
Ni 2.2466330370580954 5.189527821977458 2.7620638585324304 0.452973098300607 0.8968079817453717 -1.785397689346009
Ni 3.005557888014763 5.103872501727162 11.071720940306257 -1.1617110544455025 0.035852233811918904 -0.11174682825770434
Ni 1.3251093339262197 3.5245133954851866 3.9184442936077715 -0.48442154661787534 -1.6916514114307835 0.9067548085454382
Ni 3.4531294198221447 2.9270336979369658 2.552164265344256 0.6753095012831208 -0.6452687319466565 0.8174886778887533
Ni 1.0925618163647277 3.0523871568545418 8.26231091954957 -0.6989862760747704 0.8594408539508231 0.9723055978630545
Ni 3.856878566977132 2.3181986975662965 7.118827383207853 0.0427859848172747 0.0870953482576113 -0.18997418460172444
Ni 4.171901919998634 6.603662730031676 6.0797008966528905 0.4454986443004328 0.7722825136657603 0.4992997492812885
Ni 0.5515752045703023 7.385089249061308 10.924470823850097 0.41019251279997104 -0.35029172267928055 -0.027572767411946062
P 0.32873238301298774 5.565206660555352 8.238564710287264 -0.844074655907398 0.5304080406503188 -0.6096741226714983
P 8.333638572910612 1.7003793816025057 8.159481839310603 1.3414481347002511 0.6105454695328582 0.08378505293745571
P 1.8072009863138454 3.181492407824655 10.564303328927666 0.06342371567228432 0.15606261945594413 -1.491846356781566
P 3.9788890247437796 6.091411393347626 3.9349839734868377 0.36971023641520845 -0.06373430493416765 -1.1247005386594242
P 6.993821850768756 4.097674576508851 10.410498931682389 0.0756307992614375 -0.39778745426739875 0.10054915976967199
P 6.485658423100788 7.727047380377658 10.538336930857517 -0.32857515693779543 0.6553865371069487 -0.3529666984082824
P 2.3500207981959265 8.359719432433211 6.0505704570042935 0.6039822144930436 -0.402978511550035 -0.4606157024475293
P 7.0636978422169765 4.216133095552636 1.7024887426548037 -0.6467136919232992 -0.9829679626729072 -0.32859881108687927
Ni 5.1649095254583886 3.0530957277506627 0.5989740553996549 0.9917223118267693 -0.2779053984970698 -0.4773209310173521
Ni 1.6863260588294429 1.0369026640502128 7.328022039196809 -0.20974031148505812 -1.143664995577069 -1.2347738358694476
Ni 7.150243418208552 0.5086158229324143 9.52424661596549 -1.1491787263064468 0.7156801917906837 -0.039733828254512216
Ni 2.9547951422772885 1.4707115688367867 9.495661230852372 -1.277763452057096 -0.019627030202308132 -1.0201247742288626
Ni 6.478063996573135 2.2701158032949196 2.613297582043417 -0.7998370262452612 -0.23756607544807473 0.25292044641695793
Ni 4.2702388424410405 7.199607190638301 10.5786091936355 -0.4064209615726807 -0.4868854347773357 -0.6438163157708461
Ni 8.021449503473592 7.299760961532299 0.5796591395107825 0.12363998015086448 0.4692942040581337 -0.5523783742738229
Ni 7.860758342172557 3.9932512117536128 8.026219639083248 -0.6249158793219174 -0.4231357032242003 0.9020967409481367
Ni 2.5594398349686553 8.20621390675822 12.394177675493152 1.3175394464034536 -0.1725009675176255 -0.4506801885013722
Ni -0.06717161252802616 4.862894807350284 10.38151383990992 1.508251537612467 0.43625964220066804 -1.0141166203615697
Ni 8.78126461017154 2.2789184340428816 5.955665561286945 0.3293665424908392 0.13071822715388456 -0.1825429251346598
Ni 3.744388395096826 2.730441611232475 11.290541259391746 0.6606902087080492 -0.5257653996719848 1.1830113585851756
Ni 0.8856618399701311 3.4995589820025734 12.489002629878632 0.7320457776329006 0.2668555684408114 0.5052796210138072
Ni 3.2852707913795784 8.173328949784409 8.075081052916131 0.5434327350447609 0.7878939949507721 -0.587833372647323
Ni 5.523192040112291 7.862947644556725 3.828126940230692 -0.42288270667312977 -0.17601309443594204 -0.6639665654664758
Ni 3.000107342659988 8.347037830241101 3.647012585485312 0.41721522397470723 0.25217765471366244 0.4289826489232806
Ni 3.2371515601391696 4.073574081798486 8.923785470108207 0.07259149821448144 -0.3288986017154852 -0.019539869805140542
Ni 7.29855275731199 6.023806462463896 11.616990772325309 0.6409109691985929 0.7196234927091477 -0.23540172080690425
Ni 0.36961147317380316 0.024136831679397036 0.4890356471696094 0.7049805459849923 0.4469551742413012 0.2627996532038828
Ni 4.59421925832889 0.45428387841178736 1.5536561511973068 -0.3103882016161235 -0.2891907416029019 0.4343652533914325
Ni 6.331262641684517 5.688488912238113 0.36461059781079674 -2.0889588407379702 0.5696978393888769 0.6406008941573419
Ni 7.95082860416022 8.869381760073743 11.725590163246531 -0.40802455861437464 -0.8191940906156344 0.20982052990369027
Ni 0.08555448516123196 4.770617074493937 5.7654042830120265 0.12889531501253285 -0.38993607654378004 -0.4307016884969163
Ni 7.643935647959592 9.187620934854563 2.3999814053420234 0.3031484893345747 -1.013051926542481 -0.38238448944876724
P 8.731274025025993 1.5692937658201576 3.623013834288236 -0.1813944133525134 0.9773542160305556 0.1781512238248674
P 1.7663400646375458 3.516373914422055 1.3784193011928263 -0.7724727752996955 0.43422821359293606 0.3415499719309085
P 4.785451642101184 0.956470783098244 8.425090548145711 1.3165521427895197 -0.42660463560940726 -0.12286993475405937
P 8.589786951858281 1.6709282682022024 12.569282803984892 -0.38484760627727915 1.0647848361403984 0.18397014449948962
P 6.047025785675238 7.784923087803115 1.5252969637164104 0.4762554658673153 0.18016542604141875 -0.1421462664851681
P 2.0273939344045133 3.1716541734592854 6.258993860825551 -1.1375431989500473 0.1492988183695493 -0.7823882346411944
P 7.0311853391757415 3.8461864138395145 5.975236652807491 -0.24076092823628858 -0.3574039082440296 -0.6306049592868946
P 2.4408904735022907 8.53989629337757 10.093807711782325 -0.38127043044898207 -0.7174905055265449 0.9413132632465981
