# total energy = -340868.5940684308 ev
CRYSTAL
PRIMVEC
9.31978194979662 0.00000000000000 0.00000000000000
0.00000000000000 9.31978194979662 0.00000000000000
0.00000000000000 0.00000000000000 13.64044294152342
PRIMCOORD
 96 1
Ni 6.922258522505911 8.462557480204401 11.942248018649817 -0.04124563691334832 1.3464427597013648 1.0574371375260756
Ni 7.17749938335644 4.599321578507934 4.673911519199908 -1.6417249589139853 -0.3080945204859404 2.0053900175763784
Ni 6.317647005844093 5.055105501533279 2.3409595378093746 0.18315099103230392 -1.7947138245406125 0.7660311334394098
Ni 3.30712452889364 4.808820950876541 12.536685129652362 0.29781139339237744 -0.63011979212036 -0.22410017975115598
Ni 7.43414753124054 0.1370464576156914 6.311228472201571 0.27689598339594895 -0.42443976674760453 -0.1710241258617829
Ni 7.040796825684714 5.503871628954123 9.432093436322065 0.9303151123638816 0.11491776978651821 -1.463645725977634
Ni 6.56627082170233 3.5985820613498634 7.215071151218301 -0.7273787111745345 0.3951639006016227 1.0180295822627308
Ni 0.5479938429601723 2.7965775687208274 3.2208904529715685 0.7104055736553055 -1.0864597500106707 -0.4059327090823525
Ni 1.2637623957108006 5.364373136778612 2.9889210869742104 -0.9824689115493015 -1.170288254591552 -1.207134219775308
Ni 1.1306759133306366 7.712631927599201 3.9584020563799642 -0.984199263976847 -1.2641278635515325 1.1135784606043337
Ni 7.947602263297289 6.471050612285095 3.292720806308308 0.8580699417452254 1.5818493656042756 -0.34982043946981684
Ni 2.0061016460290655 7.334733420067626 8.387262964017474 0.6054315453450606 0.04578234844143728 0.22598042749300437
Ni 0.8903793224028385 9.231290352238396 9.487568504789829 0.27956376003609923 -0.8655243411407416 0.3973400823173351
Ni 3.242091092335602 3.3883650657919513 6.337800101747375 -0.943358575811401 -1.8302315578312478 1.1898301812792218
Ni 2.1737924777844078 8.874072440253151 12.064057565198048 -0.10557695200156657 -0.5639200563648353 -0.005108010650526686
Ni 8.789364944570146 2.5744871713035096 9.856583396424712 -2.4097828929754366 0.5970939720136427 0.7515771627976089
Ni 5.425007636384027 4.944507652345225 10.849034831735395 -2.315633980305154 -0.5474976491427539 0.8033460678397841
Ni 5.164202865870967 6.378644976935002 3.9102514043339482 2.112396760045936 0.4556958965484087 0.7232685456609028
Ni 9.08730904507515 1.126146499434505 7.682133874031914 0.5523356939613454 1.1551665684587655 0.9016920493105504
Ni 3.9503944999611247 8.154641213302565 1.028918809043551 0.695004665719203 -1.0212429469937057 -2.1143435993596618
Ni 3.175184379660028 6.124009901893626 10.30471298275686 -1.1706063000526032 -0.18452858810612094 1.887747906880162
Ni 4.364118248267864 2.7307146715933333 8.281249515437459 2.012862928914656 -1.351493177641079 0.8684474283248075
Ni 5.72960606100804 1.8094635723778691 5.646433533367613 -0.01849008838438751 0.7065190941167058 1.0440164932447957
Ni 2.0718340662130497 5.489379368442838 6.808940229045675 0.5755992924749765 -4.464921185619536 1.206691990031567
P 4.062846985703356 0.956656949815061 6.636089034174512 -1.2304515543450099 0.20381031915386835 0.6684945352438164
P 0.5403227306599543 0.36430560595234024 3.860831398023213 0.1283885505794434 2.238591131187538 0.02184769200271076
P 8.388828687339592 4.236185605156344 3.040877937858046 0.015267210571715643 0.4877125586643214 -1.602034582302899
P 1.3488240430976182 1.9011515845386573 9.876007685400673 2.573289884524568 1.2214424088678641 0.09258079685221474
P 3.8989399853098017 7.786938546928126 3.2693682293545283 -1.1143179098735196 1.350915450760738 -1.9156068380739586
P 8.141006372705773 7.799389775251648 1.2602013071311466 0.673468334309324 -0.03229022749227342 -0.09475157925128844
P 6.073328929121684 1.2765025372663807 12.402040379775423 2.2327896940144125 1.316205300973062 1.1267358239218983
P 5.3927891511187465 2.780799178337801 3.779452928356048 0.40647649740096453 -0.04049667456246574 -1.1167154635714187
Ni 7.622285964000229 9.30769392244516 2.818169638915391 0.7972576955538593 -1.0803065859250813 0.2566092081224548
Ni 2.6189891288220863 1.3945375722345021 3.7845955838866767 -0.4885206563879134 1.1220965253776738 -0.08031534922130039
Ni 5.347206098925373 0.33238535370079536 8.434090207065031 -0.985282983959329 -0.2703892926256827 -0.2653044219036076
Ni 1.103005481524845 9.225595965632355 6.174919209316711 0.14102680816874422 -0.2660361578633096 -1.3910418864679786
Ni 2.2570367677437653 1.4109497077717201 7.798459661040055 -0.2813283081356897 0.39833947011612686 -0.43715258632858256
Ni 2.238537001110388 8.87941267515538 2.2788674243493183 -0.8361957673799534 1.327375715767585 0.5749518886989647
Ni 1.0415415213499721 7.0978059302168885 10.822341113049594 1.6651543935815192 -1.7390507266503532 0.23498108832971787
Ni 7.197490315058501 3.8627978719575418 11.943039268114388 0.7662136817638611 -0.26273151897010877 0.19311684399576418
Ni 8.862590469224275 7.238273679687045 12.955610248114308 -0.17705670520910796 -0.126758214064872 -1.2341840248042486
Ni 4.277798430354343 0.932173883343584 1.7115480820989841 -0.2257171465292887 1.5693478907031555 0.5086030289600854
Ni 8.36129805225899 1.671167332038986 1.3619956905449493 1.2990329029588337 -0.5926428782208245 -0.18382230606771569
Ni 4.643292308470792 6.83515584293133 12.186671408905202 -0.33105164350274596 1.0254158474244726 0.9396716138781172
Ni 6.52597208572111 2.715793701124801 1.7435074774335821 -2.215738394959081 0.43618893686373267 0.7421661538963541
Ni 4.581707191134089 4.517074505188259 5.04468598561584 1.6307314360169594 -0.6128106114179511 -0.42073712108503675
Ni 4.391751400946939 2.432835809560084 -0.09709534949110814 0.7462619212322826 0.8120456524963112 -0.007083646319658769
Ni 2.5546080769815984 2.9569803312029705 1.797987193218 1.8944548865866921 0.9816636420391868 0.9930695698832832
Ni 0.19605372333990498 5.056941498524097 5.093722948899556 0.5827824404869769 0.9052257734954217 -0.20955724893997457
Ni 4.62420539559162 2.6150841402984666 11.139345099066897 2.1933566848297708 0.644901835525541 -0.8269639643690404
Ni 3.3044404317700065 8.890531174698765 5.007487940999316 -1.938718741501074 -0.43845150764566426 0.0976957494812769
Ni 2.5668263107631386 2.1579208895845885 11.916781715211178 -1.5845778202790324 0.33185099947558977 -0.43804115958112305
Ni 5.254017601914219 8.52809418497312 5.961145785069984 0.3665308102459623 0.2792608840836997 0.43324348108216354
Ni 9.072341475698222 7.943203326344667 7.804706710699679 -1.3489914942651478 -0.428649691063894 0.5245919481891739
Ni 2.8062235427588855 6.250134507359365 4.582710931620947 -0.602845015564807 -0.21672805565680095 -1.5814284760167732
Ni 6.344935326601035 9.103134034366574 0.6408468278308708 0.07112802629507749 3.1090933851588454 -1.2520591053124566
P 6.773608004721344 8.091835204565875 4.571458227221381 0.3570303269546948 0.35001378642754555 -1.5219447188288435
P 2.4953435852830363 4.106594040905911 4.3559392078661245 -1.2284345239149812 -1.2417338121270485 -0.4001667531328527
P 2.697200736674631 0.9251337202630534 0.07727776572828036 0.09206657621995758 -0.5293821704889657 1.2021447369805167
P 7.968338777533694 2.3084446834866914 6.327991963508096 0.882172491220384 0.11237366320842583 -1.4039557663161693
P 6.8541961569021055 6.264962280011105 11.719649693130979 0.33477254399775896 0.1437812309854298 0.6411701363972506
P 3.6193558547129854 8.22801585446356 9.592559573319626 0.7735865771891645 -0.4045561404498 0.2504354752115751
P 7.502135338590911 9.274645976610422 8.727509553564744 9.230260349016362e-05 -1.0473193323657832 -0.44029833104641586
P 2.2774191302763573 6.724082684877633 12.870371524875585 0.413009670533792 -0.22194945195674035 -0.14687555364003738
Ni 6.115025632354797 7.212793396575885 1.6301146257199115 -0.718688125379072 -1.2075247703455074 1.1634365217770417
Ni 5.379256828120427 0.32524360499996063 3.6843650598386577 -0.0932621391899555 0.0965166415715112 0.22467070754264531
Ni 0.9340098803344028 3.611145127053537 8.348032275016699 0.6499355412947065 0.17109637386061502 -2.082375016872865
Ni 1.3587868897127722 4.1903136397309115 10.556310740948957 -0.00757729812662566 0.5080155318877315 1.398894806853494
Ni 6.305018701668664 7.462433068637164 7.663964027669984 1.2155746372331775 -0.06611566068215065 0.9523270978585984
Ni 3.1586417671793003 6.050038794705155 1.7827922211680967 1.8957347817403805 -1.1920937805024179 0.11454495982813176
Ni 3.393248631391896 1.0254928572982467 9.913668923166655 -0.2678112474858613 -0.7401432099290544 -0.04041285659940782
Ni 1.0426598951514863 2.4336839096928986 0.244550139286223 -0.4554408431148092 -1.622305159626477 0.02472809887429935
Ni 3.931922692672785 6.567547631792392 6.357551515060279 2.9015788776805125 0.9715499506439526 2.1017799037620386
Ni 4.639648273834192 5.921155533862348 8.778552133865842 1.1636553226560669 -0.284917825259161 -3.0939585863999364
Ni 8.306535015111521 5.440953782837282 0.8205256947602751 0.2468845246355232 -0.7402902770298798 0.765397613620469
Ni 8.479547442205735 1.7704323267050313 12.240441889303826 -0.4075324494693045 -0.9495611050776873 0.48322264121376785
Ni 5.941631094211734 5.209058975093357 0.08885200259578216 -0.23915244609858813 0.3862851100547541 -1.6657647734720087
Ni 8.257447725006738 7.523962267283792 10.254325583107816 -1.0299764702119616 -0.17646406593043157 -1.5641460347872416
Ni 1.4178183868693517 4.720655816190521 0.4889884411922946 0.1654916260793279 0.9951449643550733 0.05290893218388953
Ni 8.033334934965014 6.890599224141385 5.746691084782503 -0.21990953870857613 1.185446193278913 -0.747650574049693
Ni 7.566870542135212 2.0401747678485247 4.047118922141397 0.49498775216949586 0.5425996976205042 0.257099517495312
Ni 6.801679187139344 1.2542468986162525 10.27844145018113 -0.6258335060401802 0.018044516206536666 0.7829675041834323
Ni 0.5149151418458925 9.218662048062967 0.430826479666392 0.002962939283065865 0.947425289681607 -0.7991441139432947
Ni 0.9415402639312637 2.959226398587678 5.654686200044618 -0.45740568015066385 -1.3572377934343398 1.0862951994083487
Ni 1.1946189354321985 7.059510947296714 1.1831239167089707 -1.0304837488656835 -0.09831975621852099 -0.30294562929514923
Ni 8.346796471966025 5.283197838352056 7.182197485300966 0.5912737657874397 -1.2190032032987521 1.6938422484345153
Ni 4.453942304092795 0.16088552717312984 11.981478707650593 -0.5033950023965846 -1.3337404816433482 -0.1783419996794348
Ni 5.742001370641487 7.578557548361033 10.080219013644456 -0.7972317274119303 0.6423780406624228 -0.34217012201341074
P -0.16014926442046648 5.446321977084549 9.21267315635586 1.3676700445112577 0.36285104740152996 0.8818960976305457
P 6.102593043594633 5.641161332871643 6.636975345412212 -0.622161970725864 -0.21930532946567394 -0.591804184369613
P 4.62068251811685 4.150574090650448 1.4010101606107646 -1.4713204689140724 -0.5965136740301403 -0.5499440538007173
P 0.021919194531506137 8.9332530539166 11.521918409088801 -1.013557919644622 1.1431620877987216 1.3330313713914654
P 0.9491824849082758 6.980982466867074 6.3576465768334085 -1.6142768900053617 2.6996169245892925 -2.287497112859622
P 3.1359108196635286 4.3206694260790455 8.596821051010659 -1.7419645578630387 1.4874939933501414 0.2184846333365915
P 6.613018846605614 3.3571810762930703 9.708476221912047 -1.2099909724978128 -0.12116657890970745 -0.43445858443618723
P -0.01811765558452652 3.9067872414837583 12.827444610460807 -1.365267862827668 0.06067829171666324 -1.4062797864636556
