# total energy = -340857.175075142 ev
CRYSTAL
PRIMVEC
9.36756423975229 0.00000000000000 0.00000000000000
0.00000000000000 9.36756423975229 0.00000000000000
0.00000000000000 0.00000000000000 13.71037715277782
PRIMCOORD
 96 1
Ni 1.4921686792546667 8.300430078606661 12.269567290408148 -0.2254600362131601 1.501499049379982 0.32774443350638394
Ni 5.012855297291564 5.794793989141228 3.9578980081969517 1.4395439478334242 3.085778107471673 -0.9593829762641155
Ni 7.128688302583095 9.092804237046966 1.0099498898294508 0.0011451693480367374 -0.2116367571768226 -0.5850622376600891
Ni 4.55290789190517 0.4587296220320108 5.7819126515211305 -0.16565052025469537 -0.17924857065410418 0.8637610785927318
Ni 0.9719972032118747 5.8927787113477805 8.615052839019485 -0.5938921772468934 1.6251035483072207 0.9169078378190402
Ni 7.0535510696176305 4.338259524348676 8.148214653360132 -0.45684080878612937 -0.5388276321725817 0.9469360087500143
Ni 5.413047010234785 0.5021585867186068 9.867112111046776 0.5669680991625397 1.0873964028923273 1.002502947382041
Ni 7.527315632294146 5.705071458615956 10.639526800308735 -3.036549709463164 -0.37706102035332484 -0.05557773726530428
Ni 2.476512332167138 4.518781855289638 7.284981428553956 0.6104428825167229 0.08349066162548846 0.6379043211617853
Ni 8.795955493069584 7.719631726644098 6.7377320712482325 2.004437423855122 1.1860745708915315 -0.12568863514977707
Ni 7.969801897891533 5.630065371550195 3.44023516586419 -0.3348329649220491 2.549831396391312 0.5832300695473568
Ni 8.866942895065879 2.7890611138518024 7.262277263046115 0.8789416429879122 0.8694151915547155 0.2137728296832189
Ni 1.0891573294678347 3.3187968730086377 3.3935650239420805 2.440261264069952 0.9241310950403568 -4.0592219327042285
Ni 8.792377083520549 4.335327476733892 9.797435231291084 1.2013728918114988 -1.7390664103796374 -1.6026930418225045
Ni 1.5111379968902563 1.275234626017638 2.907202960842681 0.8767814021117997 -1.4183223194504864 -0.8458957682765368
Ni 9.22086820810679 4.999890588349513 1.743905107247124 -1.3707049746828395 -0.20843367685849262 -0.6243664345763505
Ni 3.6668299881271853 9.180437800741258 11.56075461547636 0.2948561674187954 0.34367755979687264 -0.09696118530809753
Ni 9.156035295832265 1.8710210808033827 12.507291715773782 0.8607487741289692 -0.3297421806627031 3.975588317742972
Ni 7.044520737666664 4.057466785520629 5.801943314187886 -0.024364544887293522 0.19166905580564408 -1.24861871217234
Ni 1.088454762147998 8.347605132242625 9.112396497706143 -1.174720836441609 -0.09837863448091444 -0.014453713531484785
Ni 5.703731896926134 4.460890308135098 10.309216180022172 -0.5151709119855902 -0.15146625833451333 0.8431886537580189
Ni 7.842880769671977 6.690764040782513 8.597695679193812 0.5852432433226437 0.34048399256023937 -0.21800846503112128
Ni 8.853743997017215 1.8231340922833164 4.461220046397208 -0.2962396780298833 0.7957415160196489 0.763090305643531
Ni 2.587021487795311 -0.1540346062266932 6.840367789112103 -0.624589349220434 0.29960370940610986 0.2229709512427192
P 4.734057849651853 6.473567695746078 11.114701181407055 0.07643066945491353 -0.7041557360908518 0.5937060293780162
P 3.2381327771271256 6.425324739783961 8.49287919236917 -0.8814258428623466 -0.459341463720796 0.008320089829921154
P 5.247718868530824 8.979259990597098 8.009355501241911 0.1507232095209017 -0.31847072151394185 -1.458930837000468
P 6.963903479606474 2.4889524575103787 9.761774787649028 -0.8764299323096518 0.012184972101966111 -0.31962668949525597
P 4.531858975002864 3.547796349018328 13.510672132784546 0.20554529956710407 -1.6154158887058114 0.31101375101526435
P 7.1391050340452065 6.134499339628645 1.282412053757089 1.6233523699440688 -1.3808209800709188 -1.273852547038464
P 5.096179781424191 3.863492632295861 4.26712224132415 2.2073339729454697 -3.2782840573563155 -0.15541701545214523
P 3.0311939149603058 6.523290726861985 1.7410395693386171 -1.1632025513893645 1.3323438584061378 1.2849707684388127
Ni 1.348732535236816 3.77337666407148 5.523663892852 1.2459925874034026 -0.15090241541124333 1.3754183209981088
Ni 8.648856631424318 9.227968821819273 3.2366227257676896 -0.5336681994588293 -1.2462705236551375 -1.223955662208021
Ni 5.215906620288621 1.4633540515770995 3.602676224261835 -2.3140992888281824 -1.1797229176418909 -0.5805898037110323
Ni 5.55523726820546 5.282397591437962 12.930544498423322 1.0141862972572404 0.8962883617964758 -0.4260081396759889
Ni 7.294344309036312 6.962638858430768 5.193284889346307 -1.129360663139255 0.356440772999812 -0.4233593891992322
Ni 4.9470575258977965 1.7175335403297356 1.5314628010749176 -1.2524704818182624 0.23708245094343683 -3.1337016706258294
Ni 2.3565700393246245 0.04903076811676022 0.7421359112898515 0.1295100657783963 0.3214192626193045 -0.2638404357635714
Ni 6.641827885064824 7.5809449377083435 11.172901858182323 -1.5341602870584288 2.145229490305241 -0.5389952680986976
Ni 2.306416100252552 2.404784892593948 13.13574755093193 0.1508913596676498 0.4166246415785599 0.5963020722399666
Ni 4.873006930387013 1.9928181513702645 12.070424115222234 0.685514981061213 0.8327607735564755 0.75246702160173
Ni 4.656447579720564 4.717833228345758 6.643692030353458 1.3259772927581615 -1.570352677818586 -0.17434701958742876
Ni 3.106677747803556 2.2690114161444486 10.820915630944162 1.1883898492882694 1.5893125067505405 -2.211174429737482
Ni -0.05805547952916861 6.7711471097360905 11.113165837624106 3.2988176585332925 -0.3733948843556472 -2.03340141518764
Ni 2.0262322531016954 6.950882565278834 6.825505211650066 -1.8552766737253341 -0.04387613255765992 0.12742695799712245
Ni -0.18967256771451396 1.1789548005072232 1.2949496017686806 0.5253288263551985 1.340288310064195 -1.1035701844387125
Ni 7.240237257844625 1.6254597511740765 2.4294103455324354 -0.5899771584632032 -1.831221175438027 -0.5678232480739833
Ni 8.117453445828405 5.6240232925996 12.752090525671958 0.16262998826081668 -0.5789525252179255 2.8882348522734387
Ni 1.4116263617085931 5.975915844195117 3.6001123219226443 -0.048900068134812555 -1.9625922056845617 0.4489536927285688
Ni 5.368551079978465 6.54617568636013 8.626418504741588 0.4667925206822025 0.3907524017974883 1.5863919906696358
Ni 2.5806047062741357 6.926845395376157 10.571139834152262 0.14864164440152464 -0.6397015222715241 1.2098696164286
Ni 8.425758720901255 8.089641147527137 12.533369141173266 -0.5378099895413447 2.4969368623851254 2.308152327216128
Ni 6.78738109860645 1.667951022677797 7.703901712731168 -1.1815620277331587 1.775560134430297 1.0312337396578306
Ni 4.3257163557985265 6.959978470179653 6.514567651018893 2.0399687839925122 1.4678656775962526 0.7176139184782867
Ni 1.0704877738887089 0.015904250608248887 4.820582293737229 0.21180182199977715 -0.7199029716227796 2.100104315831828
P 9.064167593090424 0.8349497380224054 6.488997947602544 0.24352949212036124 -1.0424609758322176 -0.9145707050454314
P 1.1608191960911731 3.8656565396409577 8.762521719453197 0.3415545999165989 -3.2636776202970506 1.0024713228131574
P 1.7093743918553659 1.020118380838553 11.420305787702455 -1.9246298675081757 -1.1857804366898803 0.6818773843086255
P 3.2501700972069933 5.408157141688722 4.929415592118485 -2.665288583621068 -0.45448053608406896 1.2113798824255395
P 3.7850018113237107 2.670767512319839 6.792271903908939 -0.22289433236851292 -0.9140107187769033 0.8663486368142499
P 0.08317741337367436 8.474891595468499 0.9153580993994969 0.4221342585428795 -0.07968517183646921 -0.011219008644271002
P 4.794057098765903 9.039006315476007 0.5197574297023017 0.5708720622026362 0.4223746566884597 -0.46928597652801757
P 9.022510034806244 4.113419246872419 4.426381138141148 -3.2652056269058027 1.29291522009687 2.2734226370444266
Ni 1.6537310601243032 8.042447358762644 2.764121847510454 -1.3041604539933862 1.1440681445527587 -1.2621136613349813
Ni 2.997545624122263 7.544448907333895 4.8987593013065185 -0.6714160797659856 1.9338788969102696 -2.73714551766237
Ni 3.059465223910533 4.834656122288196 12.55584005433092 1.3851715437301306 -0.46920807210223064 -1.4118873624584198
Ni 7.688671926749963 3.4209501613128865 11.591082104782643 -1.2107095958313923 0.2374694019692104 1.13911234320938
Ni 2.180469198716502 1.3317397736610337 8.72821769911664 -0.2923262019080901 0.9111863619542308 -0.17766142867264242
Ni 6.901440561090864 9.298047570081913 6.337512255612219 0.7852267325312541 -1.7683067953019933 0.9703006516178838
Ni 5.053941434155612 6.434280131220813 1.5600629115308278 0.12012502501907053 1.3076000758025543 -1.3136807347789956
Ni 6.422776762304021 0.4254906937523256 12.368857851073168 0.4398090501148232 -1.3273991128063525 0.2553416542639409
Ni 6.46612048215581 1.7885865152758822 5.154663358640247 2.7172055842053333 1.8597149120023457 1.920804323114498
Ni 3.8740217745291465 7.3707930009988045 13.15407893744111 -0.43061375676880026 -0.5147250826974231 0.07769051000394363
Ni 3.993364543258732 8.259456352513789 2.6274565789429762 1.2375341722234043 1.596970280406114 0.31083943022092914
Ni 9.160063348465995 5.367380134445403 6.476686157889727 -0.5817041198211336 -0.45891388926507415 0.05855353206417658
Ni 9.025367141906912 1.7680809171009164 10.447773696571078 0.3975833086763927 -0.5504816714717423 -3.766813198384661
Ni 6.856073447357945 2.2978073086934874 0.07736952352969138 0.5342263859551445 0.6930462564412516 0.18483840603705584
Ni 6.5875334825878475 7.506632050398155 2.84749410622083 0.2563644391015004 1.4904232511817943 0.7158501417096446
Ni 7.295993000346862 3.519375159039869 3.255542395312678 -1.444678183736196 0.6371000800929351 0.7842468851164881
Ni 3.364313867769788 8.544520700646443 9.100468778128171 1.4743944798537059 0.9072001236129731 -0.3672738590595739
Ni 3.3341503108381345 4.680278663209423 9.954899302795006 -0.3337975816789993 -0.1069758892316222 -0.8039430779938348
Ni 1.3121896670410458 3.9144428143304153 11.20369491543255 -0.49327076947838916 -0.027453468225262397 -0.2949525837873436
Ni 4.824932590581657 2.8782590607782637 8.827412710626163 -0.5574066807263497 -0.3910133687683588 -0.7536271033481021
Ni 3.326871713404627 2.696172346605133 4.56905195215859 -0.6354915979552346 -0.40568973983361095 0.29514361675222717
Ni 8.332083078256368 9.471637903467151 8.482102746439303 -0.40055216149672956 0.8223488341945321 -3.7763833585715996
Ni 5.21494176116938 4.253380024548145 1.6964537104653568 0.7439831525004349 -1.8436246913087022 0.8626693881904498
Ni 1.9345987394664674 5.0324990795541975 0.9932315978866177 -0.0674364363761032 -1.408578352689845 -1.0964788248095698
P 3.155042482101111 0.5174211591747382 4.066004383591283 -0.08738022648788178 -1.2155077885509842 -0.20087129113020244
P 8.586150156237832 8.910886139030595 10.264575052519751 0.27122541537373285 -2.3347601596116436 5.135952628352594
P 5.987063245669859 8.618590031285756 4.589123832108109 -0.7208601933297263 0.39396576652846343 -1.352992902115057
P 1.6490566455563234 6.307237224665817 12.788354240452648 -1.4097371488846366 -0.5556845558289204 -0.16055073713428478
P 2.4783577423272423 2.8786899687344305 1.5713733086237716 0.37173420882377267 -0.8910638801727427 0.34717040344147954
P -0.06034491223540965 7.494969432888866 4.39642460437974 0.6473251002550529 -0.5563684692698224 0.23529990512171736
P 6.504892830646528 5.972599726445488 6.854886576965635 0.6483147178618319 0.14239566349181285 0.5600284346199129
P 9.132953617484564 3.3736907995985415 0.4558921868162972 -0.7899668183194007 -1.2162312969805698 -1.3311436674504493
