# total energy = -340891.6285707245 ev
CRYSTAL
PRIMVEC
9.03840502488985 0.00000000000000 0.00000000000000
0.00000000000000 9.03840502488985 0.00000000000000
0.00000000000000 0.00000000000000 13.22861936991117
PRIMCOORD
 96 1
Ni 6.143494213727386 2.09491245584664 11.452042272362124 1.423764059291348 -0.5326991506773406 -0.6834164466609713
Ni 4.732255745052559 0.29476498071998997 5.797269978389345 -0.9129719930997438 -0.20839562453170557 0.44781932201380936
Ni 2.820307720166892 1.9826735434486076 4.586481638849532 -0.044133757094420765 -2.2286201360177555 0.47938141309080673
Ni 3.4816206935464096 4.288994290565177 5.074961329352062 -0.15706123592378757 1.4216513838237195 -0.8846590050876636
Ni 5.058099281118066 4.768517825624382 2.7811316578462266 -0.6630147430761679 -1.134505183454672 -1.4442477810669965
Ni 7.283056307071236 6.00789102459003 2.6185262339859587 0.36766003875439907 -1.0091543912602878 0.3197094790170494
Ni 5.137420322767698 4.532172575157628 11.382287478488468 0.08789701822330023 -0.3474100302561114 -0.007186747556426333
Ni 5.691311853575899 7.744457840249458 12.676258066263228 -0.5450389031896161 0.028022710465171092 -1.8537970038560139
Ni 1.9101674591148166 6.3662457031821695 0.3530518464207817 0.2087941455217049 0.8549424518598373 0.47684347716030134
Ni 2.5398279384358773 1.514655897862964 0.10892452931087204 0.43532350353964383 -1.0594757652226594 1.421155160913591
Ni 0.7751082991061808 -0.27202254623972505 4.437831512198361 -0.8699512665638437 1.9378497086325592 -0.37446677726358735
Ni 8.377082916386959 2.2130715234726246 1.5202063823293541 0.07883207980755456 0.8743535093965974 -0.3243588048636027
Ni 6.772142391696491 0.8521272590206078 4.762753130961195 0.9373967018010114 -0.6699166124023236 -0.553138392368299
Ni 0.5861152520581167 7.347789363166799 2.490076038508758 1.936674971598168 -1.4844924875196563 -0.07932573161452144
Ni 7.726769681805027 3.5783948951123405 4.052124812612589 -0.38792444543038995 0.8750659620825897 -1.7289516905431386
Ni 7.532651859162689 4.019749246159878 12.775684135835085 0.5357903880081547 -1.3606522184325278 0.2850242689300382
Ni 7.9334870409172344 8.815870360434896 6.991285749903949 -0.5091712427587295 0.6975701124535342 -0.14414787029622916
Ni 6.803550848821887 0.46443391803162354 0.545385487930298 -0.378946924522128 1.1810994862744433 -0.34341273617126017
Ni 1.9966378790626322 6.593950238537592 9.361589365507044 -0.2996373908575226 0.6341795640120304 -0.7544601407723587
Ni 9.263280442784309 4.827384956921563 1.5261193068333638 -1.1081809437378465 -0.5042321535858993 0.34765351372548514
Ni 6.371750091783427 2.2719748083895177 7.119152968263283 1.0626791026513054 -0.5985592437052595 -0.928654179721691
Ni 3.389257233585426 4.056924205629447 0.6211725132530151 -0.1830373482725751 1.2875220741057567 -2.0647758157338636
Ni 5.73440696827342 5.3847653120320365 4.857628363651717 0.9957753988502206 1.2415638622080876 0.5335319309912812
Ni 5.355037998223281 3.1310661584072816 9.114994563851743 0.6625660855745233 -0.7102978444328476 0.9746581572556311
P 0.23498497052506426 5.282504798674706 12.592534417573084 0.5102976430536889 1.3896275226189552 -0.844184442012385
P 3.883197024505065 5.979926199742268 12.614281723670757 0.5000564249416549 0.14456207501551235 0.6063828535147363
P 2.511131002788933 8.659316148674039 1.3922062994175763 -0.8724732616547491 -1.9003182873460043 -0.9314425411001055
P 6.425628023560256 7.72314528142883 5.864313250784548 -1.013466131261764 0.8754164034434729 -1.4821517552016217
P 4.5483242047642705 1.1311744535705077 12.77143789319983 1.4015335300279217 -0.42062887764194656 -1.0126989140784366
P 4.018646560758642 6.314699679876808 8.27465971174092 -0.9393222009584984 0.8456666829848662 -0.6750822157636631
P 4.603494628445828 1.002151223220861 3.6885622051008364 0.289424711990579 -0.07451776870291683 0.5659144610870448
P 0.2170572943500363 5.445765506892266 3.836458528780998 0.02656515208303812 0.5666659945410886 -0.8307257454043177
Ni 1.4413725107053503 1.143105148075694 2.4231123040769216 0.21500464520779097 0.6865243961623337 0.6804648202318152
Ni 1.8777015086128246 6.658873101136647 4.849214512504082 -0.25391469200942723 -1.3669218534913232 -0.6682934749766039
Ni 6.043610800866163 5.7383748280368865 9.094292097363766 0.4895478121008472 0.10336348929001553 0.8852537012488689
Ni 8.486303001538982 2.424488853147482 9.94622864604039 0.2439362406404767 -0.33320134285589714 2.4566497327303045
Ni 2.1507246062780982 5.456313325443442 7.104046178266337 1.0579513581583329 -0.08505723478165995 0.4834905501631737
Ni 0.6027296479970814 0.0037744378980043786 8.814109679154887 -0.45039942403615973 0.055696265121039555 0.8708454962433388
Ni 1.166849037822 0.856613923226952 11.401588088372085 -0.006948920514007388 0.34250205143153273 -0.6087945482800224
Ni 3.9932305661006238 6.8691967838151955 1.7008434240213237 0.47310663582568846 0.08414577871098411 -0.8299274178727385
Ni 5.5475831384081165 7.88126313724226 7.823260077456213 0.051540848191769295 0.6245561819896535 1.0751204137384516
Ni 5.356104530004805 2.874899685933048 4.652320091867811 -0.09981048183143455 0.24039608869770213 0.8355974716743221
Ni 0.8989326389411434 7.6421702116773425 6.86692362497576 -0.20941660959705222 -0.5750079387478806 0.031618655346545545
Ni 4.844259658922459 4.70441745787379 7.187743615582191 0.44820910125306035 -0.9898988854647855 -0.8833405433865562
Ni 8.170944015190154 7.196314734975576 9.428817021362782 -0.17592233449434863 0.4987865570902958 -0.12267247403127259
Ni 4.575584034027635 0.33195711315892246 10.37113129243767 -0.1826606816594467 -0.39052871582245646 0.008845623316087991
Ni 8.192518687753699 7.217202488764579 4.681105603883051 -0.6821702329586962 -0.7521618316564852 0.5709185991698555
Ni 7.152713469602076 6.028390126967122 6.880720750098614 0.9585450537438523 0.2309467703593442 0.9318960836977563
Ni 2.4342141768501944 5.239500068026466 2.3852260221395056 -0.4105576094488736 0.0754575069083668 2.127330241427317
Ni 2.272101346058512 5.221802871177107 11.349612740832635 1.154944168035314 -1.0769584953884548 1.3540982193640936
Ni 1.342383899932017 3.51117627766153 3.7330763493720807 -1.387945764041158 0.3438840193807239 0.035610807225074155
Ni 3.756975699683151 2.696635225534723 2.41578396536116 -0.9939524867088689 -0.4649757791884379 0.5633793533700168
Ni 1.113893023347844 3.3169409557551264 8.290838456562348 0.19992178273273956 0.9066229109532643 -0.6321640762438984
Ni 3.81847300681443 2.462594768324653 6.7045685649320035 0.49775888715672983 0.19271832300576486 1.1091263383702512
Ni 4.064272428836051 6.9086946133513045 5.94906908531749 0.2337726698439135 0.3923071478791179 0.4993653124119013
Ni 0.9216009585009972 7.269471584464195 11.613418473152159 -0.6418442796461398 0.6018235162788281 -0.8570846950138206
P 0.12888675043523143 5.926355573732995 8.04876828041409 0.558664978613483 -0.9785952875265082 -0.23672301072148905
P 8.508926129074196 1.714034072173497 7.971552283272229 -0.480417824775121 -0.36842777015835904 -1.2076366133330232
P 1.5797504901556543 3.1900869425882408 10.368128734320532 2.027216883643483 -0.9419663234495649 0.7296631363333369
P 3.9025120958365673 6.21756394211375 3.858127200755796 -0.9668438034175348 -0.14956929842211658 0.02770466500412003
P 7.0944067194104425 4.132557578068386 10.463189254312082 -0.8630252288679717 -0.613226358799131 -0.5868782078229055
P 6.210080142833225 7.837137644382928 10.374107639180517 0.20462150220125405 -0.8049599492941234 -0.4640093015101105
P 2.360759059998945 8.812381536132623 5.713414368987248 2.0036452669711298 -0.2722579704033053 0.5025179991082701
P 6.827132047279486 3.9262107935582327 1.826740270106316 0.5070835069917654 0.43150258713165685 -0.9323270005875879
Ni 5.392167765668209 3.0754076608596024 0.20758504598531266 0.22046386855014935 -0.7257051801268534 1.1132061648665796
Ni 1.4839976283466065 1.3470115632552406 6.948940822815466 0.11650876842272193 -0.24530406752228076 -0.3204412149767514
Ni 6.8774217322998314 0.6380246192415907 9.226486000162215 -0.419825922124677 -0.02885291967595031 -0.24714677715797434
Ni 2.9113425346034347 1.6689866620114908 9.131570094649517 -0.5049705744138208 0.761904769975862 0.11978281118830339
Ni 6.022289203640607 2.005224363744395 2.529484387836078 2.130700700561447 -0.02536418979640148 -1.0084465665599858
Ni 4.267112312234073 6.650539691792873 10.519265326167444 0.20653645983577978 1.2723934459944346 -0.008869020354855695
Ni 8.246125467382685 7.02487427029802 0.42455286012656007 -1.0202330176719525 -1.1254602996435843 -0.44692072145893996
Ni 7.79209927262585 4.0018712812119555 8.315497032887384 -0.4871273755848126 0.7301717005386392 -0.9190922470648687
Ni 3.3895464625431275 8.18830679105717 12.267096705888852 -1.584417126331452 0.7307013477898641 0.6578635378925315
Ni 0.342754391686116 4.976247486088546 10.252179556699485 -2.186734037306931 -0.18414009441845058 -1.1359522003138436
Ni 8.652401768903989 2.272264037347219 5.678768355216582 0.23782524264673233 -0.5974469844776872 0.9008620972100873
Ni 3.640805081141364 2.602771390355663 11.343276818977989 -0.7924618168271127 0.4934607740020082 -0.02332504787918564
Ni 1.0033442926713794 3.0673002116390324 12.604532900115231 -1.278900908095649 0.9308326754302486 -0.6578236857935316
Ni 3.1042853646051096 8.648316409876456 7.811632169516121 0.6112993169797472 -0.7336123507890719 -0.057049693825140455
Ni 5.7416196154061 7.6431463594095845 3.647883959881108 -0.8056248365716319 0.7487895727501428 0.6916514329762541
Ni 3.1495587348903205 8.344996578891951 3.5785792785728754 0.13703697028306078 0.5716529062327187 0.11453416119485435
Ni 3.562749416181676 4.50735311522487 9.338717681836306 -1.3701640145777048 -0.6441356467834778 0.19329245034168002
Ni 7.319372618072628 6.016965583137915 11.46049498865095 -0.103442422157067 0.867842447750957 0.017373458281441045
Ni 0.3558537519485148 -0.11752637928101278 0.5168214168357977 1.4451188708180402 0.7680661615915676 -0.1401022394719458
Ni 4.677745124930757 0.11842750825235146 1.6206908491182994 -0.4645921705967741 0.7628779325224088 -0.36151047421323546
Ni 5.830132714867682 5.551876380748998 0.3823389899095355 -0.14925536672612358 -0.15532265596612604 0.8730898121928254
Ni 7.88887347419178 8.690986719542352 11.43362833000196 0.21001927617805768 0.005122923048862145 0.23895498537580134
Ni 0.18489864961560243 4.725946938412695 5.998530852446415 -1.1704628324962036 0.3460841123558362 -0.3471655183454731
Ni 7.823110039934406 8.64536988986987 2.612691943604824 -0.6090827689444026 1.214052029941064 0.39141034709646133
P 8.631477861495272 1.4340242874987468 3.53909229512268 -0.8009261455443819 0.365462516882448 1.3781837995583877
P 1.625710779215406 3.170075914077269 1.515391624024117 0.9310381065728353 -0.5082795841823956 0.3959835682894406
P 4.8688170051123 1.137573644259653 8.157176716803564 -0.3166673497566159 -0.7929585539578731 0.4757013931360581
P 8.296125923445327 1.3981418199339064 12.600180004301823 0.6800688703449771 1.7038628658953108 -1.1007972496792653
P 6.27559050175261 7.586123062717752 1.4566826648131799 0.2512122054765996 -0.9231990701443906 0.8028470167161786
P 1.891756228276131 3.400537162935784 6.160581318244094 -0.3148567789104384 -0.5262605941408485 -0.19527759909250883
P 6.860321070175731 4.081942510470626 6.060003755884388 0.48922565287473807 -1.1191258727851243 0.20168195995695587
P 2.3671492122831626 8.669168010045746 9.929613346260933 0.6163499920297771 -0.1975126590706147 2.141066360066487
