# total energy = -381174.1165096681 ev
CRYSTAL
PRIMVEC
9.15014258847106 0.00000000000000 0.00000000000000
0.00000000000000 9.15014258847106 0.00000000000000
0.00000000000000 0.00000000000000 13.39215858882208
PRIMCOORD
 96 1
Ni 6.190190206466197 7.398237741411866 7.493033215466304 -0.18469776669413351 0.29820837172048 1.247254999055594
Ni 7.039982220595901 2.934734284648055 10.288444688666958 0.5914272606461686 -1.30574013977568 -0.3860609098590899
Ni 4.42728719360672 8.044411639312477 3.222916185830459 2.09510531995534 -1.2119735501454807 -0.15527946143301646
Ni 7.472481995898132 6.807294102332934 5.649802933530659 0.2531526170324221 -0.2921313122884646 0.6443390210435356
Ni 0.8561669182584425 1.0882996228848176 6.3595071843180815 0.03317365853849125 0.6524801620934312 -0.4705010798820413
Ni 1.9127731933167778 4.209651059399692 3.917862172129233 -0.4969883275392924 0.8531673622372855 -0.8275997981808263
Ni 5.7216663209948235 4.720860358622413 10.359824948618567 -1.7248602940825841 0.35841049513167306 -0.5770108281105224
Ni 0.31129424557565716 5.670306572358959 2.4058341003349057 -2.136389780526424 -0.37822058787906476 -2.948436975684632
Ni 7.291510481820074 4.385782148209912 5.908418894967436 -1.1627027289348104 0.7841245006060109 0.16496969213758686
Ni 6.980982103153526 8.078029262061127 12.87623851844651 0.017687389977434055 1.2772242917241743 0.12612983645225376
Ni 2.1131247087507514 4.538891479035482 9.575821542491179 0.3098089320738858 -0.9421396158026355 2.445525340682369
Ni 3.8422087957313478 6.387604526227249 10.868057706556545 -1.8990998415578715 -1.1545950122260114 1.36827091132005
Ni 2.324218491225257 0.37969979427098255 0.32034282127956004 0.9232818596661843 0.6121336399555845 0.33114703143002966
Ni 7.861006187387078 5.650542265027146 9.678566660161302 -0.5087128150650723 -2.278903714763656 0.9523648930750696
Ni 7.766283914470906 2.027680680109792 12.96871168638946 1.2514024455650643 0.4737800077436292 -0.5955009164949099
Ni 5.732289636185673 7.31497144663432 10.221430876612915 1.70076674346849 1.472568739498877 -1.4946606863019096
Ni 8.150846094351206 7.629901043739111 8.968313400836884 -0.6083284072768814 2.1666673484640424 -1.5222751055850687
Ni 0.8276175593204839 8.437007644117468 2.3610505589580106 -1.3384278598166885 -0.15738930868716766 -0.573189140371587
Ni 6.148273404666643 5.0774322532582605 7.9438396804346265 1.2489293014342233 -0.10404303185554338 1.7454028941206263
Ni 9.171462114766845 9.077636555794433 0.08877559544628956 -0.5220023330851268 -0.2406179749005211 0.029092546490582155
Ni 4.846610764021075 7.844407829285268 5.541702237582153 0.15589241242666702 0.9254942939364706 -0.3514564324113431
Ni 2.2180036396013274 3.37598159597307 12.42845800553126 -0.4704280605522608 0.5366280534181016 -1.345038680264987
Ni 1.583697476242087 2.9566580255587147 7.908833066087381 1.2723394528280476 -1.7069273637532472 0.15665885827904633
Ni 5.470732819019061 0.9442489329196618 6.769173694566698 0.634688642437965 -1.0410702661322782 -0.1610114788207872
P 5.663956373614386 6.177746012960982 4.12029808997533 0.7151924535209877 0.7157514113482512 0.573535210857096
Ni 6.737414465715777 2.3409541014613158 3.5755452841564557 0.0032948687011878737 1.0473630411195252 -0.7970180687392274
P 6.914872325157067 2.260771404633223 8.162038548392074 -0.576180104679111 0.3351967760193711 -0.5446637792383846
Ni 0.9079823439800129 7.90348114786591 7.241783118567541 -1.871744075252738 -1.4070711720166993 -1.0746547869559429
P 4.0096380992302 0.8140341731010039 1.9162035816587668 -0.042539930244739635 -0.3387739518476682 -0.033983298923980186
P 0.18280703262007614 9.063472135539966 4.508322683695611 0.26656374823200546 0.6095998177901372 -0.06210885351560272
P 0.7866853128306073 2.338986820870417 0.3336370630028894 0.0033347208001878056 -1.3863789337746704 -1.3810042997263183
Ni 5.640303255812192 3.242947677316943 12.369131228009369 -0.4814832899251578 0.295665036473336 -1.064874310530411
Ni 1.1009085189511318 6.690510836371853 0.11157683500191247 -1.847927175338798 1.3353980718514293 1.343761613324776
Ni 2.86795654626492 3.925081634390715 6.077347906786511 0.9715576639534365 0.3831509353011466 0.1745298250221962
Ni 3.45601789052463 8.735036928425103 10.015834499622182 1.6451010744750703 -1.0559191582196525 -0.5706272931816818
Ni 0.4106135499749321 3.9559816648812394 6.10031567893169 1.0857974338363234 -0.06139228706455234 -1.3085223305065077
Ni 1.2340796897415067 6.602760971875515 9.325348292672265 0.023731539288984936 0.8260471089817258 -0.5131058019264454
Ni 4.192997800444184 8.244625902612203 12.414584559801398 1.0955578556571972 -2.597407089287746 1.3170218833370866
Ni 8.817122854848112 1.2646137145407017 8.46038900269385 0.8040862884399185 -0.1892866716163966 0.5645463770949244
Ni 1.5381755183829338 1.7706989340848034 2.1872738017572706 0.9053769543613052 0.57986141018544 0.33630055060651115
Ni 7.533559195638805 7.214457133652853 3.4794834304100166 0.30635774030049173 0.12056751187312785 -1.9984621801082936
Ni 8.487296826106194 3.163817246851424 1.7484128475397274 -1.227410196415525 -0.08867683381211824 1.1736723405724367
Ni 1.854706390387293 8.387175969242906 11.705308535672833 -0.3610103946483653 -1.1263298467327312 0.008851022632726692
Ni 4.058820114002651 6.4714930306800555 8.540152623005369 -0.5064589860338891 -0.12459257387212092 -0.4000618521238723
Ni 8.374686025026273 0.9602982824844769 2.512409467564795 -0.2631660354043661 -0.7392178699013076 -0.48708160994854177
Ni 2.60894346865305 0.08929349349952134 3.524159915122198 -0.5352118897968653 0.6434049392650403 -1.192545523327856
Ni 0.6891420510485106 1.3112153891892782 11.643061947748361 -0.09020124087644465 0.760599163790561 1.5041290308036612
Ni 4.389131100285581 1.912681691893945 9.07812883344927 -0.49670730596376395 0.2663578028687864 0.019925021058701167
Ni 2.8011879580240673 6.237743495912231 5.7592441253236615 -1.3321651667364283 0.6640300717145596 0.39108458832592646
Ni 2.8785981617403356 2.2150481436438385 4.316078194324594 -1.4860269218863116 0.11315810678293416 1.0667429883080337
Ni 8.722803188192401 5.729023035390554 7.3960874579753035 -0.10008456142842763 1.7533244629605482 -0.11997461548413532
Ni 8.702352620189345 7.074844262695072 11.427930207484257 -0.07929847792101181 1.6517430052716195 0.3551958448491173
Ni 0.2186453949008692 3.4780056824312724 10.58896555671832 -0.14416278269456462 0.4826719109166203 1.5948133819641115
Ni 4.776438322850854 1.0470141809028075 4.443129749955934 0.5149958198603066 -0.007032738477065308 -0.33957227937924744
Ni 6.48483393812903 8.887926655835875 1.886753848720137 0.19594325770096577 -0.2678235887810355 1.0864576931281418
Ni 2.1588205193132866 1.7120373719069075 10.085152317503148 0.33228243058605356 1.1420259173117493 -0.878101920695436
P 1.7710008887801505 5.222059402187261 7.615236110701751 0.2334214571520819 0.5090290607539104 -1.3396805012768669
Ni 6.52676904021315 4.7043535019434355 2.652865981641092 -0.7912698534015404 0.0017077267197260913 0.4248560283494167
P 7.948600499464599 5.154805856405397 11.838145726269868 -0.16577573297865 -1.254911230049271 -0.3004236342042439
Ni 1.5001109264846266 5.822198934260857 11.510305278403417 0.9912623414712154 -1.6568227337873724 0.16249140580042337
P 3.1850547270908405 6.340188488915463 13.20548442816767 1.4130759834498825 -0.5501785384090266 -1.481322831542423
P 0.615697518997801 8.6065231800569 9.94840527110848 1.0111369689079555 1.4452212007238594 -0.5239810540780524
P 8.252650577394611 7.424910406167531 1.294377297359647 -0.3773803513659565 0.2986773409370985 0.0993512828068289
Ni 1.8561063621566298 6.729215938229988 3.4668415938314827 2.7240696583150186 0.3078674920767988 2.6948146181046426
Ni 4.795562120222841 4.615185365393195 0.8382362994401918 0.12047675193153447 1.4931331939137897 -0.7197754449059797
Ni 7.733599606235147 9.193330954823807 6.673071580194214 0.8635091104829258 -1.979843793676158 1.1661624053486368
Ni 2.1886316828721046 0.15675657753967226 8.256506447352772 0.511841590502041 1.2688905750474986 -0.3638074977775283
Ni 5.977284695819608 6.188717033558594 12.150584654645161 -0.6819658302573739 -1.5809348242098065 0.8300356613158286
Ni 3.271917027785703 1.7549423890730522 6.620239573664974 -0.044996619315348305 -1.212020344223016 0.41425434157417046
Ni 2.4823054994529135 5.118424890687207 1.4841054976027712 -0.8052841654027615 -1.5044218794537316 -0.7518404437613245
Ni 7.101919533711199 0.3286511504727482 4.519866503200155 -0.03541848870860997 -1.5081918880191254 -0.2609865112545441
Ni 6.048655805628934 0.34035052239610764 9.034992317683361 0.8187932556327897 -0.7875432964795728 0.38925344865445866
Ni 4.054373144852994 5.304703487289547 3.072884047854745 -0.05663291800269601 1.5185783734597718 0.960857761037429
Ni 2.422994277172907 8.706762988769869 5.583685835420375 0.5361817099093024 -0.7076526935005167 1.3489693827779607
Ni 3.880181886206823 1.0771364492992563 11.706473348785488 -0.9720376889136484 3.333974151829768 0.15931275096212563
Ni 3.7061004292680506 2.568618791610781 0.5614646256849969 0.004689177945553215 -1.3696374526502735 -0.538800121368756
Ni 2.8708571413687087 7.486344461457251 1.597363213742116 0.7759707611506249 0.9843018509929822 -0.679782706563126
Ni 0.15429976433662046 4.382616198979909 13.46394026211449 0.958510343851175 1.1822541687041768 -1.9174680596524138
Ni 5.2468013869211605 3.2283623505174477 6.866842313298076 1.124571726391044 -1.0436619381188543 0.6762466683854095
Ni 5.15301242851788 3.6192472787154712 4.7435829069544 -0.2676299847129907 0.36681903091034246 -1.1922128225787854
Ni 7.877970551180217 2.195347887308008 5.99086167693949 -1.2539722631747694 0.3607090613578626 0.45610264506852416
Ni 4.9673834920176505 5.545086875212725 6.105310741604114 0.11821263848770609 0.10780249889797562 -0.27447914642434024
Ni 5.821137517756 1.054105541172324 0.16061793758320245 -2.14244884223631 -0.45267999254022034 -0.08932346625718166
Ni 3.890054889730446 4.083571248878834 8.36806315204166 0.43531938977458573 0.6170333912500471 0.0787264074676257
Ni 5.2956356962868485 7.118609393235841 0.9979447128804395 -0.5758579454530018 -0.9097066920849107 -0.12791675314934745
Ni 7.282726345228158 5.539944495249541 0.6100775016074309 0.24384059560287683 0.2081166598387061 0.21028718512746364
Ni 8.411359795297527 4.223980182215257 3.8489195100818816 -0.8047768867490399 -1.1671214268277963 0.4825821794162915
Ni 8.766961774851351 3.7588692998155357 8.41239101633285 -2.3630883171323753 -0.9054857120250276 0.018907121317148085
P 3.8226732419566156 3.144290843218976 10.894815467635445 0.566180827374554 1.0426610076581657 -0.651022346600982
Ni 0.2711086506960935 2.216402364701759 4.139395351934695 0.6990490109919058 -0.5837859420508268 0.7159072201998251
P 4.208132135780674 8.398695998377514 7.596380412498664 -0.49586706945065573 1.1722242952720006 0.1470118221075855
Ni 4.204892985412405 3.076451688330983 2.7055241354669493 0.6073529307374895 -1.0945175873181407 -0.22335044606932505
P 6.273731005512241 3.0303715717925517 1.0760622225952032 0.5998733345309927 -0.11987717067432259 0.6728209305333123
P 5.791344654481749 0.30901311510444374 11.294571458777076 1.3578589719581067 -0.7692265004482559 -0.2791297578224741
P 0.3331228250065709 5.765641904808108 4.59768846331917 -0.1039116484840017 1.379876356769462 2.020487021118817
Ni 7.996602145882513 0.5308592297759926 10.58679605798296 -1.6392973233090995 -0.3738036897582917 1.0385259024438696
