# total energy = -381169.9398466037 ev
CRYSTAL
PRIMVEC
9.27813412216299 0.00000000000000 0.00000000000000
0.00000000000000 9.27813412216299 0.00000000000000
0.00000000000000 0.00000000000000 13.57948713595298
PRIMCOORD
 96 1
Ni 7.3499149571564795 9.608435410352309 13.409892821406238 -1.1398008846359726 -1.5842376633307942 -1.0851855112839375
Ni 8.272643924354584 5.4059232413215454 0.615433462983126 -0.9046079374057645 -0.8504173102959741 -1.8126359562366718
Ni 1.9211025596381979 3.7245583821160375 12.047706900244968 -0.3401001268582594 -0.23238813079156107 -1.0948420605370952
Ni 1.578832202079395 4.854366018610834 4.2839342882183145 0.10161488203002501 -0.6007107428306235 -0.023353587124275908
Ni -0.10181267393970646 4.650877987112334 6.473952423606386 1.2751962055505524 -0.9526163469642432 -0.6562542844238827
Ni 4.186238322265836 3.8379371777074875 14.485238740041604 0.8972818360579966 -1.4257098701638091 -0.7200515813855018
Ni 3.609769310180079 4.209016140856426 8.63909309871464 0.9682036598795389 0.20015086802441012 0.05819614872475784
Ni 4.111391616534557 -0.06636649139653347 9.416423502607252 -0.3674612924800317 0.2091103912105431 -1.2697974031324841
Ni 4.31616003050373 3.511439647685956 11.725357623865738 -2.202383828029046 -0.627720438650248 1.9517069262306257
Ni 0.4355248808394628 7.28107120402321 8.89315159873779 2.402381201194727 0.49696955848621505 1.1127896461544513
Ni 5.458168413005298 0.8994009552704799 11.096491278701166 -1.1234993192624716 0.7509307874628616 -0.20438367515883507
Ni 5.6284871160062995 1.8986680319998899 13.22164041349536 -0.3276428749315131 0.5164315238655688 -0.16796631287206557
Ni 8.833692677989196 6.2590012577418275 4.518642312293383 1.2033433852743083 0.2513551588123671 0.7433797145884811
Ni 2.115061947677417 2.902664173550328 9.763176126626792 -1.3422415771358238 -0.21741376886991587 0.00262303944514387
Ni 4.5143224131749395 7.955229687367753 5.464535068450049 -0.33079710428977865 0.2052676204256852 0.03738255441351626
Ni 2.9805077165136886 1.298799566355898 11.50682231489668 0.3757746974417334 0.31268651073199694 -1.3577309310206747
Ni 4.611946937496808 5.514690804391805 5.1524242127692785 -1.50649804525647 0.3002030335530056 0.8008667530613562
Ni 2.1057745356981172 7.523926357427971 0.8394911172169979 0.6367730357708193 0.6706982277633546 0.6818789269705224
Ni 6.487697978898426 1.7781821858828224 6.404127043912267 0.12752723102041263 -0.4942040799259359 -0.31408724773426555
Ni 1.5635418375020864 5.418625006555973 8.025707319871207 -0.6512167219999753 0.6854157364791874 -0.06451540607456632
Ni 1.7150444850645072 0.3864927269063913 9.518066386697585 1.0902742386607545 -1.8173048224672508 0.5388713409263236
Ni 6.550891348519815 1.9481297635300059 3.938064942540859 0.5624347300685604 -0.020842904887280234 0.4040347207286913
Ni 5.84270994836399 5.399178038015902 1.7664193677935558 -0.20773767923273256 1.2501899133142016 -1.158827048029488
Ni 2.6784116785057015 4.292751298811649 6.528419708346124 -0.3229534398756438 -1.0908784479036566 -1.7755573062168195
P 2.678133334490338 7.145248602659607 9.123934972196231 0.1347350616227615 0.39288307498724595 0.20779450061259697
Ni 1.9841010884488317 7.499014568052928 11.50792270157075 0.7612797347973534 0.7223108097333238 -0.8053301881493485
P 0.7377359677071332 2.7459472147667623 7.253061445757168 -0.4687756125505023 0.2510908494073869 -0.17722819778996576
Ni 5.407268570729137 -0.40554073569110866 3.592724450492595 0.36741681239534135 1.301307300815307 -0.5345488022915698
P 3.4031916601110423 8.779545488867127 12.731611135380774 0.5465609962610974 0.43846821981621265 0.6155521787188302
P 3.49355140563192 4.271411590967105 3.3037124368334676 1.1053424458477865 -0.6612201130695903 2.078547672706975
P 5.398788356394392 1.6305577982678017 2.049592651823739 -0.5940564707388994 0.06890247939866842 0.08475410171894436
Ni 0.5260061699137162 0.5011296374472846 3.9456015706635217 0.23528704960591093 -0.9490224589653979 -0.2314334801877756
Ni 6.742150799610005 5.967352398443822 10.726843931604579 1.1408624931312676 -0.7024276976561517 0.9887015227225747
Ni 5.683478615308307 7.344106845369225 9.177057855341763 0.903237025200167 0.2927874578152248 -0.6243386666622086
Ni 1.8136432134401483 2.097006699214163 2.2788683285322944 0.3130513502705835 -1.3056318963325901 0.9599450194151726
Ni 0.5325583880353759 1.9422010360027606 11.250659534117384 -0.07153477481519294 -0.8458831698710464 2.0444296479773434
Ni 6.8082946157942485 6.939867831856634 13.191928117668677 0.20512826663434347 0.4625910810063453 0.21187535555018996
Ni 7.793307695496887 3.1511511541992805 7.923766607684434 -0.07606660124727545 0.36156652426215147 0.11317507606379863
Ni 4.866492539546842 3.4446649184002225 6.446046580439413 -0.254961902327019 -0.41288702891299855 -0.16789843574860763
Ni 8.864616698096096 7.866215271254466 2.7062692753766777 0.5062286151906379 -1.3373058303971033 -0.7476094363991125
Ni 8.613735958915015 6.997726274516886 6.949913267371107 -0.15056740066932778 0.3307690792653207 -1.6405113982218587
Ni 0.6712219539824571 5.607731930594019 1.9856468255474844 -0.04172411921166362 0.3043985596915919 0.8178303774988884
Ni 2.8531374950832937 5.358530533638966 1.8195153443509362 -0.8112843488502545 1.516707381689304 -2.264487025117693
Ni 4.152799927886819 6.944618236385506 2.7470624464549855 1.1662917318376493 0.49112904054503803 0.32011417065463577
Ni 9.031678776117342 3.913405518406411 10.0382551666902 -0.31498481984787047 0.5550590064297796 0.700221176923136
Ni 1.3418129948634232 2.481167831085192 4.918245970136785 1.7899729674215172 1.4537014702807285 -0.34897454652975385
Ni 2.7063017488451364 1.8918486036234812 7.471759122068522 0.5998671638834056 0.3908323631058043 0.6252017859934523
Ni 2.914345344061755 9.039583746153669 3.007041323684918 0.3263634939984573 1.1207412969013602 -0.30957444746557655
Ni 7.804450734245278 8.436365874191468 9.02100242750138 -0.6780891209107871 0.5802046524574717 -0.5425626737349817
Ni 7.821002925025568 4.9752786588847915 2.826787594962204 -0.07588328159187575 -0.33468461226964297 0.35722830189811383
Ni 6.526100174884761 6.552459353139696 4.275814065476773 -0.9161221086929513 0.27829954861169487 0.4566654595505297
Ni 1.9071575244684804 5.288100219618125 10.249823524954708 0.2533719321320798 0.9102597363749033 1.0827923284614125
Ni 7.931264267644945 5.616444098274901 8.666292875895975 0.7455288997209999 -0.35451090296695076 0.44443395048134426
Ni 4.170660335539318 6.69791265743488 7.5111262439747835 0.016398238852365306 -0.8486321933710933 0.4160026917238448
Ni 7.663599384337438 8.656368983934877 4.9848805996014525 0.4356307503674175 0.448340484624602 0.2314720467351949
Ni 5.905170345411588 3.6265720105741965 10.425134791777948 2.6979014845600826 -0.7690141273271337 -2.5126966963225437
P 9.093109300308095 9.152071840895955 10.663618088514733 -0.1641392258164915 -0.19545911897569562 0.29721026947326873
Ni 4.6401802987885254 5.653250455239817 10.389135632457585 -3.128983182104237 -0.2236350671892794 0.2849180823694771
P 8.793509080304535 3.6629608515160674 12.733281199472957 0.28155096566945703 -0.16517306639764456 0.041403245537135154
Ni 8.880816319790258 6.815318163115258 10.970120312285925 0.8472813357701536 -0.23629029405944468 0.9552008198619679
P 6.621024762257602 7.508886502464491 2.422947541204967 -0.12209397581998328 0.24517859768801 -1.6250061034974077
P 3.3033960524693375 5.408316999853674 12.25835208419185 -0.052243016465116476 0.6219333996548256 0.09732448218478723
P 4.086943733851785 2.211712267945513 9.489304171776675 1.4801018146511284 -0.6915750712123637 0.6957240603837309
Ni 1.389613940435203 0.3105029550853528 13.073270991732548 0.5202249294697299 -0.7255637694529827 -0.3990521799124353
Ni 1.873579958081782 7.097076531734008 3.5385429322752966 -0.8060120447077216 -0.0588990883290534 0.5239653703487687
Ni 1.5712426885938133 3.4173872048945877 0.5599056875448519 -0.9708724649609538 1.1098349344015015 0.8703834690052559
Ni 2.85500239998623 0.6207414833561101 5.3355022054345485 -1.1253389435743715 -0.7474379438182547 -1.3702951408389303
Ni 7.018119612709193 8.22013896492316 11.247970730928971 1.53952103714971 1.8921912873634963 0.5006359515942087
Ni 9.00161762245807 1.574072519416677 0.16983624004103803 0.5103524075510243 2.69238081185217 1.0783204087329883
Ni 5.6289974133678 4.089198320376231 3.7773648808974394 0.23372844686953942 -0.6235565370805455 -0.6067656907754518
Ni 3.7334468343399827 2.21124836125324 3.745140994238793 0.9730414475878144 -0.5098255885132768 -0.3291924788068202
Ni 2.6060700689126954 8.693360903576702 7.394546492206652 0.13942295401673407 -0.9096946079000527 0.06589120337617038
Ni 2.5260739988971896 6.5838658362065585 5.880297524198695 -1.5077735695347838 0.5581155338679161 -0.5946079723669954
Ni 5.918029838921388 8.82956390842797 7.2858290310591585 0.1019961766288437 -1.0375499116838454 -0.9005615352505328
Ni 8.727253926514146 1.7341667189199879 5.725424130610221 -1.5175504464158898 0.03512255473474596 0.4422981350852641
Ni 4.52709840348013 7.101928995735181 -0.06814789309486066 -1.334090151673283 -1.8257393263878492 0.33091100415982366
Ni 9.198323338115545 7.7964529828704965 -0.1752917827421651 -1.6218323337551164 0.4701015304507775 0.4440130608938418
Ni 7.415687647986904 1.8496702071620468 11.157598923834094 1.5563530211053842 0.4053688661590825 0.3449643969290962
Ni 7.583334248440415 0.43042654629138577 2.4056336156359652 -0.9138664798895552 0.2552951172967216 -0.8818783570187329
Ni 5.417789974509882 8.997563077967607 0.9572167185150428 -0.35265945158050876 -0.21618246756597606 0.8533095442421047
Ni 6.402830888614058 4.524277850791112 12.778256025475413 0.24310963097412328 -0.5126365755995107 0.05037948089381646
Ni 6.979884423132078 4.696711968308877 5.836830394946126 -0.7933375345638466 -0.2060420366978645 -0.02988290360236144
Ni 4.851378459512597 7.978369353178316 11.255493441850865 -1.8855503850082105 -1.1409851347520608 1.0331173298337886
Ni 6.424365437269357 1.1880464826427117 8.73348419339137 0.00638147804631159 1.282860149853713 1.6146301595797226
Ni 8.77645587029659 2.478495728537701 2.619727481933204 0.3411308821156189 0.36957371083734414 0.22383124236048552
Ni 3.2951756258822655 1.6140983888259661 0.17585032639966142 0.44434396187069924 0.12164146166359696 1.0923594033245576
Ni 5.821973319219401 4.845347672513052 8.161733112366026 -0.11122617986754393 -0.1970678582237122 0.08063236624108694
Ni 0.1972466308606632 -0.0737259071627477 7.385135681047208 0.11627685491757393 0.6441451598651746 -0.9895674702672959
P 0.7750442717130889 8.064683832342576 5.516258809011687 -0.04394529523269851 0.09745663688727732 -0.5662114235021732
Ni 1.0759851820573167 5.955689784200086 13.05210014592399 0.7689899589574176 -2.566141189294929 -0.4965846643429706
P 1.0945785622836068 0.045388630771961654 1.7181174029941213 -0.5192047157353316 0.23753830753393285 0.11985737317998069
Ni 6.805900857262122 3.09761632191101 1.2464894477352275 0.468740902657825 0.54634630914713 0.38968693664745147
P 8.401350197058724 3.6563640983519496 4.356597849055757 0.24821661318338545 -0.1774022614739848 1.5225173035028619
P 6.502914118404971 6.598738684760821 7.100564182246514 -0.7400881883214028 0.4326876085786935 -0.545656482168957
P 4.490431218522895 1.0014910454121653 6.487654371669352 0.6180554047566581 -0.042352496824281896 0.29935379817883284
Ni 9.314040223436049 1.6661208852974274 9.067186194343895 -2.3982836340865856 0.9053419873583117 -1.393660555037748
