# total energy = -340888.7616742882 ev
CRYSTAL
PRIMVEC
9.05979192473776 0.00000000000000 0.00000000000000
0.00000000000000 9.05979192473776 0.00000000000000
0.00000000000000 0.00000000000000 13.25992125965504
PRIMCOORD
 96 1
Ni 6.3635342188916475 1.8581270231306424 11.279524829245645 0.6104007164248778 0.45990787774722725 0.40218018401845573
Ni 4.475383046315599 0.41443744995028814 5.880217891153614 0.32248704176218657 -0.7911924631963857 0.6013288360305966
Ni 2.7680834341587395 1.698511614280564 4.595437969055747 -0.7246847092821389 -1.24010527538469 0.7221976811942271
Ni 3.555777957206827 4.240788801976631 4.583835093921549 -0.7262194007591106 0.713913329698248 0.733330557882595
Ni 5.165721048560932 4.798545813581026 2.694840454745209 0.22106165003514833 0.36047431963923726 0.12123111359905572
Ni 7.145593551548956 6.247025298593542 2.5924340060906528 1.1751160149974986 0.06802316211750867 1.4856309719994738
Ni 5.005308378047849 4.194402668856391 11.773576104080195 1.306907420610904 0.9184733825339472 0.48480824053333277
Ni 5.898603832277484 8.212103161857865 12.560341092507553 0.1970480607293703 -0.62394940164359 -0.024903962330531302
Ni 1.8972925023257206 6.5404628895371895 0.13841096655165575 -1.2863013143247783 -0.709542711434378 -0.2727981591774915
Ni 2.864506796424115 1.5561279291013252 0.3642009053894024 -1.1776331249923975 0.48328100525552903 0.4834620109180835
Ni 0.4053377952420909 9.11478456021105 4.588634971524499 0.8515390826052431 -0.016184065959030193 0.7443305085375245
Ni 8.712982801640214 2.434483786941258 1.4459282476909034 -0.2824217983101846 1.4591534945342355 0.02022532590793936
Ni 6.949784275156814 0.8058358497980816 5.050850138588635 -0.5852188178426115 -1.0866104166559223 -1.0991561145314168
Ni 0.7784553475488647 7.505566252186949 2.538174008069084 -0.15092247001590137 0.3327267172123238 -0.39955431635983446
Ni 7.559689447354979 4.061069715510574 3.6402858815269408 0.8369966660146939 -0.5684711660706274 0.4208661904637332
Ni 7.576069550613065 3.9842789216966756 12.713360067075435 0.5660322176118316 -0.7395032623522102 0.0006797996758439906
Ni 8.143801392796636 8.657844909810178 7.139260757203048 -1.1996222276689792 2.3026992745213564 -1.229419770646386
Ni 6.896539879776413 1.0214552665575507 0.6847861619375036 0.6053600686771767 -0.47316191454365614 -1.6366200335872523
Ni 1.9433524829474595 6.218215161225893 9.058421784553307 -0.1427831287382186 -0.034027521898354306 1.5159645899860086
Ni 0.030141020757368908 4.971442876953423 1.5502834575240072 -0.09218047609000253 -0.6548538045319303 -1.0613202746305659
Ni 6.507802340728896 1.7252108201995777 7.141806558649686 -0.4373796147377242 0.10627809183364922 0.4754558527841554
Ni 3.5026603989091765 4.645100122827604 0.7743965609008436 0.4463792471331732 -0.22955580354908853 -0.24173666188599657
Ni 5.894173594172837 5.549992110337301 4.910918033023134 0.18855185033290106 0.488387730354475 -0.0868346383970569
Ni 5.459964960959208 3.061421367394512 8.976488653013032 -0.43946580784279154 -2.625380948792853 2.181255273580547
P 0.06298185941900183 5.596106449708789 12.329724096691981 0.8222858421670807 -0.5883463077279997 1.4690414430719085
P 4.231266960978707 6.234876118024355 12.580085096396019 -0.2527217001425906 0.0780959729724784 -0.762046694870365
P 2.01273236721207 8.54761442510823 0.968143828719124 0.6503335480640735 0.434723922282432 0.9032575940254574
P 6.481411167725135 7.8542413926685075 5.955269204975504 -1.4617688206698956 0.19634126447033282 -1.1101843473211201
P 4.719861523317492 1.040055018763772 12.50364129260136 0.6346341350509458 0.838010451991189 -0.3154825854198954
P 4.108860116332697 6.098535313859022 8.048798605858067 -0.23314429223129526 0.7369010488426728 1.6050913668513518
P 4.583040550196033 0.9716626517862922 3.631428123255132 -0.4776675157234935 -0.18856367740744298 -0.133248449774906
P 0.17367348751466374 5.734386049281882 3.584421394408576 -0.7115628271882004 -0.59128636419293 1.6133497502054022
Ni 1.2552160100670138 1.020368091562545 2.4547958397646137 0.9121744368991129 -0.09666422289296901 -0.1195570683307425
Ni 1.7918818267682985 6.7720130438901425 4.8555708600065595 0.5612908462721042 -0.09664571095020774 0.08186983819261386
Ni 5.99700222911712 5.690119907401903 9.247760557766838 0.5396521849564061 -0.279323361890519 0.8108865991912034
Ni 8.908837376990482 2.4033271635427216 9.97901892084502 -0.3788903602525797 -0.45951989828018924 1.464655141078755
Ni 2.363953309140267 5.329476782183656 6.91862855773744 -0.08139752654188563 -0.4641617679275748 -0.7943700895934189
Ni 0.5496385323291897 0.046484884848953724 9.238956252265618 0.11144163831245968 -0.017658336511711524 0.5305219405203638
Ni 1.5496320585061665 0.8095956633224761 11.67435236022352 -0.09395376594034142 0.31343701574477634 -1.7030887067334477
Ni 3.948945734358992 7.243638616515215 1.2505076363594767 0.8310972698111235 -0.885763808116068 1.0217152586444338
Ni 5.567106056717014 7.950148346811256 7.961110694677562 -0.041554683513334884 0.8475109352824566 1.095073716931927
Ni 5.06232164674427 2.5981308030644823 5.031530132948222 0.9788151168467982 0.265991163557987 0.2699781732301931
Ni 0.8642062752799345 7.379463012557919 7.2924790471866805 1.2704484064529218 -0.5638285250922935 -1.7650096126079604
Ni 5.0871273562136485 4.375063973651454 7.200402572943003 0.443829484128126 1.1353143096195286 -1.5364966485010894
Ni 8.30631593496673 7.262165890388435 8.913279392824242 -0.7226867050155037 -2.0020627529753585 1.2871754893996155
Ni 4.780045719082681 0.07307809120595422 10.44795554731578 0.49071586426701946 0.46835523718363203 -0.7987481640564567
Ni 8.372787626119699 7.092530352001056 5.312521382157381 0.13480550984938072 -0.595335080341007 -1.5164505284834915
Ni 7.020296633374556 6.087853819533092 7.128984235562757 0.20640559068487033 -0.3465772499421709 -0.5011049208108274
Ni 2.1911649632673704 5.389443542949842 2.710022853550463 0.09214962285206711 -0.20939398388923292 -0.2388634541032596
Ni 2.765139001880599 4.830762432599694 11.655629394851196 -1.3682696257684694 0.6737460134507428 -0.9348050298144354
Ni 1.219801284604705 3.1876876832727916 3.757185278844085 -1.311121972912884 0.9827586748755784 -0.24861256307022342
Ni 3.9661865178214564 2.8802617740600716 2.634083680149319 -2.2176368975333745 -1.1003007696588214 -0.0768800982875063
Ni 1.0876823433366443 3.337065527586567 8.012240534692678 0.010547693608859253 0.5217534502991144 -0.47397464025293856
Ni 3.5706450752635295 2.6732455354277476 7.068771048464369 -0.2371654975755464 -0.9463174013294089 0.8049190687538589
Ni 4.254124815248701 6.959360474904489 6.186760470682892 0.08678810142983763 -0.047565665594105175 -3.0355696049380816
Ni 0.46968677721731233 7.193338653412954 11.009380868549155 -0.6859443552891477 -0.6012362763167904 0.5957454284055482
P 0.06890877510010758 5.433972418786949 7.950847762724709 0.04435152953218168 0.1699674024624944 -0.2696814679253807
P 8.705662490007176 1.6641297050635107 8.026323074794652 -1.4993586059982114 -0.874236524202759 -0.7120392526039866
P 1.803867931088236 3.3091704291730473 10.125156077694518 1.4406389806698157 0.23899020948911098 0.8022389508185346
P 3.896181507934718 6.184766410546219 3.8135661740850773 0.40661070898598367 2.1764609375156962 0.206946807900321
P 6.794644403369509 3.919474232202714 10.603507639622025 0.3072905365274063 0.7868583545974062 -1.6550856964916074
P 6.662317086894073 7.6896430984246535 10.184891813774264 -1.9910427477157713 -0.6384869331381328 0.9181085429953608
P 2.313381552289255 8.757665693934946 5.696939212558076 0.6166999191700283 -1.2946897954987895 -0.903327013810812
P 6.850126567281298 3.944144044797717 1.5247719902870376 0.8547377920481988 0.23400252646653247 0.7797716229539539
Ni 5.241977314668952 2.7902708638484794 0.716568816937331 -0.31111942335519316 0.6203843100001509 -2.105891869047883
Ni 1.5318476875461993 0.9444560975362761 7.144392223179475 -0.3158605375846044 1.2017009645748788 -0.06698520777129754
Ni 7.13689615158891 0.4590061888705444 9.234487057056985 -0.7860340589238979 1.6183929690562646 -0.4694448707033851
Ni 2.735667499724321 0.9039017522850782 9.347621204974757 0.2554972060051987 1.7491927001803618 0.3681143526829983
Ni 6.252615190026197 2.011137843886061 2.764720439507522 1.5142270384696115 0.1418217932662138 0.7507626373161135
Ni 4.11238437527484 6.792877744002625 10.236460147704033 -0.5624169894567476 0.34711281073066674 0.9088019208824543
Ni 8.324263382175948 7.153629586720372 0.5252676928578133 0.10624595304413316 0.2637648453306296 -0.6225319524707731
Ni 7.373483550085388 3.8549141570826295 8.17720756245567 2.413898457805707 0.2808557393746453 -0.3264380559901346
Ni 3.3549042572962846 8.385118002521388 12.469841927985797 -0.24939083599714468 -0.695964201418995 -1.1632076935956872
Ni 9.040494268885665 4.780815801370809 10.12311400066223 -0.3121355233245334 0.5169490869319355 0.5694492137131806
Ni 8.586335974513682 2.202870214046931 5.939675491630473 1.31990794663563 1.1881625637688118 -0.6764029914576158
Ni 3.515108552601991 2.496824213113207 11.364428666459775 -0.5699503217193151 -0.551656922726766 -0.7251464794099061
Ni 1.2485298838477288 3.219070801461955 12.707565424352055 -0.7763235165043534 0.5529486449549961 -0.3389372168984098
Ni 3.0140205376122657 8.175311348068549 7.80832999262942 0.5865604194721704 0.0649172694986753 0.6141786954100712
Ni 5.7813248296912505 8.244301661293282 3.612002118052706 -1.0749967436763939 -1.1005265125163821 0.5635166502788295
Ni 3.038790007915144 8.379709306921235 3.1962908613999366 0.2802206768938077 0.03278413640955644 0.8310653881319235
Ni 3.6776955731050847 4.403547958520601 9.311938309680347 -1.4389813904617348 -0.27511523734644233 0.605588382637899
Ni 7.05882792715588 6.141188812829744 11.717341071484368 0.013057090294274286 -0.13755221935658246 -1.1523859203898348
Ni 0.16497155765880606 0.36975999353053124 0.19221978695029748 -0.1985202743995226 -0.577344043080225 1.2885080921681098
Ni 4.67505179394001 0.515868159046827 1.341373722442048 0.1949875786559158 -1.502691012805554 1.6618682666310798
Ni 5.9506976341215045 5.771612733069201 0.617311551851641 -0.22456452098208418 0.18422802614656658 -0.9996035143470591
Ni 8.063187366916967 8.958910845302116 11.332723925667922 -0.062313513327241075 0.6913758107173642 1.0932451483636205
Ni 8.740506448597108 4.712849244599707 5.849256053275016 0.7500969787076566 0.012129436273682336 -0.2683990016685313
Ni 7.907467668465658 8.972283097740686 2.6581238372263813 0.7179656453907506 -0.17636944933409626 -0.06283930392372404
P 8.414788820093417 1.7390541818026495 3.641956507102599 0.3764964060991064 1.123104397816898 -0.053013833192869994
P 1.9731863767687394 3.2824168645042837 1.568343246149376 -0.6521294636222317 -0.22238319706004928 0.3381203774240693
P 4.624751830837749 1.0950388941361826 8.210914517196658 0.5853717984807081 -1.1460545788551681 0.44507441227882055
P 8.513912000263057 1.9780786642462649 12.169782535343403 -0.4659129462907266 -1.1733923474381727 0.6814428678743683
P 6.474108975675346 7.925179561092626 1.5095624121069084 -1.517840981073115 0.35275766772126993 -1.5173686694223867
P 2.0145986842868293 3.4692478873960026 5.8980131338635315 -1.7699157916603259 -0.7101453780153835 -0.8360340449911084
P 6.707525447103057 3.685133662029248 5.8869411625185615 1.1775464788158625 0.31969610928061065 0.029376910500220375
P 2.2044013188315645 8.075019454779278 10.382159716618037 2.2314239240151377 0.8948822254775683 -0.36080573483672695
