# total energy = -381168.1973746176 ev
CRYSTAL
PRIMVEC
9.23134170262157 0.00000000000000 0.00000000000000

0.00000000000000 9.23134170262157 0.00000000000000

0.00000000000000 0.00000000000000 13.51100170010632

PRIMCOORD
 96 1
Ni 3.228735673258985 3.980194596315216 9.335872979760673 -1.0175914662840475 -1.6452422280386247 -0.4726155551218828
Ni 7.656927291009761 3.997226422083784 4.765749480605163 0.13538915026699266 0.5947036174045952 0.5728541256296714
Ni 3.102395528289542 9.162863785916976 1.7907076986234858 0.5546358028494319 0.12463628262586275 -1.1058139861675664
Ni 6.9853564005829005 0.33338160378788284 12.996516368692596 -0.1696159326603466 -0.5656622358669225 0.6863958410042695
Ni 2.484569510287941 6.0866668058828255 5.473064126791316 1.4527329357198722 -1.5882660677638967 0.5881524465496387
Ni 7.622291296276066 8.30275196893335 3.108138346073079 0.1555154887032225 -0.3151144034471992 -0.46810969683172926
Ni 4.692974196894319 8.513401959292676 0.0573238636721285 -0.4945228967179353 -0.8534499264747109 -0.5757782412550019
Ni 3.4642825926686234 2.2928437707825804 1.717991495500674 1.880575557501439 -0.31664523826942886 -0.2802697849641883
Ni 5.0493593815129305 4.554411755275779 5.076042575217021 0.10462718649378755 -1.42794724413476 -0.233653627767546
Ni 3.497543117462201 3.7225847698124186 12.241089814896348 -0.48848363250239096 -0.6997660916635884 -0.6088765664708675
Ni 8.211038587355722 1.4959758770187146 8.47362779966858 -0.668083672958643 -0.04273841940879092 -0.07689063981046758
Ni 1.3626291435623645 2.4688669977500903 -0.3065728638342251 -0.17271359774906384 1.7066250020214802 0.10509384171756095
Ni 2.8704026755036973 7.475734512589461 12.291958201191804 0.12281079938134978 -0.009765821137512213 0.49779925347636206
Ni 6.118745718915766 5.267680616974521 2.987822574814513 1.8546696362689543 3.1270527978507436 -0.6778782904515616
Ni 0.28894377024602214 7.756034977433254 11.345566570461108 0.43116063041120584 0.9108991697311152 -1.141657478228737
Ni -0.1209905823499931 2.900496850032441 10.374962976247591 0.08939005782905896 -0.2155062674345579 0.8592462214415137
Ni 0.869731798356757 7.445326472436798 8.838870456821036 -0.46371465308782717 -1.8835351543503946 -1.6398837919401887
Ni 7.845911321976766 5.059135372563833 11.76613727517124 0.867792568349628 -0.9628655354960771 -0.6201675660036545
Ni 8.727042904421113 1.1128105696062731 3.8425968299231337 0.15825319934935972 -1.2538331664937439 -0.9759159409221321
Ni 6.969626194019409 4.858224447887889 0.6118145681693566 -0.6852915521964972 0.13299313923099032 -0.04064811253866548
Ni -0.046399493691356986 4.4805240948683975 0.4972600773780875 0.4096780350573977 -0.6385699797702422 1.3405806444936332
Ni 2.411309581128398 6.9446092575246565 1.6212387243907638 -0.01766425004898248 -1.2487251558432173 -1.2426619803682728
Ni 3.0224890329764116 7.543520256014173 7.3796556294367885 0.43864228350023166 0.7561239016280268 0.0038103748850256956
Ni 5.106085977365424 6.696046146064242 10.86568264790371 0.43743617900727244 2.287699715788731 1.6747564354476576
P 4.628022475426761 6.77757735754825 1.4893717750377748 -1.336707534691472 -1.1785708063153186 0.04712883516700271
Ni 1.213118330474165 2.833726554214526 8.24862861149101 0.878203479270307 -1.0901775651818901 -0.09529922422464232
P 3.5786866125872487 2.8225935559072663 7.561094884685285 0.4972909463813758 -1.2491445027688228 0.5532453502598085
Ni -0.233552949563562 0.9538007057235712 11.750708010353035 0.0008906301350694338 -0.5657766499575998 -0.4760880870515155
P 8.014798721671049 6.404871160485829 4.378253750716821 -3.347466529889248 1.2629376998981734 0.5216313228989532
P 1.7090998670018749 4.720778998636827 2.693931728455008 -1.8267256015605184 -0.17919560592898173 2.4370309300581123
P 1.0389136778570116 -0.21952407930855233 5.044035666650745 -0.03398201337239954 0.5233765877248341 0.30496291683549415
Ni 2.7726335336528005 0.8423913331108123 6.310813018070686 -0.9263977795873466 -0.018919976832954512 -0.29331042019823034
Ni 8.500487312002578 6.041950185816189 2.2555537652583904 0.2028708380587345 0.3550562339474595 -0.35844443369340206
Ni 2.8938133585113333 0.9886859466880259 8.90395326334329 0.09286618930311748 1.4321401991701852 0.19226298063590114
Ni 1.9012964049431145 5.533386330306063 7.776081759459825 -1.170973710694351 -1.4965956985410933 0.49355204816423387
Ni 6.519219792353174 3.5525803777506577 6.908634718218364 0.7670202368255564 0.2584583455160517 -1.8385799297959433
Ni 7.872968385026996 2.718316318030982 12.942716108216057 1.0658348746714676 0.21970102224219581 -0.1804546751470634
Ni 6.446282960159431 5.2875833900677645 8.431338099382193 0.34856368424458034 -0.44367830326224234 1.3615454196707584
Ni 3.7553191081188375 1.2867659759926668 13.036332992489335 0.45136693015575163 0.9215756756083548 0.44111465630012414
Ni 6.697255451850521 6.928011304824448 12.342192394300106 0.9627413512133872 0.2010031887223764 -0.12607275796207318
Ni 5.830404755294507 3.5487678335542245 12.345232275181184 -0.17154734535510457 -0.8932436614328809 0.18712514518870355
Ni 5.360944863987987 7.451437620761347 3.446521490891537 -0.6976757847934629 1.1601437099583827 0.7020098933924426
Ni 4.700654673338465 0.19960561293411366 7.8834394961214596 0.22342115140626037 0.45126228625708736 -0.0682969846041856
Ni 3.5548974445625334 0.7733298182382858 3.830301605673185 0.26025863194958404 0.2932772529674497 0.42436494764561106
Ni 8.421365480749246 1.3697280454680714 1.4611340233610959 0.4672311508815179 -1.4689630244254894 -0.6172743036162595
Ni 0.7756607320629814 6.492707378473864 13.017039487960172 -0.14960889341080041 0.7588572413987899 2.893373716161901
Ni 6.397190684041683 1.474891492164834 4.381037000293635 1.3860788860357485 -1.1340349286864728 -0.21461769418201748
Ni 2.3906775320266367 4.421443506836508 0.8663817443885112 0.46474052324918025 0.17187258990500723 -1.6384120924906687
Ni 8.022876145816033 6.85736384541694 9.518216906513405 -0.8381816874617305 -1.4513039165828296 1.080511502847036
Ni 2.4086047979575627 3.5599008318614835 5.977645581414418 -0.5171686591419093 0.6876088874757642 0.29339269549939145
Ni 4.2436940189374415 5.045085270222499 7.254826655133098 -0.2706039797396501 -0.0053550936643262615 0.6502877824278027
Ni 3.5637687641091964 3.1630269817572683 3.9643305352944656 -1.4554685894834805 -0.4435356070367909 -1.2859063928792047
Ni 6.445775236356032 8.669485487799422 9.234648546644097 0.03700537357975563 0.7688678315572565 -0.5524588498027712
Ni 2.6198640568809672 5.775182868168449 10.54337773123762 0.47881911282943346 -0.08832484978933822 1.0212791995482797
Ni 0.9599118540481197 0.1800148591964144 9.717193865065493 -2.258155426472711 2.22781692339017 0.9290197905912257
Ni 5.5433192541689245 7.267189268178772 7.595682876441203 -0.4451299481071043 1.4300591482714402 -0.0826447686854254
P 7.473011266734865 8.394114559519538 11.02030300872248 0.23077270667532512 1.3967075693941882 0.8575598348780262
Ni 5.091186591571132 4.5779978337791345 10.391014433508506 0.7740547750748347 -1.0121553828701406 -0.12674484432843333
P 0.11589765103480665 3.90869785345475 6.758932816353249 0.0016244229773004282 -0.2516631769710892 -1.9904717057036494
Ni 4.664504738536452 4.189819907725862 0.9606420531908265 0.9272914950462094 -0.7263117033626008 1.2805453856776075
P 4.4347920271949635 6.6175151206912295 5.429936220662225 1.2069596418706567 1.7869285241682387 -0.17176897444760741
P 8.601764363767868 8.2761195476096 0.9902432740631789 0.04117930245178714 -0.09271372288565323 -0.8486159954211772
P 6.9951600856594425 3.485256201419944 10.23071956683611 -0.3602881717703601 0.2736923888569867 -0.4864429479232784
Ni 1.3665247698357172 2.4183807890084648 2.1530055577162264 -1.6478189876268654 0.10792514051876896 0.805289050498768
Ni 1.3023761751117178 4.511504478217619 12.268773686060229 0.05563764396896224 -0.09205089249067372 -2.5749999252371394
Ni 8.96364219680507 1.6670880301060735 6.011382443449002 -1.665113255930939 -0.07906579308491543 2.1995769547078696
Ni 5.928580076188122 0.3456362101335598 1.8457108029469866 -0.5319370757003355 1.4639753414029109 0.615487644029482
Ni 4.9167234613813395 9.02245507592244 5.638735326974613 0.4705162493906929 -2.3746299992233877 -0.9374674071379469
Ni 8.039104844841043 8.033150629328455 7.566782314417542 0.06512758573726848 0.24616178753688575 0.6452304225095534
Ni 5.120274549834957 9.055715600716018 11.180745576864958 -1.733239776395531 -0.3736931323223564 0.9087839231603252
Ni 6.434245290347933 6.007120332903014 6.100325499328448 2.8118010974947314 -0.20603226650585163 -1.6954535587856931
Ni 0.6330309612121209 5.7279368604266985 4.432432496210439 1.2240464221496143 -2.259786277207915 -1.6080936440127855
Ni 8.307358408531462 3.4429212675583436 2.567373723817197 -0.16851652894858077 0.29854030113860197 -0.15877076241572655
Ni 4.516166305867011 2.0989763599610636 10.636050249236577 -1.1596978806702156 0.18092518702557872 0.3116092185074182
Ni 7.430353235907465 8.572242532435684 5.4992617519125195 0.03961350062656404 0.26964804358428396 -0.8137130128964051
Ni 6.552461854462992 7.477839258538097 0.9127664679328603 1.3659947136913637 -0.7248973395135774 2.097912193276516
Ni 0.6807976166359032 2.863811497401389 4.497987947436949 1.514418071434495 2.6971833754471355 -1.2445951928352437
Ni 4.643558823810772 2.031024452382511 5.624954779816176 -0.2955115416146072 2.30954817912239 1.507040033802869
Ni 2.339471278618373 0.42772868720386986 11.482068576572035 0.7791674137110517 0.20304978683876 -0.30024365698295385
Ni 0.8581556956392588 8.796591834144904 2.3742346658700115 -0.26545251744569764 0.7019556431157395 0.42489150957304245
Ni 2.399188829239981 7.7705466468685875 3.779716621573444 0.571191650325584 0.32366563545132 1.262551263093032
Ni 6.688568759141457 1.3806671855958508 10.813476640169844 1.8619260607210515 0.9821251550566374 -0.49869425448680565
Ni 5.797338088680408 2.2360340928531666 8.550180548476714 -0.9167445727682985 -0.04400623037762098 1.5848364732570577
Ni 0.6954652957490077 7.14520631657668 6.286087791979339 -1.0623222335325189 1.7342345362086327 0.5623547687602444
Ni 2.7375452031669862 7.9543334323571635 9.904996284271862 2.210044429898097 0.6330423650837935 0.1354392867786377
Ni 0.7946800657383096 0.32828221053338036 7.528951352259185 0.6438358561548718 -1.4648060648343222 -1.1573815738322133
Ni 4.662464611980976 5.661406579497663 12.810442979820348 -0.2769270937442005 1.3657975100788928 0.7454530521777419
Ni 8.854472347732395 4.50567950149135 8.731876435029474 -0.9527811546768817 1.7474572055464934 0.42596108848813735
P 0.5041780449829465 5.638762097866065 10.593801166854462 -1.0348631088803015 0.35507500300053685 -1.1181033450578808
Ni 5.868844062882753 3.246275222830952 3.0450688952148495 -1.1267921310811304 -3.218014828152613 -0.5638323817470354
P 4.301436062396733 6.60702831631557 9.132477900984826 -1.9926717986787619 -1.0552959228133567 -3.570762982792186
Ni 3.707528451206167 5.386109501952819 3.273081193382046 -0.28808619568481353 1.3434589944826927 -0.7305725355214837
P 6.550126324967356 2.3991703665562207 1.1294823730415218 -0.6176224309842976 0.6712044779758117 0.010246617428672677
P 1.9293227588907418 2.4835079059717424 11.063929407313092 0.6925040107845364 0.4842863065915918 -0.7470489359099522
P 6.522413836643649 1.2343227227724851 6.6979173390633155 0.8351143613903166 -0.593503683559223 -0.07580666271766945
Ni 1.1950895197825586 9.669553679025466 -0.024639374611861796 -0.28147280413335396 -4.398256851522768 2.164969134826013
