# total energy = -340896.09646906704 ev
CRYSTAL
PRIMVEC
8.99316090374452 0.00000000000000 0.00000000000000

0.00000000000000 8.99316090374452 0.00000000000000

0.00000000000000 0.00000000000000 13.16240002527211

PRIMCOORD
 96 1
Ni 6.125538599296619 2.1033654151193524 11.29986788219074 1.412953084718773 -0.5112710627105518 0.4390832276923922
Ni 4.65256677719786 0.5424665605039135 6.0819766276682685 -1.0618751186927713 -1.2923045830960647 -0.2906161611955188
Ni 2.7449554933434577 1.5588744941180004 4.724827723590426 0.03855729144790779 -0.30850666832269447 0.47726128142401036
Ni 3.6297296329235387 4.257002599144437 5.152829333355134 0.5592151946899983 0.6596977628877929 -1.4673118619753116
Ni 5.18066316604981 4.444312152412521 2.7755160523945235 -0.2744593489299983 -0.3848290943345179 -0.34121315741678004
Ni 7.290197889482102 5.868621981389828 2.61294668450384 0.39905397968464823 0.7997881752851967 -0.5995406337819223
Ni 5.039443561912652 4.512471318161455 11.552111653742713 0.11843555313178959 0.6607483156394942 0.03935176232474513
Ni 5.518392326959625 7.779650666350524 12.190895865795335 0.03415890526989601 0.8241918009405419 1.6701546750095881
Ni 1.8660538877697168 6.277451071632152 0.43948497679793314 1.354896289785357 1.1706232693334677 -0.19569206092210814
Ni 2.737482176713643 1.6298125465559996 0.2066430503688969 0.04246845357685589 -1.0441126525030278 0.667084028049535
Ni 0.6690533926935729 8.732044382031177 4.696001945258844 0.044941854818012925 1.0073759592036262 -0.3026334973713691
Ni 8.747845365567379 2.3803457747844052 1.2583158654516864 -0.5127538179036653 -0.5701331271540826 0.48376128732605717
Ni 6.819639743467159 0.6787435234620749 5.005397253733167 -0.045971324523791796 -0.5255900504363852 -1.9781550931198255
Ni 0.9838517921801617 7.340226843046071 2.5577835354357057 -0.22402793175232386 -0.097058115897278 -0.6443107389087613
Ni 7.685348382138447 3.8427056671320448 3.903928407951285 0.0811725550152731 -0.48885361424730006 -0.49549631637479824
Ni 7.555981763943643 3.81958425069973 12.649922081708702 0.4616829673697791 0.5261122414884423 -0.8559310410253518
Ni 7.6421722171086754 8.969427854667261 7.032051906493128 1.1955747970724828 -0.9876149745266153 0.6284853418407306
Ni 6.993918206727299 0.4846306440442258 0.3544555406929587 -1.465290974890541 0.18163301172588073 0.24458570129901747
Ni 1.7921750717481444 6.383579362304164 9.338485590560978 0.6406965391949417 0.8809296199522184 -0.4910117982408834
Ni 0.2770487076871789 4.808957843614797 1.3374574791769502 -0.736189881708261 -0.13035158784308518 1.0115012942259096
Ni 6.184138035108739 2.0921779230766453 6.993064755766806 1.1882736354253793 0.5796210120398597 0.024508012443693276
Ni 3.436340702950575 4.123849860250291 0.26477574113518376 0.7483067195764531 0.4517132577515769 0.6311101810580874
Ni 6.028538366842732 5.617146225770689 4.709664355155372 -0.8857031300814617 -0.20550030526178156 0.9622173603891171
Ni 5.271026445828844 2.936671695406498 9.24246651195103 -0.5632924500831654 0.8890815596353915 -0.38239760207488976
P 0.237638878402975 5.557314726928142 12.364073566172818 -0.2856536749839209 -0.7242391371042882 0.1908722709359616
P 4.027856861806681 6.197214090920713 12.53747519625437 -0.7835555154764182 -0.9564238936357915 0.7591822288383764
P 2.3831876135991124 8.483383485744326 1.1800816616517515 -0.5902026442104481 -0.21082223169532727 0.3907853119179528
P 6.208671377787601 7.679457861810494 5.869443056971419 0.16258447973486193 -0.19905660651896687 -0.20242680854278045
P 4.730006884898621 0.9929258914334504 12.47594129207124 -0.43770665905983974 0.23515000980741438 0.8179175378960559
P 3.8713578774600705 6.254887231169812 8.163017420402722 0.43291360854657057 -0.3393048846504737 1.0393535405514875
P 4.797275727727759 0.8271126904400303 3.6756001489307972 -0.21345658399438075 0.2752535626965195 0.6526066603689663
P 0.33526233690072005 5.626822866797982 3.6241349875861046 -0.933464970846773 -1.7688562400475598 -0.2925807411210574
Ni 1.3156454669579944 0.9199553846532874 2.5383421204052206 -0.14787442721819696 1.0594042885547754 -0.2084632445448474
Ni 1.9871108253797456 6.371096855105388 4.709269555395987 0.5470991281527545 0.506160995177496 0.4710075872048146
Ni 5.83446595664851 5.6143043869559826 9.228447972886583 0.002981451225827123 0.6410778337937605 0.049765758569217514
Ni 8.450144763405223 2.5086242205216793 10.1299673778875 0.2313126383391952 -0.17568913543762002 -0.07663250105307447
Ni 2.3137154463724965 5.369429611368472 6.986628350577928 -0.6142830821984194 0.023077707755069933 0.001056466288972374
Ni 0.36995885060648137 9.312867672688908 9.027142363456067 0.4092674298825403 0.15579933849222846 -0.10032855911843366
Ni 1.3326695203638177 1.0377567980515319 11.211837428324792 -0.7403429846446863 1.450514845022631 0.7603585085346647
Ni 4.115063542142796 6.69835797683698 1.5741179016842286 -0.17939666619619427 0.8815356289673334 -0.19630809723955223
Ni 5.564859988844406 7.958479668978517 8.063720334678974 -1.1043448578212076 -0.7429467408161204 -0.39494329995038435
Ni 5.460071679132493 2.6877320111346608 4.677864538545234 -1.0138343132344605 0.5094365806049742 -0.048043633671788225
Ni 0.7366163118810675 7.426714070517705 6.705123531711359 -0.8022029553742764 -0.317253304167073 0.6651976096600996
Ni 5.039893219952954 4.585360886494364 7.17219143201748 -0.08998475399026439 0.07731615738366039 -0.1914451127202961
Ni 8.192023061950424 7.3697783694547 9.312279519972193 -0.134790083230413 -1.0674832089081678 -0.751425467711093
Ni 4.445966894000831 0.2703488028866833 10.438770037064705 0.44950776545982585 0.34063645897770367 -0.9145244251885282
Ni 7.994973915529404 7.115487754503272 4.568892610426354 0.0020609962940867734 0.32758502511038423 0.96189571538364
Ni 7.065090081346256 5.994957904393 7.0020543193085185 0.778414337595111 1.3173137035458924 -0.1584480889689852
Ni 2.6952772730509236 4.9196096941722445 2.5834104464685814 -0.5391207379329683 0.5646682473847694 0.08728201034712064
Ni 2.4730023105689773 5.081405650233609 11.42065862224091 -0.7799474864101857 0.28940362894465643 -0.5974143314675389
Ni 1.1745247875897027 3.3367324538629384 3.541883538854114 -0.8843299038830189 -0.269252093697446 0.9656161016580208
Ni 3.6425718665545554 2.4732631122323525 2.700213619017356 0.2148560354450687 0.2673543624541009 -0.7731029526845267
Ni 1.2322788662860558 3.4631133426701393 7.931346403510631 -1.6956368784410925 -0.49190448525848185 0.8425088540821748
Ni 3.5535755472180393 2.764479645453358 7.161661340029695 -0.033313526550465204 -0.491175063291625 -0.39086347345405587
Ni 4.070250621846327 6.7610672871374575 5.992313915116026 0.7341975338685807 1.2777017455812252 -0.11637969904402536
Ni 0.847437233861668 7.393978965183739 11.446865592145775 -0.2093729008433104 -0.3195505848416819 -0.23805381371777065
P 0.11905685864676681 5.78416720826036 8.094783611419096 -0.27523607919502274 -1.1177313064304426 -1.1399939744833854
P 8.361607095269814 1.8565301304761266 7.8300348497663315 0.11831008329751884 0.21143158314455202 0.9197558487907966
P 1.7776331307247868 3.1856023865175302 10.292720206258627 -0.9860802830496437 -0.3017428672362997 0.3030803551008006
P 3.9568918298862634 6.2517396248876995 3.7286049394054834 0.47246668824884447 -1.0158184335440248 0.6894274287417416
P 6.767938061993267 4.049422461419551 10.424607607427362 1.49320158525788 0.34456510460814854 -0.6932411460608771
P 6.2506604455909756 7.710016622229399 10.18676278564193 -0.12259431249516949 0.16137477569747694 -0.7551772214440414
P 2.4940103342118736 8.523825729889063 5.838932859620868 0.3333198707116324 -0.3186324439027867 -1.3036236076533096
P 7.0613039606469155 3.8708812399373502 1.6397454926662647 -0.2632303129833983 0.39750874668471536 0.46270343821449345
Ni 5.516692619567285 2.766071434916026 0.5007212073583825 -1.0793095121191347 0.05319509596574064 -0.34178728475269526
Ni 1.4790961646076695 1.1273106933580221 6.906271760827769 -0.5206710158682128 0.4271736207389998 0.07964531973746929
Ni 6.62519861367989 0.7589769069091913 9.193580589125506 1.014747311967033 0.35730800609611363 0.6210242575769949
Ni 2.696752151423113 1.4833139570256995 9.167861947852408 0.031607599602952015 0.6317940944989893 -0.32318792448395306
Ni 6.383939088736405 1.8908210526295355 2.5450294347805875 1.1844704596292055 -0.4289466534790225 0.37297219499593187
Ni 4.048756967519904 6.840440924411517 10.453499035832829 -0.18099563525219795 -0.016969537974803037 -1.0542600253496748
Ni 8.083106891428542 7.077320780042462 0.3944103555220082 0.1125382138107481 -0.07658159321048101 0.2590651258621151
Ni 7.484198354389876 3.991281676808539 8.07380256725862 1.2221713166140886 -1.0161341650122306 0.9340624952214559
Ni 2.9502963340276405 8.360833683440495 12.221314332905667 0.8090821989926131 -0.29217322126999357 0.985425165964148
Ni 0.04912604021904343 4.9195467420466015 10.246651840713636 -0.1161848094243999 -0.525667697751856 -0.1437372651213718
Ni 8.692429508680595 2.3387793855389143 5.651000080308925 0.2177423558539282 0.5583147943629159 0.9658104770570142
Ni 3.688230143966792 2.696752151423113 11.349792515089359 -0.9468041111578405 -0.9156279426653521 -0.46752477086253674
Ni 1.127472570252531 3.3098159235704774 12.532276249992403 -0.8433483192643346 0.246060228962015 -0.9385968927566998
Ni 2.848682610080258 8.310624866660405 7.932675592677763 1.0091636472316685 -0.4233051389225291 0.8047689163292399
Ni 5.6539732192714 7.6740619653268745 3.5608105450864938 -0.3219003160207811 1.1443900466685517 -0.2970295209210304
Ni 2.9765473704204553 8.461781913488231 3.40095351449491 1.3122023504612563 -0.7429264291011463 0.3585025406248471
Ni 3.2097130506385083 4.272776603198221 9.135706002074352 1.014275514536937 0.5652575442293363 -0.02084187644601572
Ni 7.156280731919444 6.109692649956386 11.413630467070995 0.3898170344674125 -0.6232467191496105 0.01043173685628526
Ni 0.4086519249744443 9.049727787504342 0.17626325385003216 0.9646370255742032 0.3335767239174449 0.4509750940339717
Ni 4.564793527730963 0.24845765085263438 1.4720698080699146 -0.19161917640431514 0.36042855400296636 -0.2976059622497907
Ni 6.002278337289112 5.5795638067622715 0.5616912403589732 -0.4368862200410734 -0.23737195715939766 -0.9790424023662557
Ni 7.943479076754052 8.742080749490711 11.250364129217843 -0.5373140237415327 0.7957194045324618 0.2648876460811631
Ni 0.15686230804317416 4.818382676139521 5.813187238865352 -0.3273932208145523 0.310055243756737 -0.0402966427365177
Ni 7.99770783641444 -0.29438032719256835 2.533472323828753 -0.7072788551008657 -0.038580431376359366 -0.07414213053105295
P 8.479498440276119 1.4407942927347688 3.768816059317505 -0.013762601001731135 0.2768797854460328 -1.8667353091842367
P 1.8939776520724538 3.211493696478103 1.4719906682548214 -0.2663241214173736 -0.8949701572056845 0.18422931169814724
P 4.680220746676415 1.1639308441601943 8.215693960507988 -0.7870375604877479 -1.2796858658907897 0.3193364119483468
P 8.179657465842126 1.7291689871410676 12.255695186667138 1.4599993874742985 -0.22668542397982896 -0.1815247682827906
P 6.128398424432938 7.689458256626804 1.3451178535515302 1.806337781932786 -0.9568843782119778 0.5780960907549011
P 1.8852722724122122 3.2793920605636626 5.804118535508548 -1.0371542189073235 -0.09636571781594372 0.17725108060810119
P 6.744322021716621 3.9274572145681126 5.937676865955045 0.8827247641794281 0.9346119399670226 -0.08329242957175333
P 2.291826092970609 8.491774104776356 10.135876783853144 -0.19089386820251641 -0.7744201288340533 -0.9786258836541274
