# total energy = -381167.4868320506 ev
CRYSTAL
PRIMVEC
9.20982652052477 0.00000000000000 0.00000000000000

0.00000000000000 9.20982652052477 0.00000000000000

0.00000000000000 0.00000000000000 13.47951205631580

PRIMCOORD
 96 1
Ni 5.88446213457431 3.920374515341437 12.6804327798369 -0.893279656877139 1.2115986833045649 1.1421727273022588
Ni 4.24980080274808 3.9257714737249616 4.755936032995486 0.1263668921637243 2.434271107924788 -2.834718111302221
Ni 1.694737030692666 8.326208200228892 6.98861443007464 0.6619827022672277 -0.7356869739299137 1.5398835626954512
Ni 4.39429377216637 5.133953365507036 10.048976259140153 -0.432408643885694 0.4102513910623644 1.038975074166146
Ni 3.701180642426955 3.6651333811417754 0.6756632712935715 -0.6926202246474266 0.1507093255638308 0.6898236357388958
Ni 5.545982587626703 7.149671272620522 10.322475874560526 -0.36959402255231827 2.9021488912513695 3.8728912583923623
Ni 8.765120906173658 9.12907483347763 0.9359311288477172 -1.421778396319887 -0.8938113610108929 -0.8524891052233382
Ni 3.776167050547531 2.274283788713237 9.9442135606616 2.926977520259275 0.9926275972498582 1.1790269200161305
Ni 7.553172195315029 1.0225946761056157 2.7375537230486318 -0.3601876416367539 1.21530749961472 -0.3008740914781012
Ni 4.0211300182693535 2.461703759881712 6.215605133657897 -1.2448019095294112 -2.4370029050336544 2.131981109935767
Ni 8.757292553569572 4.986393523833263 0.38554268182072804 -1.1973786830504412 0.22615012030164922 -1.3097014384162735
Ni 5.851334388319126 1.1170598674704828 6.302790878083621 1.3462198450572815 -1.1828653199256145 0.11072172942729964
Ni 1.7263083162536257 2.227709695632206 11.16096888001914 0.3580222585543189 0.10033035889064656 0.6713052652197342
Ni 7.853034939357996 6.873330425696193 1.5640007792564077 -0.01061582784263333 1.0101036425474346 -0.42252146667896906
Ni 1.6327733173746561 6.856255407192687 3.2042285302754747 -0.3142209450986524 0.25550929019005675 -1.609726808740834
Ni 7.64241541500164 6.431065342871557 12.082684641520492 0.1331306932501191 -0.9143462477394512 -0.022596140132961084
Ni 3.727078674806599 9.177592199969794 5.983932866692497 -0.5397030927989995 0.342540617978952 -1.3971989072083097
Ni 6.44283550125747 5.062061459121724 1.2762176437728794 -1.5770910249836838 1.274254410462573 1.0893710101201948
Ni 4.409103173327987 5.7426400148680035 13.450962790934794 0.7636582623318591 0.5376678075365255 0.506876533187282
Ni 5.006784079910265 1.6821748272197519 3.805252603911028 -0.1682895005394392 -0.05013651164507494 1.3636948619135933
Ni 1.1910700339721962 9.140706844464646 5.130343113482562 -0.027242894876353084 -0.6906579587147331 -3.6897204698657164
Ni 1.730664564232136 1.5945801664932964 6.505805848622099 -0.25471687619574845 1.167832593962208 0.41022850824422896
Ni 8.168379401903874 6.479352463698895 5.478047222745763 1.295452384696427 1.8291370392154882 0.2551423937689412
Ni 1.5880688190920134 9.001656882562846 2.221288604531535 -0.28118046970391575 1.1705371373775648 0.7372728303597947
P 6.557857025578014 5.154537327942493 10.537433227242207 0.6183978756977414 0.1825868909987178 0.8551512254365337
Ni 7.915348626086542 7.576141502838085 10.012406800687147 0.32906366653843977 -1.4280686002039729 -1.1363694903569204
P 8.171252867800902 6.972713664461747 7.608794022041068 1.2510779723461098 -2.860736903963486 2.2234254791906936
Ni 3.3232001492217766 0.7695261399992535 8.223837293716555 -0.42288167823186523 -0.47561423273889053 -0.9381289519813456
P 3.517370923282954 9.094160380863395 12.761000342872862 0.3380121339809792 -0.4002174038651301 -0.891068251048117
P 4.845271350948026 3.9097279557998763 2.644370539545516 0.32483625872065347 -1.2774657183110194 -0.0925640846816664
P 4.606911828893417 6.496805085092716 4.144397100338653 0.6136696169841366 -0.4000816496182142 0.9852426176396967
Ni 6.12868831616869 3.2771602260831427 6.140228228889775 1.765736720581972 1.5569937400131766 -0.18366675432645788
Ni 8.130830938884026 0.23509648049269335 4.982836688803028 -1.513447994211742 2.6443428346073365 1.1934556938469512
Ni 7.666149138131918 8.78163412525499 7.064437090449864 -0.6075563049975472 0.7622626675359131 0.6323111433447239
Ni 1.2738203259107095 8.534212133832824 12.829381463360905 0.0360401814530089 0.9074868016154565 -1.5845976177733743
Ni 9.023889403958458 2.5623303252373266 9.751200461803169 0.9284680318528138 -1.751626506432835 1.6633785326280193
Ni 8.715903592860425 8.155863247563925 3.428500701573362 0.9665105884478322 -1.788149026838901 -1.356447950543193
Ni 1.915008453318534 5.067789971262598 10.17881086855295 0.5676340148813127 -2.002769806344712 -0.20353238290213335
Ni 7.350215246684087 0.4896938478135011 9.387914246927194 -0.8757321349116789 1.371014278393142 0.2672314637229914
Ni 3.9770241587152593 0.46935302480010094 1.5985486807722398 -0.30164336554395793 -1.7874635707361022 -0.6357307105492341
Ni 5.419844802608353 5.658535878420312 6.053420087354366 0.6294849867498384 -0.4966689965266608 -0.5134354173517222
Ni 3.8353309765812553 6.997018396840794 7.164899720892123 -0.5440040341671986 -0.02719918612261122 0.3923261740425114
Ni 3.308280230141043 6.919600594499654 11.781295829211057 0.35011405945083574 0.8905712568070404 0.35805696844699625
Ni 0.31540248445341246 0.19513504290546912 10.639459686239963 1.0584401248692932 0.33289358180749123 -0.506366940540715
Ni 2.3070063025983276 1.5087906317790782 0.28381277923926657 -0.9480325842483026 -0.28237526134296526 -0.8571096347144851
Ni 2.0074566926595243 5.602512503254817 13.318971240133903 -0.8293532905368234 -0.8686307479802072 -0.51343490313109
Ni 9.154097932330934 3.628846664365176 5.3537385092887915 -1.1346584212030846 -0.18372948924359325 -0.06430149029154733
Ni 1.140747541467796 4.0825779812981535 1.5922537642958932 1.8254482775099916 0.13467438358815514 1.7278294040132371
Ni 5.463665157538063 0.6584233968940496 11.261458218958518 0.08589027220591659 -0.9493675010096425 -0.7113990479168264
Ni 6.632382942368937 1.4273573450433703 13.353896744540052 0.6361140620305819 -0.6710962345327217 -1.0912358312430754
Ni 5.812625487148556 7.602877629437695 12.799632802482709 -0.9210344583929041 1.0565634766718708 0.9705011976644641
Ni 6.803114707750815 2.799234694690235 11.166562928691757 1.0837721758761787 -2.533330570522811 -0.18821323604655973
Ni 8.92273787848704 1.8745588949218783 12.682158701340436 0.09125590739320412 -0.07429716805167849 -0.6427696196738866
Ni 0.9000128051348399 2.052787459150494 3.760190764356575 -1.3888528492364598 -0.430921003596574 1.6321987645911054
Ni 5.198965531427343 8.78568644895593 8.047255446482776 1.1736687410280109 -0.18298541198871712 1.5111622835013587
Ni 9.03139541263179 4.304359815485281 11.443687531859155 0.0930245692578527 -0.1163915261185673 0.4754178004573683
P 2.807348551918708 5.43102553209231 8.33369486826638 -0.018831530884206273 -0.7951895001709208 -1.9176580641760328
Ni 5.2712350407029716 7.121728658737222 2.0272918961929665 0.1860537665013957 -0.3860259428560965 -1.4162973186006576
P 2.860710287198813 0.9896695460354782 4.029579113185814 0.0008883161422242766 -1.0530978867207734 1.3336834031531675
Ni 3.5071111764583014 5.469283151759821 2.386412506500906 -0.9004028981854816 0.7463483102985018 0.09055296778890856
P 1.317677520146792 3.390109539420252 12.97696893451446 0.22626170617884903 0.7515185416455314 -0.023283910228605063
P 9.199364230035753 5.663546024086929 3.6232388009526706 -1.3224818780103935 -0.9254495567414642 0.47473028747204044
P 7.4962186276636364 2.418389945414619 4.5619927416511565 -0.27981727080780194 -1.0368102053043433 0.5546897960158188
Ni 2.4076052384741633 4.097129507315166 6.249708200549285 1.3540889633927131 -1.1228151487112532 1.9613778736614866
Ni 5.36663963438033 2.055504357995442 1.5736250480461402 0.8740534616576754 2.5555207334666052 0.30131323589804887
Ni 7.772504215628407 4.9112873879669765 7.016840706617006 -2.415330305156227 -0.658606329595827 0.2729984481137556
Ni 0.9361604535298842 7.625653530602298 9.022308997715092 -1.1202985529369869 -0.8704621447619911 0.13636925479207482
Ni 4.902049931894152 4.084705451241147 8.241279784301124 -0.46900135540806326 -1.680943795205292 -2.545551023848403
Ni 3.5682091660765645 4.099026731593333 11.782724273315639 -1.3224317414987483 -0.3463561350703003 1.0316548863556492
Ni 2.368196390482521 6.619176051034511 5.307975801930607 1.0377003212187808 0.18270130508939503 0.40492406531218
Ni 8.278132905413194 1.72798450469356 7.411507563643464 -2.3252887297860982 -2.848356270910946 -0.9715936593976944
Ni 3.1635938543642985 7.196853214256694 9.53996295808242 0.5922646689457993 0.10131483429110294 -1.1692310169716313
Ni 8.921816895827735 4.927938754447203 9.032944505464739 1.026286422954884 3.4000224496090925 1.9861463388554184
Ni 5.772645629908145 6.264533258416109 8.506583575036347 1.6912832294580873 -0.6658948928374403 -3.9948787905414687
Ni 7.682689986693028 9.005773675049937 11.873684204679193 -0.5539300350316588 -0.05269295951834151 0.7476181781498609
Ni 2.8932301848988566 7.634329187252947 0.8303690174208896 1.2334980544808176 -1.058923235153299 0.39163557573339003
Ni 2.705994410262243 2.3815045899094724 2.4977666778721 1.6178111284108652 1.243862171323961 -0.4617284758957338
Ni 5.819403919521037 8.02088402901625 5.967164535414539 0.09070954797143088 -1.507932206599835 -0.8675017765820866
Ni 0.8691248887070843 6.642329555089428 11.157599004468745 -1.4450250255526533 1.650867287534886 1.37816837293942
Ni 8.14539167472763 3.569507751626184 2.7614265145604646 0.9846754322823169 0.9020430048920658 0.9589160639300259
Ni 6.1116961861045205 8.567634594538985 3.729053261628148 0.25409878299577526 0.026534298845102687 -0.17815688025182222
Ni 7.171240686501434 3.574094245269521 9.17255166187542 -2.0727742605583077 0.16003060296475666 -2.586940385428467
Ni 1.7483105919844113 4.462731993579291 4.202022064348679 0.2020506561502843 0.2149172277003073 -2.2803761855441245
Ni 4.207361921807326 1.9967364545052193 12.685177682497637 1.5139334184885926 -0.47191441528980016 -0.9732371085383885
Ni 0.8048237213997596 5.409290341332723 6.714455391070203 -0.3813167103058852 2.7298178736527055 1.3577738684434681
Ni 2.050181078224662 2.5797000581918104 8.697533672737936 -1.2115431474762812 1.0262316584575488 -0.18515825127031985
Ni 0.17314934486255104 3.319350441705884 7.695884905252884 3.1264925544718993 2.747625591258087 -1.7111226327815177
Ni 7.029630392806768 6.159891208665927 3.696514023292259 -1.8058610994066837 -0.4650994492504958 -1.521378047692096
P 0.6785892332021819 7.1088625309867375 0.7944138544016403 -0.12403515870675412 -0.3467132612994029 0.6102587915303749
Ni 3.662352013510675 8.222367405392305 3.336852796163307 -0.9447228031487794 0.4075730728992529 1.3804566547529644
P 0.7105408846014346 0.5222597946465098 8.44064121663014 -0.052246101788910024 1.2784003143101468 -0.05459557585769307
Ni 0.4849747326672247 1.8754061989684385 1.5085060481373531 -1.3846416393685894 0.6319758714924922 0.20985446846541925
P 6.435808403566976 8.845891085394669 1.3374206254143035 0.3854356175702653 0.1175508365339911 -0.17892075500104024
P 7.224372176116714 3.265684782148208 0.9091185606873841 1.3856785652735362 -2.466227606226727 -1.6750269155002249
P 5.609548810771904 1.9667492591182631 8.577755272982083 -0.0468976929928031 -0.9069679529975089 -0.015846994334585612
Ni 3.1371156029092933 0.1096825878445562 10.420498821938287 -0.6925502906414395 -0.3850499520960723 2.068222636631883
