# total energy = -340868.9525501134 ev
CRYSTAL
PRIMVEC
9.28547488724686 0.00000000000000 0.00000000000000

0.00000000000000 9.28547488724686 0.00000000000000

0.00000000000000 0.00000000000000 13.59023108767176

PRIMCOORD
 96 1
Ni 8.958384463721607 7.579992902483828 8.035346076628013 -1.698458664160604 -0.4759232793388772 -0.14746973558061052
Ni 4.139826706483775 4.458476338046747 12.294619271164349 0.002191608334680097 -1.0446582405938525 -0.4776914269828934
Ni 7.025845064326454 5.107883860040252 5.017445194612125 -0.997797828596888 -1.687496251611829 -1.8591420702180113
Ni 6.693480786791558 4.619570036737949 13.071247080538578 -1.249964941787589 -1.362830457030769 -0.4690126682619729
Ni 1.6325999991344338 7.8915948588317075 4.278693764644853 0.9437542685879231 0.300521850345005 -0.9823434417150307
Ni 3.813414418162152 1.1712883359447612 12.709964120935329 -0.3638476069868443 0.0333034992481362 -0.15406744340278627
Ni 2.0715522395073203 4.028178159993313 5.537434557389054 0.7589346316039446 -1.3449957428421933 -2.225108266209755
Ni 8.786241050266296 8.975414024122763 3.3422592233578303 -0.6563756404930954 -1.0757801588096376 -0.15246256080951162
Ni 5.7118946967549915 6.652188281282321 11.160731898327452 0.27783675004266345 0.4017325549580759 -0.44911515800709745
Ni 2.7701449204129993 7.626438846391453 10.796609440594063 0.9766872718705181 -1.0120024022320442 -0.6484635847348703
Ni 3.564117996324501 1.3726717088892995 2.0573296780752313 1.222594005973804 0.34785071733795575 -1.727153460992135
Ni 7.508513319077009 3.878384883880196 11.01126732801488 -0.10226999911552065 0.7319449903889782 -1.959959396047405
Ni 8.999416975942278 7.2287419696294375 1.4550106548310966 1.8810936347884377 0.008825825821746092 0.43315452091278306
Ni 3.286185170846083 6.080815887757364 1.3413165182880862 0.0033542611842135783 -1.0771780675984288 -0.0902752886474897
Ni 1.0206222252200248 3.418391758082543 7.36961469030232 -0.24681793306364586 1.3127229988514166 0.8638477247692672
Ni 4.058458092636809 2.378047184829772 5.9093447426624905 -2.17470410272559 -1.067616906272555 0.3717069551302631
Ni 6.2294299085973375 8.566537435952355 3.89947219667792 0.5693677097429678 -1.3095132336648672 1.0331206722678983
Ni 8.577512866919731 5.012893454967279 3.0894668203364093 0.5081888242408023 0.4355731576566047 0.7854082524144409
Ni 6.996103689209275 6.072988232676572 9.301534748542208 0.6839232110940608 1.031910711120197 -0.0776228899908018
Ni 4.119630799246853 5.8090764738316025 9.605506830418097 -1.126615753404266 1.1478918891742231 0.8108858278602551
Ni 1.0079939797753286 3.2644200184031655 2.4071153630390523 -0.15708000497686495 -0.19239796355186864 0.3150195297405478
Ni 1.6868921690720358 8.547539354937761 8.514075433056775 3.0194212773129934 -0.721497312693093 -0.21583485441857023
Ni 4.083918863967219 7.537196150090735 7.804679102463667 -0.03514826576635882 -0.8794625484883885 0.49736088038736276
Ni 9.042046589792719 4.831622419988338 9.16102508992586 1.736825179753944 -0.24779932314030872 0.03300036618542059
P 3.641558854419183 7.33467066377142 4.889669635850819 0.8608277069960208 0.7926273958706994 -0.4089462990976957
P 9.008377458923258 5.723687249486436 11.064635593230609 -2.043200403555933 0.6139786635841232 1.2909100167413832
P 9.05760904520839 4.386263202147186 5.4808990167901 -0.017290411649331514 -1.2753188471713457 -1.3826220378353995
P 3.6531471267096096 6.4917074239141686 12.458938743728705 -2.6917321225245776 0.24288337389593012 -1.3061142352856474
P 6.514456836663805 7.647006172612042 7.34971870389471 0.03120753595105593 0.5066176230989403 1.2201715125752406
P 8.663087800756731 1.7045438562708357 2.831008420719139 -0.46989429953597783 1.8982896869517503 0.040632685919697764
P 8.329339987507675 8.659085761207713 13.0837360438644 0.16474703460381948 0.042095900728785565 -0.49891665491025683
P 5.398639925929791 3.9582399653687164 6.058089688694207 0.6223206077909154 1.0197468220641532 -0.3807217570343637
Ni 7.781441273750508 7.154699595235314 5.626899176532513 1.0287053168090219 0.41791610669647383 -0.17876468903915022
Ni 1.5199021940151112 5.50851494677324 3.445041998708148 0.8438447992847791 0.4656972307354947 -0.5193281286870733
Ni 5.420767211881785 6.6942236247588935 13.342915924857444 1.2799352628974345 0.5261893745832809 3.0047850154570575
Ni 1.066836032262858 8.810448282526826 11.75886595817311 -1.8533799709232535 0.7555482316302149 1.9513420866920397
Ni 3.9470881103840987 8.208461679273075 2.4747405459428604 0.13040532389915607 -0.3785800281010125 0.7929636961641957
Ni 4.207350677714533 0.5456469861686827 4.179132120430392 -1.31684499143959 0.4832360109502065 0.1687047336999869
Ni 1.3248979421150628 6.826950198572488 13.088683344726851 -0.3144153204976456 -1.1499783393896066 0.07139310703100608
Ni 5.910631709440898 1.1033000909844184 2.62848664858966 1.2156466281216933 0.617383318390298 -0.5819242062517397
Ni 7.66200221407762 0.20105466714399275 6.23435492432077 -0.27857234265710734 -1.6473348489015953 -2.392015284579371
Ni 6.487640386043009 1.826898554965514 4.794212171405884 0.2551195109508058 -0.5139226414007859 0.8639683095075313
Ni 8.217710011966396 1.2522576743842841 0.6540233314130333 0.1970948548069057 -1.5914565496767366 0.9903228603760815
Ni 6.109099443363647 9.195739765234347 11.982465757625723 -0.5018785657520582 -0.954835208992433 1.2989791669027628
Ni 8.046244438156279 6.51827316672099 13.082431434684267 0.6602767753197144 0.016254514185649424 -3.227938000803596
Ni 7.7794448967132945 4.765825547031634 7.1936354472931825 -0.06359777935630337 -0.07217266550950796 0.8972491830478484
Ni 6.054937270070329 1.872165243599995 9.746940393756319 -0.3111225086789868 0.19976777365337853 -0.6772956784752142
Ni 0.970842795933983 5.94308444313885 5.949803412553396 0.45197062517802167 1.8316880877721164 0.7702539132715057
Ni 5.703491342249514 2.413183420684721 11.966755663164045 -0.20463152950358307 0.42915491283508667 -0.6990883488702734
Ni 0.4097689222786693 0.9787633057606934 5.084866097074915 0.739076973448069 -0.11193066213373627 -1.722022310413157
Ni 1.9051286784004888 3.9982232189605265 0.022561846162884532 1.7336748070504207 -0.2786034530053589 -0.43707493901311173
Ni 4.992446839916381 9.040793050722842 6.094946522990996 1.2828835468924809 -0.7424217215505858 0.7207792035801457
Ni 2.919000363592356 3.7378120840366247 9.29675087203257 0.07545133626077974 -0.44470031676885347 -0.04507606640303204
Ni 6.899246903743374 8.384662845124954 1.37212386588839 -0.7449815118579621 0.3953474773673385 -0.7370992808964079
Ni 0.45869873063957145 3.2784317995620236 11.79873964316474 -1.8116566230425382 -0.16947272221426296 0.36234042631369856
Ni 5.930233346303954 1.9345914892799163 7.183904269921093 -0.051278338559002004 0.8147283415347969 -0.01912617930648964
P 1.9303480273915146 6.239773927292478 9.001720702188475 0.5250562894201022 0.25930038180137277 -0.6364177093139298
P 2.702305243046123 1.9702012843390415 7.846809157781076 -0.9306843227778423 1.2803188714890983 -0.3473015297027051
P 1.8992045456109916 0.8294027327635484 0.19110156692916194 -0.16712016282168637 0.03344053904663273 -0.24697065659142625
P 2.584769705664531 2.339716745715282 3.975197099068058 -0.28484326326748366 -0.030974851114959557 -0.17498722427458896
P 1.7740642045388069 7.652484602621138 1.993374114730059 0.3702604524917236 -0.15593663540104113 0.23692072855459198
P 0.2082954802305914 9.265585105113027 9.725875366097613 -0.7396338743928037 0.8436056866907793 0.2029708539717085
P 5.297753244491096 0.6014545455596485 0.6628853883633407 -0.329172167091846 -2.5413693816668874 -0.7270215849454317
P 2.475832517754843 2.901460102088657 11.463685363640632 1.2684545159513445 -0.14118930188853746 -0.052829227985889654
Ni 5.572584721455891 2.642386075505958 0.6763474694263706 -0.03221155173553807 1.8145488569886683 0.6225648625912376
Ni 0.7390411367745324 1.123430999899199 7.355657693443553 -1.1766291092079155 -0.7654053269299527 1.2793261685585258
Ni 5.306593016302383 6.4236727515808685 6.003009181963771 -0.3092967683241577 -0.37570424921511425 -0.3917746724144156
Ni 1.5203664677446955 0.7581952137622674 2.3884153457588515 -1.835517488820536 -1.0727683685665073 0.5705925832890044
Ni 3.245161944100004 5.330252405562007 7.2946242689523855 -0.8780224736077524 -0.19568460472294041 -0.033455451444968184
Ni 5.47639649016059 6.07209682711577 2.96898964460417 -0.22533816592331513 0.8585702784204116 1.1608613048506975
Ni 7.0757080628838205 5.809104330255377 1.3467262357852037 0.14337062581057244 -0.17336845772424336 1.9022844099334402
Ni 8.046727282835045 0.9544446478050614 11.139178454705222 0.9341995350199523 1.3955289757050546 -0.08822097722162225
Ni 2.50106115222046 0.20286533468937198 6.210952742707337 1.130308114654189 -0.8670148096433392 -0.6201454545164674
Ni 2.550051316166208 0.7282087021158687 10.593394972060043 0.5426346646234976 1.4351098233214703 -1.2907992021951318
Ni 0.928705312236901 2.440362004814593 9.53504214938415 -1.017124553949958 -1.2416407381926098 0.5722545443724597
Ni 8.093024659149204 3.536363712769944 1.2431959797302554 0.6181068268198838 -0.28601182965428806 -0.9059078871641109
Ni 6.8177854351504905 3.452952294512807 3.1099886477314995 0.08805848350182899 -0.11511651606088562 -0.303075212894478
Ni 4.715748982558657 3.0046402957514986 3.755143422362011 -0.36745126517770266 0.4613471812969151 0.004586590929417907
Ni 5.501262991117131 4.882655388344258 8.062948078399266 0.3134277597733957 -0.20008273379063607 -2.4838774580980063
Ni 7.673822623232838 0.9506747451208358 8.173029236778651 1.6820403707035805 0.16875564154258033 3.4971564130496287
Ni 6.47230078201754 8.554614886576628 9.516422915732898 -1.2726590409509952 0.18448205113890162 -1.1561060495538993
Ni 3.7192597058024313 5.166800196324515 4.246756374786741 0.1836814096144772 0.5275829124966979 0.7495629605810575
Ni 3.1079876279569905 8.178720304155897 0.22639287020979212 0.4842199721300306 1.7521389272928793 -0.5806846774176838
Ni 4.058504520009768 0.4713864031216545 8.211787736271818 1.094454338180373 0.5129759612168004 1.3328675921200916
Ni 1.750934087330911 5.192966663723893 11.14309228224562 1.5321843942789806 0.4586086993198295 -0.29507342563592404
Ni 8.182527348738489 7.904418099242829 10.878721820955823 0.38520293273416883 -1.914490465081329 0.7196391764384316
Ni 8.386259946754725 2.484950853803881 6.235116333237287 -0.9921038635359044 0.670289165250394 0.4353440723649341
Ni 3.3320182734306574 3.6840491861507485 1.957292617561676 0.032258602923389605 0.5148533807451714 0.16477351696638073
P 0.21164660801073173 4.990654743320185 0.45170119698727507 -1.2998137469889164 1.1727002064671543 0.921186410589736
P 5.168304443208369 3.976207358703633 9.84568677330163 0.14068253745544804 -1.6573099578364363 2.3961344489540664
P 7.687760120594962 2.5644716582071005 12.699078759071492 0.37672574850109314 0.8531267388073371 0.269468066362994
P 5.158461840141178 4.696490908255496 1.3655051795994344 0.12835641178992732 0.4355754716494498 -0.45425376478524354
P 7.918764157486988 2.992689889951995 8.884314232903709 0.47282484291921156 -0.003473046150264986 -0.8524250847546222
P 7.760298248105233 7.0566078416487175 3.1955932950871935 -1.9357622299759114 -0.6161031661262938 0.8068669365088491
P 4.639255242872329 0.20926859796780034 10.454706195011127 -0.17420740868577095 -0.10504319098528361 -0.1689577302510574
P 0.5982074150949349 8.086469114087473 6.081669222872341 -1.1527204209111181 1.834278474207112 1.226418521926217
