# total energy = -340856.70787228 ev
CRYSTAL
PRIMVEC
9.41355444661949 0.00000000000000 0.00000000000000

0.00000000000000 9.41355444661949 0.00000000000000

0.00000000000000 0.00000000000000 13.77768846929568

PRIMCOORD
 96 1
Ni 8.154868150752572 0.8661580963804448 3.966885997794457 -0.03809603554077311 -1.1264602016630083 0.6990911770837508
Ni 0.6878296021415333 0.6052143649061563 1.2823285179301869 4.247500731881401 3.7880561669238375 -0.7999691809477513
Ni 1.7471745472255005 1.2897981734469561 12.790379158099071 0.8800808987986779 -0.7751696054055682 0.5422798523872402
Ni 4.1995467046939075 0.8395045580941426 7.735814357451367 -0.49085547516867717 0.06935190823126121 0.056720335510179735
Ni 0.1578502477219862 7.803723739805461 6.9695811423696075 -0.799682760055584 1.374806912666355 -0.045682332528463265
Ni 5.931951384867347 4.092599311718461 7.756439455418905 1.2234100741171963 0.6006122695795463 1.6258501966652579
Ni 2.457173070276917 6.254516244272035 12.713541019276601 -0.5363987110161149 -0.40518040429736024 -1.218438589044534
Ni 7.608194798735749 2.473317316289846 5.152745350292633 0.18685080848139432 3.2325927259667875 0.47210210582057405
Ni 7.2470343657724525 8.337349905248571 0.14050200808511873 1.1203412332494642 -0.04114459255910979 0.23798722214589338
Ni 4.280277348313081 1.9307200333829926 12.789690085907731 1.2812632376802386 -1.9153078187763013 1.9847394312055624
Ni 6.813690796700037 5.497967694087128 11.839030275964802 -1.1037599318520153 -0.49951006551988164 -0.6008125585158104
Ni 3.7951121615723404 1.9498295490717663 10.592479854723445 -1.6220660470324773 -2.6209756206363055 0.03211050738129954
Ni 3.2643571302598104 2.677958578141201 2.737268678435348 -0.3344974359595014 0.013850018509214858 0.6728841796710798
Ni 7.080414450653589 4.992158582269796 3.800092873272306 -0.1272796337859808 -0.2806361671646715 0.6362557298147687
Ni 0.21908165449498967 2.5398711467921267 11.588785990565322 0.5948121179580015 -0.5213785834581988 -1.0260329121831813
Ni 1.316297329439024 6.267478708855011 4.363627784156978 1.0970750636326718 1.6231837055766885 0.42616651963072416
Ni 5.453516889613045 8.638611890759814 6.466131067316613 0.2480515483604309 1.142167585095936 -0.979772595664061
Ni 0.6438579475928483 3.5007597250835407 0.8812376693764282 1.0384122596841407 -0.23963632771354215 0.23604526792817412
Ni 8.121148798438687 7.294328063713536 9.95593718035313 -0.02760053532608795 -0.2031346332430824 0.07103058148526477
Ni 3.903819889244241 7.350348126700675 1.0096385531177448 -1.3606103094509987 -0.6942001675400367 0.6005230522998496
Ni 7.943750363386993 3.735496120756082 13.277172889772896 -0.3101848273560658 -0.34259126871122936 -1.4811384834457586
Ni 0.21340716382642183 5.6076450178752575 7.220184084196548 -0.4884640921183652 -0.21026610208154106 0.11982060640477428
Ni 3.1329533226245436 3.699432793365101 12.05381087739664 -1.3053071660033198 1.7061166949264936 1.1093788207006894
Ni 4.890322749402232 5.699926092898433 9.542302770392826 0.8188001976113253 -0.6736948484978332 -0.14924251121031717
P 5.116878766191254 5.225972449598742 5.106699889681762 1.2676150507691846 0.14610705090512902 -0.01335353848877055
P 2.5506308396159043 8.372904900695122 13.03392758216386 0.315605741261321 1.080773755369487 0.48735723220743155
P 1.542288532956457 1.9146793364698544 7.498561718653894 0.3754887907701985 -1.5631942123969336 -2.4153426464514016
P 2.837904283100784 2.4832015485426604 0.6372411601161789 -0.243371112165626 -0.1691837302189344 -0.44420537941030597
P 2.539127475984534 6.682842388781833 6.395561414453332 -1.0318634028220293 -2.1127747122106455 0.7073788710138398
P 4.640684696914258 9.491498757968815 9.812372942980543 -0.06275754284319514 -0.4195526138586323 0.47989974748812186
P 8.043101017859563 7.130118018553453 12.174613139924173 -1.6676923295120245 0.9786539086785855 0.9815800811864449
P 1.0385221624713725 5.264304443630606 9.219739793699041 -0.8058845179909218 0.5057678735041354 0.29962222134887107
Ni 9.375147224021404 3.1260061193839945 3.3643187244211497 -0.11157790678000784 0.2155216940535256 0.8789167032872476
Ni 2.5904878294810607 9.198304188686771 10.908264130802701 0.6233485348347975 -0.22690191086600925 0.21149380384105512
Ni 5.009526590371169 5.501328333053085 2.2999648269736372 0.9025801083424585 -0.5947483545996015 1.0039931587743225
Ni 5.05958787334304 7.359676959236427 11.422021106706751 -0.864265529032976 -0.06898244070698442 -0.4028090758517063
Ni 3.6958838833086145 4.885418287493931 0.5466281669550965 -2.0065174463126025 -1.3904543893956247 1.5353494222705235
Ni 2.6753133693192575 6.238014283187099 9.956074618249218 1.1754196622808466 -0.3800851518916293 1.1490969652259178
Ni 0.44327675180876847 8.237340301959147 13.881434602960972 -0.0765643668193004 -1.2107520190335535 0.5552202145979922
Ni 9.424097707559149 3.4817161042764524 8.625755799342986 -4.265240829473642 1.900796512534004 -0.36410317464107617
Ni 0.6563346727622575 0.35022282395896726 5.618802904055506 -0.5037076485409969 0.4370363724656925 0.9907152107184938
Ni 8.783062884968796 7.659451603132484 4.3477424108935265 0.24590570566202166 0.881986857572139 -0.21998872868594369
Ni 6.973297613696666 1.3946463437629961 7.608591109381314 -0.716728687659856 -1.294856660093957 0.5036168885994037
Ni 8.575371631450857 1.3814956080894902 13.27388002839953 -0.17316714034671468 -1.3154190576263411 1.098680974667211
Ni 7.346450915126709 1.4208160253466369 10.311883445464202 0.5249192496216057 1.0438822816597764 0.808020590497318
Ni 3.976756109715481 0.14307379118175567 4.340357477367496 0.4613518092826055 -0.39237888165731777 -1.7646416877455802
Ni 5.620551001131075 1.5064134766560058 5.669077874715128 -1.1071193352425515 -0.39924758375269304 -0.6415953968601273
Ni 1.5467411442474868 6.269069599569988 1.0901018517883663 -0.6227178432293341 -0.14787288455630015 0.7462956026836953
Ni 7.228772069991064 5.190426867706718 6.265348421465666 1.1920526428518372 0.11625885719544493 -0.5517260854018047
Ni 1.3652101587586634 3.7724631493816063 6.5203465519010235 -0.15797166355319892 -0.887319325528646 0.6673797049130828
Ni 8.40106084228385 5.978030734274512 0.35341590165435255 1.814807509966694 0.2107929211192886 -0.5582937113169933
Ni 6.525344207999137 1.0194503010007048 1.2616412905027736 0.3310511292821137 0.45307131444136806 0.27194172471446715
Ni 1.6388151210710802 2.6424129962491767 9.352446437280774 5.035828214825165 -1.6340049645619084 4.369980630285894
Ni 6.650233835902073 7.106678267782495 4.871983262473725 -1.2418286858337 0.5825050184558742 0.2725626461279177
Ni 5.025190745103247 3.0581532183570586 1.071136363483848 0.7616450885565721 -0.3365376063179817 0.5229513272619575
Ni 1.1603806258167788 7.850160804284634 9.546091726089736 -1.6697394418490403 -2.1199668590837097 -0.57298705166311
P 8.192955392366748 2.918004218566683 7.094297560869256 -0.5538307904496332 1.4627149866332487 -0.6472214847976532
P 4.540100866798718 2.8922487333822073 6.894727380841321 -1.0995721190229126 -2.2158882902733836 -0.29846985291198275
P 9.077462389230227 4.825369223169455 4.937124118441581 0.0336282295774066 0.15850876700359154 -0.6566556336273595
P 8.567172425458285 2.1260230491440697 1.7160109749655572 -1.5437348181207415 -0.7326445875591641 -0.7064170213212028
P 7.219358515464575 4.123108641938813 9.927362335587972 -2.165401080157109 -0.6984424877561584 -0.7857466095904662
P 3.3296213037919618 4.851473009871411 3.4638209371215956 2.1371652252398676 1.1658700709191985 -1.541996495273396
P 6.652831976951385 1.8576426095938547 12.545798067102726 -0.9559376980279924 -0.6347781168279777 0.18414677928666995
P 0.5377784843447437 4.783742485053318 12.944428212503261 0.8868174461915631 0.3553583385689106 -0.26988972728144484
Ni 0.45563769025750184 7.82826487645602 11.706791486043036 2.0726271934574823 0.5240605011657361 -0.8819498336866166
Ni 7.295071734521129 3.9949242699516057 1.6603627473822147 -0.30697891882425843 -0.3609731136525267 0.8310854427365815
Ni 8.599423263266038 9.122562728966638 2.2609738841249176 -1.6681587276254817 -0.8600738595491315 0.24564936667684145
Ni 6.193017492550479 6.153781797284071 0.39635677198238695 -1.7330955375081831 0.11287657098677335 0.22413437542320108
Ni 8.941926031157832 4.590651654605966 10.963113147606746 1.0102859337615697 1.7008464476664902 -0.739205014385501
Ni 5.538295361678609 2.262208942478793 9.219050721507703 -0.19492047286340622 0.5719254431678151 -0.5680291934372024
Ni 5.660558607868654 8.045247308291602 2.69422708307388 1.3318617765633967 0.7393757356354105 -1.1247771575336307
Ni 4.17586220150526 6.985667024344473 4.058768879461163 -1.7716530860664066 -0.10629351845261692 0.8403979783867591
Ni 5.9084928069873355 8.006548185633203 8.80800786310854 1.1668797431306355 1.0558607941778912 1.822161893449236
Ni 1.8588098903551393 4.054643859867655 4.422968949181062 -1.4212258662505266 -2.474658253492583 0.38701504624224314
Ni 3.369054683703426 0.33746557486466877 1.522531364716261 -0.4132243576477592 0.2726963434923046 0.28893440261772174
Ni 2.897011991972611 1.7030720442688974 5.703949446103055 -0.47788014595493183 1.1642029676294208 0.41688458010816587
Ni 3.608676714175216 7.856693811126018 8.350023373707584 -0.14883216314577594 -0.5518366428377399 0.32624548036335427
Ni 1.6584612093678637 0.8294320547507988 3.6006751928277 0.13115814290478056 -0.4903993614678651 -0.7274486451805213
Ni 5.614432190688856 3.0697130633155876 3.7325139066820903 -0.5498502085353304 -0.05614620817426459 -0.637077968605748
Ni 2.9136551563754445 8.582582414218148 6.05617547446526 -0.32180158565938777 1.6942014315461469 0.2061780480550965
Ni 1.7963321289628287 9.302747576158174 8.158499900088891 0.09634206366685989 2.7311862147551413 -1.7077940826289169
Ni 5.327667079148408 6.5856003705231965 7.179801817988813 -0.12331422138032956 -2.972464448947481 -0.9787896629255015
Ni 5.032542731188435 8.861185973984131 13.671449266204927 -0.14794744654797745 1.1503886874541476 -1.165818905966289
Ni 3.5880233755440982 4.8036992206494755 6.832190314055494 0.2967801239143857 0.5910241116704789 -0.24303866852687178
Ni 6.642401758536034 9.056291305100153 11.731591495443073 0.23835668967017018 0.31118164405169635 -0.3736928752120403
Ni 9.041530851602616 5.70243009840248 2.684251539342159 0.4133487990407656 -0.3633696389091613 0.30804669796714046
Ni 8.7328509851245 0.24905535346278485 8.86588710311466 0.14051284464680316 -0.8564234072807378 -1.7324026252062164
Ni 5.62665098446424 3.372669488641598 11.389105671949427 0.469308859346153 0.9757791582339518 -0.020605849175809675
P 0.42397049283039123 0.3826205132173335 10.566880634544107 0.6413411147574761 1.0504427084861134 1.4804121468026956
P 4.58779934758444 5.631837853008336 12.729288954643964 1.4881264847278177 0.4180670304520413 -2.5191869320325777
P 7.498931671346786 6.673419420700816 7.926235503835007 0.47587160016533525 -0.09598210922427985 -0.6580771965652344
P 7.6547071716511335 9.103001362660594 6.413582723238843 1.0275817447275402 -0.7818642438169244 -0.7734765339738615
P 2.138044158274397 7.900862208964307 2.65938281099408 0.512539387900014 0.5363951114716892 -0.072694599451249
P 7.773788636411225 7.346224989818073 2.0667223624044495 -1.4670154137808153 -2.698872847334417 0.44298693362217256
P 3.665534583515212 3.878017336287133 10.02548640390574 -0.1595472355704349 2.443287452490786 -1.396673116611827
P 5.783207809794287 0.7857013871979919 3.4432099594858476 0.762688699329738 0.8744877209816165 -0.5920474107286707
