# total energy = -340866.1203219325 ev
CRYSTAL
PRIMVEC
9.29588915749694 0.00000000000000 0.00000000000000

0.00000000000000 9.29588915749694 0.00000000000000

0.00000000000000 0.00000000000000 13.60547342487200

PRIMCOORD
 96 1
Ni 6.724664931889706 5.8461476150269265 3.0239527985044568 1.1893293303834034 -1.6059323746954084 -0.969437275176324
Ni 8.417623000475114 7.117732316248643 0.915766874990315 0.9766404777929826 -1.7291838611586026 -0.13233108016695916
Ni 9.196562750852864 1.38713260557281 9.120034341957421 -0.8924453339013018 -0.748468441965298 0.20769679869246807
Ni 2.3894990559568776 1.172602071653702 8.555897495056097 -0.23142216733386592 -0.20550210503399446 1.6844127275904992
Ni 8.265783944186236 3.139863242539354 7.155703235388057 -0.3571411415009462 1.2431299211436269 2.431327709025748
Ni 5.133162199433649 5.041346700537772 0.9721492325334108 0.980008622934267 -0.6462547500090097 0.975901542744429
Ni 5.384002477069197 0.3174992408311098 1.7869841299635603 -1.7799891167359279 -1.0193390451027735 -0.8168667280340383
Ni 5.889066736055807 4.536198778547207 12.099606705630585 0.46496060967978636 0.2218530355881921 0.6624349593132979
Ni 1.3042597522107835 4.682887912148192 6.720518965249273 0.006547828420846788 1.854305568061316 2.375089712468626
Ni 8.549894209727864 5.8295823402438485 8.667570872735144 1.7578848286377209 -0.7338090401809104 0.49157255584035986
Ni 4.444169474196779 6.402385744765971 3.413164247970005 -0.8996323385680441 -0.9266392061741913 -0.5454957882213767
Ni 5.627127166562236 8.767009000880247 10.162458638635112 0.5541424081527812 -0.8592912157468362 -0.47932562015220675
Ni 3.938454502957187 5.993710562224773 12.866696056292584 0.4315164710887278 -0.10557978021504397 0.2824773341384684
Ni 3.818676968961706 8.707784889969481 3.5470696745666763 0.2098207870140064 -0.848951524383725 -0.42590786665269875
Ni 2.5282587959608 4.216661878775328 8.937367327889016 0.5871301759327113 -0.22122825751999964 -0.9840719943703633
Ni 6.457724173937495 1.9116066814769643 0.22117709478886122 0.028301418047854483 1.4064137409383584 0.3231223613533403
Ni 3.2317345167712004 5.445522672644059 5.422719856121676 0.2352747083107367 0.2968783400551468 0.5677980512630028
Ni 8.032141061808089 8.115915616434965 9.751981912742083 -0.4501461703747731 -1.937401308241231 -1.222585778443688
Ni 8.830341894874133 8.9787321762222 11.502720440625566 -0.1471169802268821 0.2955758191936394 2.622300252985
Ni 6.41360588318526 0.18933681466147886 12.286912368473823 1.452134382903925 -0.5394848061406065 -0.7008922348482316
Ni 5.737218383877601 1.7470322568082803 6.75932186648357 1.1309352067152265 -0.8834274466734076 1.4728165938436248
Ni 8.343432507745744 6.246688894405838 11.751265563185953 1.260605966441203 -0.16914259256835387 -1.0395471446195321
Ni 7.531306432465868 -0.08809342480881444 0.9337070118050513 -0.0065910229539563915 1.244997827590301 -2.02021319863214
Ni 0.627216892705478 8.830053722304955 4.802718432712844 0.18692279936991033 1.0851518298325247 -0.2304708591641902
P 3.3698342486328117 1.1563714488864447 2.3488630053470327 1.3595078204154392 1.9137340465312782 0.36032750964872784
P 0.6865255962091309 7.170923394985325 12.892614854917824 -0.3143474433741877 0.054077755681010094 0.056143379960787186
P -0.046231246396563834 3.541259743736472 9.014511124657995 0.5087146148372852 0.4741759576304672 0.6893153286439095
P 7.328535198547093 1.0505470447727812 10.300364086409761 -1.3099850310949632 -0.5526727655857901 0.09093760482183694
P 4.697733447405529 8.196325059124984 7.940726215742265 1.3607182957837727 0.1952256628086509 -1.04064243456624
P 3.3131665072873364 6.308236977648685 1.3455381487732152 -0.36791406374673413 -0.4427712180669407 0.8225493802411125
P 6.894500829918222 5.488042070431823 10.066798359913038 -0.5635865842848164 0.0077482764868511715 0.6088459703432483
P 7.871563869550585 5.985883423410322 6.5835524022967835 0.07938795231102456 -0.6336992819415022 -1.0788495417635808
Ni 5.316188964419059 0.990978985956868 4.478704632640444 -0.5223741146022487 -0.053802133422120244 0.9609168964101386
Ni 6.52561205370226 6.869439112289055 12.746696350542157 -2.121962292247184 0.708084895941929 1.353770660821346
Ni 0.3114820116688844 2.210832063066451 4.932501132392403 2.127538500783381 -0.269614105022555 -0.5850067018318055
Ni 4.1127803155312845 3.4372201503738475 2.7431760388759665 0.9028241060324645 -0.5239787400852073 0.2636738282787201
Ni 0.35904628859513016 4.684263703768784 1.6460714619911971 -0.5524850750550162 1.4381002734083619 0.5360516120893414
Ni 0.14038001351384985 8.161874493274208 7.794439594149196 0.6756982520811072 -0.9706526356406638 0.590316544080493
Ni 4.818654375788394 6.243686322152788 10.542555468614236 0.03280059146978867 -0.43055436428577465 -0.4671488755803567
Ni 2.337916166073996 6.797981611022212 11.520352883503538 -0.6916712304705959 0.2003519282916227 -1.7617427689312304
Ni 4.292544223362453 0.6156184115905255 12.964791858018678 -0.7448763537386656 0.229472756916979 -0.13114914404371608
Ni 8.99323376357439 4.516379942499215 5.188419754368016 -1.2573766608706278 1.0494461489007991 -1.4454060630411558
Ni 8.05085368702601 3.856520534417321 11.280188934761568 0.8713538033383251 -0.4422994206368447 0.671464673615734
Ni 8.704113013684793 0.7250161555619976 6.662097089587542 -0.0043330801577151174 1.86433826970697 -0.7824625395225557
Ni 1.0195359579734855 2.4592647053659644 7.2932275517002445 2.121515948738385 -0.3052351966602743 -0.3354700842854158
Ni 7.028584737589997 0.13054124424874958 8.14823649404062 -1.1607959988304006 0.8072613437337903 0.5666104587128049
Ni 2.7045553370725033 3.8613729886467074 0.8550953941111293 1.0130177308704358 2.295031987784086 0.18771161381979284
Ni 4.616738363687824 1.2798394509452709 9.142456956606276 0.4394874051093463 -0.13397478641796925 -0.30487781332085556
Ni 6.19230794183513 3.98930301758313 6.771471593835693 -0.8895752114423583 0.9490116603321205 1.2905714024550419
Ni 6.323128992352663 7.684921003616457 4.116975550385158 0.37116599502512854 2.6334547269399224 -0.5580484280754067
Ni 2.8439100139934386 2.958193677395879 12.203973514297566 0.411979943717697 -0.2907881679970089 -0.9993150365723629
Ni 7.130049369608676 3.5868839685598966 2.1192294400361935 -0.12677724022826553 0.7346693312986766 0.25403399119611086
Ni 7.43633962708769 8.2087350713783 6.192544987013003 -0.30929959653763506 -1.724213918747837 -0.3396645819827376
Ni 4.656152934439926 8.072113385919891 5.628366308609702 -0.6987826447043964 -0.2163300488874339 1.3424380094173463
Ni 2.4709217505836847 7.308316639257984 7.007008978458952 0.8069533255750684 0.49895753545052135 1.3231454797363214
Ni 6.565668040818017 6.828090996556661 8.055964566978725 -1.8506119212598127 0.7653994133926817 0.6611686910063646
P 6.224276505235244 7.564938960055752 1.636643571034409 0.309119619316345 -0.5047749134632468 -0.10923588891039251
P 4.5156176795742935 3.266714948313691 8.39197843058506 0.8768017138267739 1.1530238110841498 -0.8035949506257967
P 1.5859716783057038 0.263227050165544 6.712940956268821 -0.33872767199076503 -0.1115416542254337 -0.12295503826869794
P 9.324241790777423 1.3396399069943923 12.608001681763533 0.9674780945674242 0.28430024627982003 1.4054336364132762
P 4.552829124555582 2.921363363877051 13.728739198087705 -0.05440737110628694 0.44052458812460904 -0.7881814442842039
P 2.1927143747655435 3.476950781363113 5.3709380342071675 -0.19305873706431914 -1.2832000496916351 -1.8365793544261466
P 2.8824693629273352 1.2718356902335821 10.775317100684056 0.40343796768495677 -0.7551648801488672 -0.06317971798227828
P 2.5592884745387523 7.5054917478011065 4.778256299945354 -0.15914357237411303 -1.0119674352290509 -0.3377583660989602
Ni 1.4632566432824718 4.812816557290205 12.79751232955545 -1.1273264063180457 1.0617061972150748 0.2084781569431829
Ni 3.2149926200908854 8.603373461033724 1.2488720548258185 -0.08148751515253062 -0.599669960270935 -1.70992372737741
Ni 0.5814532295421289 6.771255929203276 5.734121923142337 -1.2319525643705687 -1.1828318955845178 -0.5656745771620967
Ni 0.8751419794476645 4.803557851519192 10.506391670360248 -0.6278860176938347 0.9570088196049841 -0.5495344770671245
Ni 2.334941481488932 1.6485794929319795 0.3869590554812948 -0.7054112057645077 -0.9731494339205886 0.7181633632238535
Ni 5.117814686152581 2.4441031098714645 11.310080796485735 -0.1437830307576427 -1.1618892318945797 0.44592030521888365
Ni 7.434554816336651 2.5943990485318396 5.316515250134483 -2.8004885006953897 -1.1584295554807533 -3.8029711363624568
Ni 2.181484940456926 5.153938512082457 3.2787968156737164 0.08803354380116452 0.18706163894061978 -0.2654995686335492
Ni 2.620873741338912 1.0703937684887572 4.634201621380017 -0.23930722650889752 1.7463272057071084 0.8516501542618107
Ni 6.537101772912071 3.2523342075227712 9.574321664665916 -0.22692993589046723 -0.4810932535755908 -1.205340618209995
Ni -0.10205956893569146 2.6849874900363764 0.6676753918291513 -0.2616560265177429 -0.8571381739595754 -0.1947906321537613
Ni 1.2449891618533766 8.799070523173643 9.985927841112334 0.03277642310007258 -0.5192970183388218 -0.3436215097479566
Ni 1.9767243862218884 8.952341146419084 12.395837881267417 1.464637400466942 1.1977360663898597 -1.6593616981591421
Ni 1.6119350971997184 7.299429769060104 2.3857332911899722 -1.577805534552205 -0.13451266119931027 0.4906279325389034
Ni 1.4347833342698093 0.5363003063076509 2.6581009893320595 -2.1703550817282746 -0.3825657522216379 0.3786910997575801
Ni 3.370317634877885 8.024620687341475 9.482103653762122 -0.7846330648113132 -0.5196459170378083 0.6264775673820824
Ni 4.296866811900125 5.700806385378548 7.934902341078069 -0.2809503559709806 -0.3196102344350238 -0.19285844812805494
Ni 5.622153865771582 5.942006825780624 5.77931946664559 0.9014246545817767 0.19416302587209142 -0.9126660318235507
Ni 4.285079624231808 3.1151454728153354 5.568747122402483 0.028119641054351573 -0.06299845520940764 -0.6471291821941628
Ni 1.8340231891427554 2.920052643481757 2.6934616227480785 -1.8775341995719537 -1.3096554156696865 1.3755540752450246
Ni 0.8045843202678042 9.146643825159753 0.6035551360091569 -2.6572037497304044 -1.071390000161742 0.6231659865103462
Ni 6.8374798447782705 1.4397938186177768 2.9054488013469566 2.259486743689625 0.7429732231786816 -0.06427886458372802
Ni 3.733201266587748 0.6888263288178915 6.713675331525758 0.18214491836529276 -0.3449697962457349 0.11666534860524425
Ni 8.42875018000112 8.566171311941764 2.843489839795798 1.0523355546334523 -1.4777340857499002 0.6985949541736227
P 1.547914307395537 6.446392484846266 8.981231840862588 0.1592304756609645 0.9337796738737144 -0.18754063545956734
P 3.056888134394716 4.720963874837015 11.014229822722431 0.7016658797894625 0.3962687036300272 0.17363353846017193
P 5.647429388855301 4.107546729839437 4.0599545652452065 1.0375563394417484 0.6035009039812509 0.86330162245781
P 7.537534678315846 4.105306420511311 13.68370526223663 -0.18968596393734427 0.5543835776293097 -1.0449847706953357
P 4.65146780621845 7.94312362560004 11.93878967942841 -0.5394971474357805 0.4785830855592274 0.4532037262541744
P 8.8315782481548 2.354025942279985 2.948727673292844 1.0312730775361982 0.4547559012326426 -0.6783074075691802
P 8.920670051477478 6.126242056378718 3.3095178707259683 1.0161218237170564 0.16595802419278516 -0.15151022419857132
P 7.705399847806758 0.29042124480662895 4.535031214847569 -0.5259944849636554 0.3745503381163291 1.4779022358966483
