# total energy = -340860.4147218222 ev
CRYSTAL
PRIMVEC
9.37547616880479 0.00000000000000 0.00000000000000
0.00000000000000 9.37547616880479 0.00000000000000
0.00000000000000 0.00000000000000 13.72195706070156
PRIMCOORD
 96 1
Ni 1.2989440723925805 1.0135733341197535 3.053643158467916 -0.11423179946308712 -1.056756052298651 -0.8991132328397805
Ni 1.8573567980075305 4.917530913052122 10.14487630538584 0.45594066556936313 0.022951209479534666 0.6929917490542323
Ni 0.16617562423670157 5.272223920816679 7.0255729383490335 -0.9497721926472288 2.2405194585585027 0.38218214362997405
Ni 3.1705422184333725 5.053044043053943 2.474123423750081 1.695331688495848 -1.522035992991069 0.42049183784344996
Ni 3.255334023313439 6.917151183776384 1.03571258312946 0.5262971038057388 0.5219799644876236 0.30845216093567523
Ni 7.3311159507682495 6.419022768795979 3.3363428236303574 1.2295375271711728 -0.034838962056056126 0.1274747805159224
Ni 2.885358989680404 7.23351724568184 8.556024701887454 -1.3110484393624713 0.00640693196760832 -1.1374796927019635
Ni 6.494570354347015 8.252218965169726 12.20124820739051 0.20713346998983034 -1.827268618548182 -3.2827179247579523
Ni 9.415321765900734 6.231222609181583 12.118683078058766 -2.0271901441706057 0.857443106794504 -0.935456290245189
Ni 0.230732339281225 4.857480989317401 0.7134502843720498 2.376869172966552 0.8569741375778853 1.9326375683040002
Ni 6.408119090216201 3.318149712466075 5.822912191761054 3.0696259231918424 0.08983640133785818 1.4356119597688695
Ni 4.336813930049989 3.478986003124802 6.029867386376607 -3.6003970036085344 -1.0920153897215774 -0.45377194005281846
Ni 8.454813625900968 7.889275538531391 10.447458542486489 0.21803880404842446 -1.3593828648018007 -0.6055030220129444
Ni 5.1228350863453205 3.0329383572851274 1.797192493465695 2.093766289428942 3.7685108978020585 -1.1809997274717856
Ni 1.1320512242424197 1.3732540951125496 7.476682403677291 1.3723808197233656 -1.3385217050820755 0.5072244034450039
Ni 7.10891716973579 9.547609732160986 0.13533874614835295 0.4583616163060299 0.7987592198000502 0.5896812244893392
Ni 3.8918257129975165 1.3302112848290046 10.440556317060494 0.42105568076672 -0.9477122247944065 1.0442504636324725
Ni 6.707684299142325 3.5428329946366612 3.5380008743099047 2.088542322025842 -0.7211563844139064 -0.31327632179719594
Ni 1.5563758922064739 5.372082115617385 3.8417906727184428 -1.8540836818584974 2.843960970056728 1.9898417854291346
Ni 4.823307379323168 1.1720845067322339 0.5486762937962913 -0.4038655421406786 0.4337525595080981 -1.8772202678759606
Ni 2.845016316482823 5.73870072884495 12.401150231416583 0.3460100645847912 -1.8071787897768423 0.8197167958883238
Ni 1.5190146203746446 3.8814470610733416 5.925895232710204 1.369000847507539 -0.4593543192366024 -0.7696820999284357
Ni 8.59544576579493 0.23919558146004363 8.975189107864999 -0.9335061084973535 1.5827201982450032 -0.4963954311503
Ni 8.194859803044977 6.679651625923461 0.738514681891551 -0.45684029456549713 1.1443098282499198 -0.2160785949982601
P 6.704281001356891 0.7648288303609098 7.920093665667753 0.6322306678157757 -0.46621813623597125 1.2894128633705666
P 5.964237179330892 7.539654663279009 4.910099910780125 -0.0564997348589414 0.09248335204240202 0.2513464170616187
P 4.212813884567487 8.971036709547729 1.94471654576206 -0.6167546836673636 -1.690212879212044 0.53925212130451
P 6.938639774752181 5.9355669737445105 11.361464321561318 0.48750892729394757 0.38790181972257065 0.0815304525753241
P 8.902333221471533 4.5564250797084 3.623556780483394 -1.201261305934299 0.13545085674286347 -0.5654094964261682
P 1.005613555001755 6.7194973988934175 1.9165732419264805 1.0285885887254995 -0.18780340220265074 -0.5041714755512929
P 8.733827791450588 8.474820891669882 12.437608644910291 0.9983961243025193 0.6593097834207549 1.4716290012934268
P 2.440745791667648 6.228644353283527 5.797732475886839 -0.5966157468256434 0.10882194130142549 0.04784463028710469
Ni 2.7507552808498974 7.4575723709609 3.3498725730357553 -1.420571263385663 -0.9228008062647075 -0.8844021518818511
Ni 1.003747835279162 3.615877328097585 8.315670311594683 -0.2695007193731423 0.29780547985510647 1.801245712121859
Ni 2.2031243526268174 1.5609136225870521 5.077727796248132 0.840919655218184 0.09786544228992178 1.2010954697803962
Ni 6.136849067836741 8.024554281633389 9.71806807383126 0.06372993405879346 0.8681412099382985 0.9089111927668088
Ni 3.9756612193263035 7.734364548700196 12.587604072678394 0.0744087539288783 1.4414195675895822 -1.3884350449727507
Ni 3.9256711813319964 6.546660498963738 10.484850753389095 1.9236654467123773 -3.855877754553501 -0.024739925948841265
Ni 6.333302791792613 4.2202955144098455 10.031902757218623 -1.8156171503521825 0.6452813303521469 -0.7414205339795811
Ni 9.343289983847045 6.948662158588624 5.254851163801779 -0.10066228830876858 -0.8379749707675633 0.47756390026609363
Ni 5.158115002506719 2.4358330422473524 8.132661020212675 0.5441233333538822 0.11986097272440649 0.046381929698649155
Ni 2.882958867826214 9.228449778409637 0.28078519296468457 1.5222810191223395 -0.08433424057270637 1.0863875020118388
Ni 5.376844857421794 0.531057899310376 6.3040456814090735 -0.42605776196700174 0.07310314774357733 -1.555164657224238
Ni 4.276651500603353 9.20158903968989 8.264473649840086 0.6829320508253851 -0.07167772815096042 2.0835546390032635
Ni 1.5514912692141567 7.419011038201976 10.87036938867081 0.6244281410522214 0.5515543357106307 -0.8506044866061158
Ni 1.4585896776002056 8.53475830969269 4.927787683788388 1.9553635491466066 1.4489207610626338 1.8321619420847417
Ni 1.4954821756323884 7.513703345730577 13.33299379111556 -1.185389886119681 0.25628653467571344 0.8980703933975631
Ni 8.513325971572849 2.2418825703815934 13.090019892830366 0.17515614575228544 -1.363716459180148 0.04638090125738464
Ni 7.165526293781106 1.162080873847777 4.703968820504351 -0.7932786563014531 0.35842206509589886 -0.2126114623852661
Ni 6.243673241300195 1.1825381624643518 10.436947696350815 1.6324173083598144 -0.3489256955696894 -2.113213856630593
Ni 1.7886814363593126 0.3015228083134482 9.853915908326028 -0.25792844115451063 -0.6958600717409629 -0.8946022323433044
Ni 5.2779804630763385 6.94698394838589 7.992724540637389 -0.5028856668603339 -0.8816374446525203 -0.6193543260737397
Ni 2.7021153113985723 2.4879888151960263 12.177056666685951 -0.0522018788145359 0.5023182243926382 0.5748662709636938
Ni 6.26016470357176 5.088727104683038 13.625052056414146 -1.8767579835275614 0.5875826900890978 -1.0994353363347322
Ni 9.337711575631252 8.354252270400792 3.275677868670499 -0.700017288442446 -2.4044511963498785 -3.376892034239216
Ni 9.240750402912361 0.4605758834383202 1.128488543365106 -0.41846837965551803 -0.36390905635239906 1.1926113435687848
P 4.077085118617829 3.834269665876914 10.92580657821701 -0.3266306316169149 0.05978869002285832 -0.5779333399247918
P 4.24465300103948 4.984537439973598 0.6059726402318893 0.5254733223528627 0.3678351308796826 -0.6926845022264586
P 4.9553328322556185 4.470705102705034 4.06167183608545 -1.5547846481769996 1.1849150033657916 -0.4864398625994848
P 7.515803452352993 8.346264364854814 2.0587326468596907 -0.15513805075914572 -0.5955867913404969 -0.12916759483731302
P 7.123139766817066 2.273374794241848 1.1324056172349524 -0.8329224959453203 -0.9949783568702217 -0.8398122810866181
P 1.0699480712652463 4.544902619713088 12.61470482358356 1.5044082526069769 -2.6804485791909576 -1.3423405646075333
P 9.14257041831439 2.7699562556834194 6.875702204411637 -1.4699094474991588 0.9891005579332063 -1.1314309154047224
P 6.44276147401008 4.9953567392694405 7.718161851089212 -0.13413213793143997 -0.25183724065510826 0.2509054728694582
Ni 5.116140996486368 5.729709647367729 5.935555723173319 -1.6219758013115162 0.3239841951330033 -0.19863391715925144
Ni 0.9612019252232421 2.2555613898552793 10.57846206853571 -1.499198169160947 0.9908653631431129 0.07889841426911574
Ni 2.417485235729187 3.6945938245342314 0.6914441671214427 0.6055721846879829 0.6400326803586976 -0.5880868834190259
Ni 2.949974770223683 2.6820049153937355 8.922222356242937 0.028861404316382552 0.22432926504282655 0.06556210217152579
Ni 7.698944000398903 6.98035126744473 7.932717744092235 1.1811185124378367 0.09845859578923044 0.8694848684503864
Ni 6.096150126551429 2.980248182204857 11.987817371506642 -0.6547836134156272 -0.39516698592541616 1.5474642032561865
Ni 3.4157390420764915 8.195619216600404 6.294933656291544 -0.272625123934737 -0.9887645147500261 0.12248684038302776
Ni 6.118716897266413 0.5837086973914766 2.3728832837880174 0.3990388101759966 0.47983315591624454 1.5094121335794715
Ni 1.105593630990369 0.5300809747119125 13.014425429899365 -1.638308991253901 0.3708325229451097 -3.396015385332228
Ni 5.687735641347379 7.283160391064409 0.27822381292341586 0.1086764168624967 0.10101195833870345 2.8264805538837776
Ni 8.913190022671346 2.6366557380159295 2.211101007601603 0.8945371834333238 -0.8853622018022752 0.4275595433235088
Ni 1.4335946586030521 3.2808259425382174 3.379127808324097 1.9508222096328276 -0.49826873691361284 -0.8840103157600712
Ni 7.582688098086561 2.9183606651755207 8.465047895494852 0.5286113537612122 -0.438399057141174 -0.63643827813922
Ni 7.539804670894895 8.707745217238255 6.171353632133525 0.667335996159341 -1.0207503236280033 0.42558159366153153
Ni 7.40834174652202 5.850784544340438 5.862088555745115 0.2853394861776118 -0.35586278900915486 -0.6231235633081849
Ni 0.7182636537468204 8.336166977210429 7.762318467920718 0.007232513192697222 -1.024960762164925 -0.7800048220106824
Ni 3.608255066115332 1.9266884429752535 2.6887215063950713 -2.4763688084257867 -1.9659307831394917 1.4658741010875205
Ni 8.526470388914937 5.050156396448121 9.831590087344061 0.788479435140597 0.3941334024545793 0.01077600756958144
Ni 3.5985889503666204 4.93783819405281 7.975091145389884 -0.20463949992338304 -0.04058794872469139 -0.28942805442468866
Ni 4.954779679172036 6.573840003867245 3.07762937624823 0.24264400419161436 0.2961494323089222 0.35097717878207935
Ni 4.155717235770538 8.978902733905798 4.166411841235675 1.317388779758202 1.5448025972636235 0.10624286772033961
Ni 8.136975614264621 4.376378438740157 12.685331221785907 -0.22225052813692692 0.23650189584961848 -1.9376846438096047
Ni 7.644950634155615 4.304337281210477 1.4194948802572835 -1.8171299874522833 1.1187486919513634 1.3614518315156874
Ni 9.027542703357124 2.5863281828858775 4.6941583224253485 -0.20351284251810756 0.6482676666739803 1.0452601358439093
P 9.073913807618158 0.40674752557250743 4.639572426099306 0.8733816324016315 0.2886685505508448 1.508151264589177
P 1.921606934987085 1.7249281996073833 0.8704576306352644 -0.74832420307795 -0.9303755332881719 0.9682615097006679
P 3.5564086838744244 8.43124367925474 10.310664722464033 -0.16225486430958508 3.4447437037758672 -0.04452302211303945
P 7.921217785239306 2.710693871932104 10.740422478765991 1.0599439631083294 0.07914703994481209 0.4439228151728806
P 0.741470769472122 6.481435312480919 8.928492674587007 -0.6867789353753011 -0.4418955003302067 0.3020647693520927
P 5.275392831702289 0.6332318366813355 12.219004421373521 -0.8484768987401516 0.24410310523564413 0.5009277718030147
P 3.4412215858252773 1.3447995254740048 7.057257359467142 -1.3457555038263533 1.294584637379493 -0.7247924385045968
P 5.193001148676415 1.6720411395312607 4.267542288128621 -1.2656018769938977 0.6293039810872839 0.03215344480409301
