# total energy = -381169.09855864337 ev
CRYSTAL
PRIMVEC
9.24956183312136 0.00000000000000 0.00000000000000

0.00000000000000 9.24956183312136 0.00000000000000

0.00000000000000 0.00000000000000 13.53766870280875

PRIMCOORD
 96 1
Ni 7.558177827137628 4.45076898068367 3.838659792547663 -0.6648641375800808 0.6688742871807384 -0.8800148214474328
Ni 1.0601107977025916 8.132529378313269 4.089107407423538 0.013135251830377379 1.4166554732710248 0.44263932047476673
Ni 5.585116762841301 3.265909340550838 5.22299548635074 0.3235833601501588 -0.031861110374654805 -0.6303861584078692
Ni 9.472198937312784 3.177233789844326 10.522884431357305 0.7496802028852121 -0.5964501677820566 -0.19668630651457739
Ni 4.418441761562021 4.331680870185461 8.711692551631135 -0.35030046443002893 0.6634436030834703 1.24240049917677
Ni 8.1640611351046 2.4897508460858817 6.350371873643712 -2.012513515995037 -0.6077673925670887 -0.5526640238350418
Ni 0.03296358898590458 8.394819207392706 9.487049109072386 -1.3171247274635383 2.0450402849781493 -0.13242518254266222
Ni 2.207611456996413 8.1189880195739 8.712613808004388 0.9257961414476057 0.1459532989360841 0.17247242827253523
Ni 5.817780244897378 3.6566570864146737 2.5473016207282013 0.009972537831679599 -0.524609945911303 -0.7332354270656275
Ni 4.44115868578599 2.2766686867424046 0.9497829473560594 0.24856731165458482 0.8593804330265329 0.44068425363092495
Ni 8.187471776477103 9.117311743247129 6.998500706043963 -0.22492267565245136 -0.22171008225242458 0.07692972057851913
Ni 9.797968510264006 0.3803549380226097 0.442572116684063 -0.5143407027748109 -0.3853325163334977 0.19989195793606865
Ni 1.8086408505319629 4.996761374827271 5.600073304563679 0.009464487847009507 -1.1476368357406235 1.4309199536098387
Ni 6.066315975311896 4.9339475994180795 7.179404564213675 -0.466773494518809 0.15444411001591465 -1.0114115627255809
Ni 2.423727472669476 5.530877331387981 8.034295330256166 0.6010197894306101 0.7850159020720286 -0.31387281773061426
Ni 1.0458109748808257 8.5932315614352 11.750371602833209 -0.20550596168873642 1.0918773214818163 0.3775323035627885
Ni 7.625209402809903 3.531843497050569 8.181314343066722 0.6526819936915921 1.4606429345955685 1.8421090259951243
Ni 2.5952328509108598 0.9849396074875271 4.825637078539482 -0.49270152723848043 -0.234683354583641 -0.622744068481579
Ni 1.1413404510148464 4.802002597767052 0.9941456965266625 1.41663387600447 0.07709761361495109 0.0023620724742733513
Ni 5.9893966178825275 6.20217354168065 9.941224801260915 -0.9085936615263901 1.2813982205962062 -0.6654279805033507
Ni 4.1503432075588655 8.581854600199254 7.3504400647064525 0.823180586067208 -0.3844344299992605 0.3443452752878586
Ni 6.039408999510785 7.153870223410463 6.235816048515918 2.78665673701862 0.272245371997815 0.5051124993083237
Ni 7.996292579903316 7.761242710856285 11.210570865479317 -0.04663801157351323 -0.9636152691779082 0.9164861769005893
Ni 6.948798184742049 8.09375521449125 0.32256644963739284 1.0823979212364712 -2.4364904841736106 0.5328480175503791
P 2.1560451489554406 3.3260777412336227 2.4583051102209676 -1.2990254467596662 0.5431738249564193 -0.6124141473104807
Ni 6.2550717866468055 8.072962199159212 2.656334532397471 -1.4705666214671835 -1.4554490490994547 0.7610840738467796
P 5.895430317723202 3.8306875950767187 0.15722127967498464 0.36981513742418887 -0.1021689547612821 0.4230768249618068
Ni 3.369458186921903 4.531684148888591 3.7599793185172183 -0.8155539227598857 0.7341401982680841 2.15582037844721
P 8.84370969986561 1.1506825086150942 11.501318821903984 1.605135589825726 0.37772230808640755 -0.5225672044496613
P 4.023947943096105 1.3940477338825434 6.2860948175292135 1.3505128160056805 0.5311343772933821 -0.28214386205844955
P 6.569778883469416 4.242626087437751 9.943539966624622 -0.045148571512180304 -0.4116066195386782 -1.0257372353196335
Ni 8.049422063918984 4.815183223589184 13.398027526920345 -0.6237545120239645 -0.8009076336016208 -0.4496985413143933
Ni 7.632979034873475 8.997372673046717 4.452106467346043 -0.851308968872308 -1.2968775471787277 0.1929623206957709
Ni 2.3094953822109985 4.498959198601782 10.09323950249711 -0.1890537296699841 0.12643322662528547 1.1623404604993854
Ni 2.3774796627672585 1.3141500174954726 12.489366282216942 0.5978874144492154 0.07934064401285691 0.3157168129178885
Ni 4.03176382296958 5.99070080612177 6.037515614173389 0.004528741108288974 -1.6470157749992795 -0.1385138119389034
Ni 6.084167629934151 5.780051281579149 1.5492368847904248 -0.41869849338845305 -0.4253157415946546 -0.7305190565757289
Ni 0.43883714355635994 5.785046045048588 4.124941135491974 -1.0253947643785501 0.5695170908366386 -1.8056852359504514
Ni 7.064389960811653 0.3924792638665751 12.346191387365458 1.0384953063162503 -0.9241195250761312 -1.4596029233668282
Ni 7.852387894611576 2.012889678184117 0.017486296924028456 -0.612066534163075 1.7878759756831726 1.3753764120165797
Ni 3.5348681038181744 3.652938762498535 6.451647177679984 -0.1506455622054309 -1.0455110755124508 0.4416967540558393
Ni 3.2812081160664914 3.617133708072239 13.09137217380171 -1.117107813913831 1.0664480827754343 -0.9831278852895391
Ni 0.566662390301297 3.412098667651748 4.234921202308041 0.2517130563724181 -0.4316673948442953 -0.5261446373882744
Ni 0.9845973736942507 4.96919768012555 12.114548131995825 0.9052147177518282 -0.1714820393348079 0.6414419020013986
Ni 3.618040165146322 1.2309039596714808 8.383296103077468 -0.8129419390583353 0.4978079952271104 0.48706772599147086
Ni 5.544760923920627 2.6135099853842156 7.658516150545282 -0.10564997133134707 -1.0628426248123632 -0.3160780529120492
Ni 5.753079558844176 1.0950833915506484 3.65077066517032 -0.169340824622089 -0.45944790739167324 0.7507235565480619
Ni 2.2408358836301665 1.1389818127098332 2.1388159898544687 -0.1502149024259155 0.8801978839925164 0.36337041024010974
Ni 5.102863100304939 4.142240591263997 11.632445237319743 -0.2712511264053457 -0.6534366124694294 -0.3375326232413993
Ni 1.7128431371005097 1.1322111333401488 9.966662021663334 -2.881171003448122 0.42212371701991813 -0.7546285480294229
Ni 5.821924048664616 6.173102168376116 12.38120005450524 0.3571249435510301 0.9318184363822855 1.1396520177629341
Ni 4.268515611421011 7.205704768748867 0.8673628754169215 0.33313603683560045 -0.8819323501851197 1.0697218684306997
Ni 1.846601052899703 2.9873772806337424 8.365169736464393 -0.22954011981980468 0.16978665391025596 -1.0023653933629126
Ni 5.727171535736954 8.211613133246061 11.145563093968365 -1.312102077437966 1.0399567213531251 -0.5509231298845351
Ni 1.803424097574993 6.966659088926286 13.566639642174245 1.3057537666224353 -0.057671643679855514 -1.9622592478251752
Ni 3.98984480807421 2.428870229130603 3.2745317822290074 -1.0208662803805773 -1.0666447721672727 0.5839281240556459
P 3.541268800708641 5.912958237676142 12.558232046029937 0.47470329088884694 -1.5450453094020486 2.2350126698076607
Ni 3.740097385040255 8.340376285575815 12.550447614667195 -0.496623488000706 1.283875478492105 -1.6239097851094355
P 0.273455900302228 7.401823231420212 7.73263566556317 0.6829904148671464 -0.981729976500748 0.5853067495707275
Ni 1.449424861459459 6.799602749997495 2.2166038811538007 0.8035874944266289 0.47923126066618754 0.973298557903943
P 9.011145270835597 6.777940275839297 13.511134870642 -1.8899315447950418 0.29355390366760414 -0.5649880926180334
P 0.9615844634869072 2.6599890343359442 6.20672340121883 2.4149724075961765 0.6682387104792685 1.3058265288418993
P 2.6140834582270034 8.72984759188635 0.9269716775998895 0.515020502450655 0.23719660792379796 -0.034238352357579736
Ni 3.4205620168638537 6.634387073902814 10.712939806150468 1.5672251879331978 0.4937484804457561 -2.3271777192786955
Ni 7.737286345326937 6.17404562369812 8.3450658134999 -0.129737351297854 1.131378464900232 -0.6280055739908347
Ni 9.124128670426714 1.2960948725096468 2.8433976738899607 0.7630473682207375 0.7345544029873672 -0.41483026868229844
Ni 0.9956690993848416 0.7660820216434611 7.430569020143034 0.9186304769371016 0.2680534454036545 0.4037968936862723
Ni 3.7058000092167704 5.024870793685839 1.5973771550738411 -0.06283261905550469 -0.3463792749987518 -0.9395044921726337
Ni 8.520918485872093 8.27727577374523 2.3598185491218 2.0681365046759796 0.5014491915241235 -0.25068487221821983
Ni 5.095861181885743 6.017598532360899 3.9225126216375714 1.411249728874421 0.7189156680088458 -0.7714965274293552
Ni 6.164250337560831 0.6752614975136844 6.197233350626894 -0.7142385742481505 0.2988963989264401 -0.12842377469275304
Ni 8.824415113574403 7.210070562003637 5.814117418353122 -0.3820772426209936 0.33796225457965023 -1.2107641032184113
Ni 8.024189258836333 1.330068513663816 8.883892571977249 0.11715720063999824 0.10740577768018922 0.7848148418048161
Ni 3.7493469470206984 2.6675551760359473 10.237009144183935 -1.0219314884202981 -0.18624762767975667 1.4163374278099736
Ni 6.515724443255704 8.617493162509902 8.567598250318795 -0.5439459272357535 -0.5310441315724208 0.3670424597750582
Ni 3.8712006765510614 8.701016707193306 2.994545691168586 -0.8341805367221377 -0.045652250621476216 -1.326790018467444
Ni 8.786926638867667 3.664759702709542 2.006499155811828 -0.9633897834306635 -1.3365126450718465 0.2112122680448943
Ni 0.10155834063287364 0.9975282613429107 5.070195497302407 1.4404260933280613 -0.49517184315584406 0.39321551862600024
Ni 5.590583253971744 1.3995697223848682 9.776823086620514 0.8590384763060819 -0.9694491022508659 0.40382491871073034
Ni 1.2342892993563233 6.719510792808835 10.506287017339597 -1.086863927427625 -1.2208788230549101 -0.5808289163050319
Ni 8.37240751871409 5.413981367079137 10.883176144488134 -1.3172262860384087 -0.3204818384066997 -0.6549695041741881
Ni 0.31564685231982303 4.88473992968212 8.58886576818043 0.3923110045338598 -0.4521326046771826 0.6578707369813832
Ni 2.0526350460140823 7.224712618618679 6.3846489004308395 -1.4028131680712936 1.6977305277453278 1.5154871361289577
Ni 4.497109286205693 8.303581528017611 5.138479463666834 -0.08314407691934712 1.5397341816017807 -1.056274227566226
Ni 8.285073154494743 6.137250866139917 1.968228168161545 0.5260471925784617 -1.3416412245476637 0.47122330276004654
Ni 7.190905469580159 0.7788306929211063 1.9036125780785629 -0.4636184938295951 1.1124019237977292 -1.3115027532910704
Ni 5.285051722633734 1.5349000637207373 12.286599234394053 -2.7120996304373355 1.336065530232099 -0.321944024774523
Ni 7.245662876504384 2.7965218187292713 11.255258274275434 -0.2770304520912842 -0.8740177233237334 0.5787661202387322
P 2.8808685744289355 7.065777395108719 4.542415490698302 0.2034573066898238 -0.8027362021699272 -3.476303737970336
Ni 8.258240175189476 4.940801524845588 5.861674966231771 0.21672934120838158 -0.3871209756924881 2.375022863786432
P 7.4280457396347686 2.3529868226430435 4.185941996752999 0.41764151287884854 -0.9039600194091206 -0.27377235016530266
Ni 0.6607036119126642 2.8045411889663154 13.446424935026817 1.0985133387410952 0.24221283019146672 -0.5087125579547562
P 4.454755541897242 6.603364043020406 8.00778793553261 0.8651052513254521 -0.5545848950068384 1.9541767279273567
P 7.371244179512866 6.617136640809287 4.2340138202777595 -0.6410017291401864 0.7968532610265888 -0.40126769950651536
P 3.382999545661272 0.3841861065949094 10.712641970254698 3.134506683025627 -0.7611462945432828 0.971018760730831
Ni 5.180022946345798 0.19725060905775002 0.8340015552658577 -0.8542161152167739 -0.47438216010400236 0.011231607049761302
