# total energy = -340859.76694190386 ev
CRYSTAL
PRIMVEC
9.31039032675329 0.00000000000000 0.00000000000000
0.00000000000000 9.31039032675329 0.00000000000000
0.00000000000000 0.00000000000000 13.62669735188237
PRIMCOORD
 96 1
Ni 1.5117560157698993 2.769980791337116 13.628741219647994 -1.6216829526614458 2.615486058276644 -0.6084536200008359
Ni 2.956123426031848 5.30529319336394 2.7230638721777263 3.890016348108423 0.32186277791462636 -1.471849344834349
Ni 5.361220708324738 6.694375505600713 7.371103091821565 0.34349526858273743 0.11599094824603895 -0.020853446410241505
Ni 1.5138508536034567 1.192186176663114 1.6135642034417552 -1.8623878308488184 3.053995158633121 2.3777204652232533
Ni 6.6744326494252455 7.612268271532997 3.462202729213996 -1.2861874144547334 1.2367445864425732 -1.2981273604254289
Ni 4.151521687373084 3.3079444573850467 13.039114197429349 -0.5942822135964604 -0.16039030029702056 -0.7391276241803464
Ni 8.856778842083191 5.458560839657375 12.598604249476587 1.0985166811752047 0.6903244866347144 2.4075845997725374
Ni 3.0684625962527563 8.477296640936663 2.904898589247626 -0.1383698301618714 0.6404890511698259 1.5831261754341701
Ni 2.7207288262725875 7.18455824826279 13.591594624144314 1.8182196209720363 -0.8568270704770597 -0.007198317520652119
Ni 4.885375966834566 7.855790842086461 1.4799954810960567 0.6754683954584882 0.33720763580181284 -0.0652869941332682
Ni 1.9082576105152862 8.90165492367318 6.026257237356265 -2.0978756836116257 -1.4721319090717744 1.1132635004670763
Ni 4.794292417831486 1.3112008967802928 0.9156592032821936 1.0361540597775833 -1.1600395802803507 0.15060879543022448
Ni 1.3758056955672053 5.988322051788131 1.1939058057647056 -4.284332041777137 -0.33997722812715 0.9950919996299508
Ni 6.132893793474712 5.221965199540209 9.03601316712237 -1.6943965782760884 -0.8853493462864688 1.6092082172332027
Ni 2.9515706451402495 3.4346495599489737 5.329674312629437 1.1871544342192717 0.4922492701924103 -0.273406996406084
Ni 4.56437232761059 2.2643800422200564 3.5765035986861515 -1.3267979888872439 -0.7108945974765821 0.9482267025369798
Ni 6.9500667563695515 6.553648955137508 13.628468425210112 -0.017479130621369895 1.9709912283815345 -0.18899510851790677
Ni 6.510299777568425 8.88484035866249 6.547192199414965 -0.3093990982299768 -0.717130808194281 1.6236678443019585
Ni 2.056711784986726 5.0419115601483515 12.032210375390653 2.648731193483019 0.6184228153984058 -0.09544243467072595
Ni 7.523223698021249 4.201313655079152 10.75525216335721 0.06407163366892836 -0.36580807314732483 -3.1145351249997075
Ni 0.09257600457960893 1.0966988130143789 12.555488762705826 -0.09750600206797401 0.27478227948705575 0.05685377576425048
Ni 3.8097279464498466 6.099711562191161 10.015922443318326 -0.044024228099749985 2.0217239788497117 -0.20717923562610124
Ni 9.118158741368937 1.3089477823104219 3.421936221896873 -0.06908734171596488 1.8145367728038106 -0.3522514175088127
Ni 2.8479553106973112 2.0513490001328187 9.568571220520685 0.8321889602134055 -0.9604816086449329 -0.41621017974896063
P 5.304632155647572 6.109264022712183 11.587025680432427 1.448561577951002 0.5855522899226303 0.31319996003330575
P 7.193943121757128 7.133518688246959 5.528446491862927 0.17525976120968526 -0.06890787871530712 1.8542896272217164
P 8.275987380326976 6.580853915802641 1.7366270812924038 0.5280950762464259 2.235247668636602 0.7208185414585134
P 2.2880563649344414 6.1013129493350355 7.807212018245782 0.44765759962496454 0.9117556041941394 0.6895914651234317
P 5.627181319673195 3.8051193032160198 0.8924912278820852 -0.08465280025438969 -1.738192492415116 0.7397423749462099
P 8.589403051398287 3.4017559507669355 12.687272683217333 -0.4131474816632369 -2.7758426771222515 1.5459850476074988
P 8.546631118032229 3.120098021252355 9.126630265567844 -1.1432819012060373 0.17609408418552253 0.7182955179263436
P 2.5696677424971655 7.506148442080162 11.461810240327917 0.9868770679193263 0.31337428082764096 -0.7222637585454722
Ni 8.431461589138426 8.811707242295407 10.733926714211593 0.8350043181750135 0.30679688472043937 0.8109328790481066
Ni 0.8081679533276556 8.019551298328427 12.715902133609285 -1.5611931228065048 1.1513474518229914 0.42881578432811307
Ni 3.8364766979867824 9.004450943763436 10.256528999607477 0.21398803101781855 -0.5413601687864483 -0.6779975896382453
Ni 0.20349999546406988 5.276142361111191 8.984926124115644 -0.19796028813099456 -0.620606453313286 -0.3620982283959054
Ni 2.5546593932185226 4.38852698466659 9.308397016788032 -0.5344788682855828 -0.32608967151178037 0.11741045430138489
Ni 0.9695468117126261 7.978343510544759 2.0509542395810727 -2.27101762714736 -0.18685697912898142 0.6131921631270858
Ni 7.476867264362213 0.9251362496412077 8.928661573023401 0.022384024122154997 0.5811132803146701 -0.7216258678511572
Ni 0.47604584592219407 3.9792329135509457 11.023739614652454 0.5157249847168474 -1.8559199637362878 -2.093789172247078
Ni 1.5984729916888074 4.338669844227923 7.019902132467099 -0.8230355758489116 -1.689699429910735 -0.11085285568852522
Ni 6.824534762992418 3.9513948463405595 4.992999424332377 -0.2869921912896864 -0.17437504461188677 -0.40827729805512913
Ni 4.427733038520414 7.792107771946314 5.484132757851371 -0.08303377659372797 0.23090640403971202 -0.0238418396146041
Ni 1.2505902554626964 5.026530795254854 3.833272061620958 -3.2723309250966737 -0.8955661389184705 -0.6160342605615713
Ni 8.715009527898394 9.18938322770989 1.072279521148359 -2.2236273107888542 0.4714354187708526 -0.7597296167014141
Ni 1.7514706366614738 0.1444963275245716 10.624940215563415 -2.7079102749463364 0.18518550496382946 0.4168097610061725
Ni 6.696777586316526 2.687630388502379 2.8691010693087593 -1.209255379883369 -0.05811413053391282 -0.3314733044211968
Ni 5.99342414571164 8.77535947828559 10.654564946686065 2.332421484176138 -0.6455505248531334 0.007122984198026442
Ni 6.566124878235138 4.255611851724961 12.635763879526785 -1.3168195375182934 0.3543504661296865 2.24348496894473
Ni 8.855736078361598 8.770313246704312 4.491277383844028 -0.3206150215504543 -1.8179380851758755 1.4130438446603664
Ni 7.668651995621993 5.8299895531326715 7.697353136019805 0.2051038411543113 -0.06074231218537926 -2.2942909958530033
Ni 4.457507666928045 8.35389672695457 12.447197750218386 0.5485278901794811 -0.0340257221261414 1.1236810962559745
Ni 4.775867155286552 4.132621594919209 11.011611900154712 -0.16798688169735584 -0.8127753315734841 -1.9430047704709374
Ni 7.793457778550162 6.420631407901794 10.916238123268508 -2.3144916391705945 1.4036950564556148 -1.4509822715773528
Ni 2.8818172004779714 8.193525252807781 8.235580286115244 0.2769306932886263 -1.2840469710729627 0.4180914559320735
Ni 8.048273852624092 3.5556287724345106 7.00311363654945 -0.7564000381075489 -1.057268216048379 1.974173482764258
P 7.967813459034742 1.4002175391209282 5.85460157007938 0.02640625790767065 0.02654124082363816 -0.24158033881379037
P 1.1849613137349337 7.347434217419476 4.012108832991278 0.3254821198347685 -0.9513400513549809 2.257764618792195
P 2.389260308271196 8.96244246240783 0.9567049902734003 3.4221537342904935 -1.5788002943653068 -3.114010105734172
P 6.470190615848578 0.47351062662407095 2.6538951200307697 -0.09029225792835419 -0.31086102748748395 -2.7151103922392017
P 3.3269655849137485 0.26304832124029315 4.84392331578413 2.025914877002608 2.233198242306741 -1.436177345354036
P 8.577848856947423 3.7085519342842064 3.151037379495443 0.7716741906578001 0.3560041996830256 0.8696036534164377
P 0.3759796322888208 0.3263012513452832 8.910402035427078 0.09976934418085398 -0.5038963675130353 0.379064938157231
P 2.177337202638151 2.746732746579814 3.315497977093336 -0.2131197694802523 0.24454327809685628 1.072901808820578
Ni 2.7552610641599857 1.0860011744776787 12.860291391644587 0.9063146356842262 -2.6427114696515 0.6372402052152251
Ni 6.076221447284203 0.5981823399308918 4.645722794519442 -0.10037046809996263 0.34355697505860827 -0.363385065528129
Ni 7.739029236439153 4.616473272128757 1.3216983619240084 0.18590284274582822 -0.43228008872762974 -0.80580095713818
Ni 0.941960125042267 2.3779016320181285 8.081517532484094 -1.5900570982260487 -1.0159523880187278 0.17599329694160012
Ni 8.154039887242817 6.0063190363759835 4.075704385461934 1.3911061640470106 -2.0353883637106818 -0.9301235651783659
Ni 4.67406734696603 3.098199983098901 8.209499089567935 0.16517203795638005 1.034274069146051 1.1641389471607047
Ni 5.8166663845112465 1.9274370146803015 6.50422754096822 1.1328925875519134 1.7076377595567105 0.12655869645955622
Ni 7.5098167358864805 7.735388873803949 8.76304276286331 -1.0972164743065427 0.8110174683421129 0.6194718254882106
Ni 5.34072853911736 1.6319066035123844 9.972576058866355 -0.27316839803271664 0.7356849170473846 0.18047113020729563
Ni 9.201970875491977 3.864566145737195 5.20717005820107 0.4615819230155405 -0.18734368895741285 -0.7199335677503989
Ni 5.656090081776288 5.350169274953926 2.2264932706818548 -0.12383409843954159 1.5496054179689056 2.0708844997347624
Ni 4.619722598368364 4.894565322131104 4.466994954716467 0.37384302763665933 0.3081644544919273 0.8444310108055522
Ni 0.6143116602102472 7.448731264659944 8.075998333071949 0.7448257030063882 -0.39523203483539676 1.9599560536132956
Ni 1.259342022411781 1.9915204316064172 5.455666239290918 -0.9131918224200338 -1.832015132094232 0.15184601027143524
Ni 8.412617359026779 2.4056093537633156 1.4381750696259523 2.7821753042084985 -0.8854552757367138 -1.6497421727915071
Ni 4.690025356062553 5.890125364541328 0.12120359289348677 -0.7538477039993404 -1.3177947569473691 -1.17088346497339
Ni 3.502522305756236 3.0515363065576118 1.5961900839697483 -1.3601593379565091 1.0434099700090482 1.1432392208935602
Ni 0.1306303631444954 6.109906439647807 6.241695015354501 -0.4495962114085741 0.44260795301619904 -1.0654895755169067
Ni 8.774651888617369 8.945171688268946 7.070211757877814 -0.2329470886188246 1.9592538853399484 -1.854779679484257
Ni 7.475563809710223 1.9007627462663361 11.201349276571827 0.4327979089043127 -0.46238205031933277 -1.1611089020851293
Ni 0.7727484352378658 6.596262611867252 10.897951585540106 -0.07347544348133153 0.2050755590195371 -1.6888424812270786
Ni 2.3818306167548458 5.883114640591689 5.501956569178315 2.025135318524106 2.1480183659042877 0.48619895023327236
Ni 7.065487665803383 1.6040219843501418 13.429846143261601 -1.3447463458355484 -0.14682258891491487 0.26106081613590526
Ni 4.035700431153284 0.4695108829205319 7.10373381840992 -0.32256546040860573 1.0997567242298931 -1.7334678332459372
P 5.306829407775215 8.842897050039484 8.447325563292196 1.0180270111595693 -0.9833299739980162 1.6540040333916546
P 4.341304684703019 6.930775627520081 3.5787520579608367 1.4301573644122016 -1.7818549663000733 -1.3985160833578365
P 2.1503556913419306 2.506105707431846 11.460038473040248 -1.162814057701694 1.2281553021116653 -0.31180256546514684
P 7.186597223754119 8.866666476657583 12.656939431387423 0.891168266961091 -0.5286792308846701 -0.056972817840618
P 2.5379937944537763 4.662922809691505 0.3589108936209945 2.5035227431327596 -1.2184205913224049 0.860216298664267
P 2.911526656153002 2.3637032867017944 7.380614586624953 -0.12056648343186331 0.31243968482851353 -1.6635068306757672
P 5.467889850809484 4.283086813710864 6.652472231656304 0.5843209886186904 1.181774915074913 -0.3480216956981813
P 4.731801077658875 1.3868198873765318 12.052868269546641 1.5231119996640672 -0.5989117419486717 -0.12464579570755953
