# total energy = -340861.9070845912 ev
CRYSTAL
PRIMVEC
9.35120854129084 0.00000000000000 0.00000000000000
0.00000000000000 9.35120854129084 0.00000000000000
0.00000000000000 0.00000000000000 13.68643893482767
PRIMCOORD
 96 1
Ni 2.1741840194902635 4.57345162650039 9.539379082596176 -0.8800734425995101 0.14536965851847222 1.344593365197452
Ni 4.36571453066517 1.6292984540064712 12.895786825689363 0.566026818295193 -0.08211255033103923 0.7350336566166309
Ni 1.8136668799118147 8.702730202580922 0.4908664395998708 1.3766511649639452 0.5799909937847688 0.24585222671626694
Ni 0.9617063311718007 7.971475052582346 6.577798062904052 0.11965219914771005 -0.6292813553794647 -0.08841278151745419
Ni 3.6979073300360263 3.0728351520477544 1.289512943573495 0.24019862797491534 -0.9030948431953478 0.028217085864164305
Ni 8.818470109632578 1.8776478481632022 4.009771067142224 -0.32753514570905523 1.1528248076994663 0.15987325145128595
Ni 0.5150664319614269 5.594650345865018 5.581603539828138 0.8478971149772817 0.2096043001278261 -0.2630811890000437
Ni 1.9595083269811864 4.594791084195459 13.049102693677082 0.3964934180463236 -1.0206852747180228 -1.3991534598315194
Ni 2.4953138690548506 0.012338919556811751 9.978550171613273 -0.135014026315761 1.5218953536481468 1.8513724535749212
Ni 2.326505854019181 6.904043958614551 3.6743161013449126 -2.8679884433195766 -0.47889418904174297 -0.571659591100938
Ni 4.62190023750747 6.587888951948202 3.3732006432372748 1.032850449325647 0.10892221432471565 -0.13146256151907681
Ni 5.217216870190873 8.803171532599652 12.239631230795565 -0.05514013550725343 -0.4009085163948838 -1.1065665480628748
Ni 1.0752861090702739 2.319146452964834 11.51984814332999 0.19855832672630966 0.21622283388560828 -1.4230328375522783
Ni 0.5042078087030942 0.07229232232648754 3.1993560673275634 1.129494617613958 -1.3244099482710414 -0.7722485751040313
Ni 8.265991362883055 8.371024136253354 1.4283166711593835 -0.5222000509182297 0.8442955136689524 -0.3003963805107343
Ni 4.983548873309014 4.8350890878721495 1.8734959116090344 0.0054309412075841945 1.1641389471607047 -0.1746216134050541
Ni 6.7662539020252215 4.911469758535308 0.1549205353586545 0.6409297382516704 -0.018310882494045885 -0.07369861523573114
Ni 7.252638307412451 1.7618050778185383 7.081130598495728 0.9618916016185822 -0.6888085642108203 -0.44333686076242357
Ni 4.1233031538775755 7.317301913881078 10.617624849142562 1.2849820812927224 0.9201985927551701 -1.0649054208786628
Ni 0.1220061518375738 0.7342484718251289 13.185145944526957 -2.017476516427268 0.11035457589586802 1.2420978803346867
Ni 6.625882911902219 7.069111490268088 9.275203703249637 -1.0781314326506335 0.21265439980805956 0.8073207362168161
Ni 8.728950991089675 3.4301167735006586 5.835651560417548 -0.22198647584226283 1.0038867151034452 0.08003355631482346
Ni 7.275745143505579 7.488017575441635 6.944443984504127 0.11678079113718597 -1.4399141866886491 -1.5349570719281114
Ni 4.9184083552091655 2.2811898978446377 10.602774194994646 0.42806707908754665 -0.4256397005929767 -0.265743052102923
P 1.9707204259191304 0.23479294725903488 12.167339843589923 0.09034702242568957 -0.5232439188017117 -0.2694050743355425
P 0.35610056382499533 2.167918709825191 1.385807012642286 0.9556667037547927 -1.28767659740575 -0.40306104396151227
P 4.883612508546872 3.5180648890230644 8.71720774351147 0.40300396547133166 0.358654235711363 -0.5741245077016629
P 4.147634998278352 0.34376912523494785 1.325264483739924 0.31277855622517103 0.28377265591112416 -0.4341626504623233
P 1.8743001155361931 8.71596216254522 4.782137869993827 -0.3742176373672587 0.3456364832954563 0.3787407220485929
P 8.402378738204087 -0.046603617578842536 6.601489349525638 -0.06031088107491548 0.4193356127518198 -2.4854365750550103
P 6.2523021341116705 3.1717241814628996 1.5308554772346454 0.43851269990090286 -1.00352444666802 -0.17437735860473194
P 3.001606997243484 6.265627606160519 1.6804346023236139 0.4546391731491203 -0.13596687714733358 0.12252386426855029
Ni 0.845542814377119 7.807941119115484 10.109295962873201 3.727335452005013 -2.447753201571623 0.33438919251641125
Ni 5.20844543665977 7.471802579980087 0.5579781924421039 -0.7726506956384565 0.19471735571366466 0.46115974787645736
Ni 2.9248803318674774 2.71271076322443 3.894421105483156 2.3011843805387273 -1.3394401031312868 0.23241769847791585
Ni 7.23126144488356 1.9518403360478134 12.632076201403057 -0.6656136141515957 -0.7610887018324699 -0.20365271053008152
Ni 7.4325929629268765 5.363179882970163 11.309090607163697 0.11090839151680898 1.6963884118951367 2.102203107342386
Ni 2.9302946815631157 2.4201208018655187 8.764809135032495 -0.5715297503912932 -0.1609772831487421 1.8684646331705175
Ni 3.7700986593111963 5.312552440392992 8.086125543848956 0.8960340796938246 0.30333155187965827 -0.8585905901353857
Ni 8.804274975197384 3.553309593691214 13.023755308038057 0.23797128130629336 -0.8915202509838711 1.1075916468932796
Ni 9.206442397235884 0.4950623268337787 10.816789692186777 0.8370396034374875 -0.7053968075868045 0.46335469864524714
Ni 7.8587181810279425 1.2940108748405104 1.7412296138542693 -0.4619789013436431 0.9917220547164532 0.951801821482748
Ni 5.873297655417028 8.812532092263442 2.492984483028627 0.2738903638004057 -1.702561630585384 0.3227392669823087
Ni 4.722706264655958 1.2060908129434706 7.957500606666697 0.5272962344942145 0.691791558098544 -0.25108313609790306
Ni 5.671161933446552 8.004157526133733 5.019446292327346 0.5142414581927853 0.5035286997609716 -0.33399015730577963
Ni 4.53271776246896 1.1786450161270683 5.298951107694709 1.068314960780844 -0.5999029022173475 -0.12347877198265185
Ni 6.844775999424652 4.707482497290676 9.28388068957534 -0.3149223420410512 -2.2619192643905173 -1.805236064228175
Ni 7.739097522467324 8.853742867926094 3.970832635134218 -0.1753248101196658 -0.10803826905786554 0.6412333855350182
Ni 2.037731185710046 3.7164975324452283 7.081226915942818 -0.8436853908887793 2.5694340011135877 -0.9170819015030593
Ni 2.683815529097451 7.637571452267775 8.536095408390272 0.3884178401270407 -3.168232614523163 -0.587849313486923
Ni 9.012909787044315 8.75966035965699 8.425782007605248 -0.055262262907414504 0.5857366380192944 2.0567801991228967
Ni 3.036608570491795 6.6000735765655 13.282401317824954 1.427205480872729 1.0541818638135716 -0.010333777825840267
Ni 0.6316685204326636 6.818012840825489 1.0940885839114118 1.0517663123935435 -1.9936115368842118 0.7636675183032396
Ni 8.360083222360615 4.755313928539704 2.384519816155221 -0.7465457710212885 -0.044396523837504184 0.8502175355803422
Ni 0.8790481942725766 6.990224695738899 12.55108070936719 -0.2104555923845279 1.2711094370756884 -2.4959989239518885
Ni 5.404212985672164 5.6347950837637635 6.074588963263988 0.3470747584038797 1.465429043130302 -0.5237864215687431
P 3.085823980592212 3.143128186006492 11.57444330365476 0.8775020823279079 0.7426780605357661 0.8469704893979542
P 6.860972292469288 1.2593085402627702 5.0782438857319425 -0.7646103418324831 0.31220622866146874 -1.7434192880316943
P 4.610173822104483 0.19614346759229848 9.955104821774064 1.5848285028372577 -0.5483186023821525 0.48566287522414425
P 9.19005908002214 7.192379120126286 2.971421296349669 -1.0996489950074353 -0.6189905149764179 2.45395701638949
P 6.9507906496827605 3.2948608944027233 11.084906605897237 0.12726497849796145 0.35159450065110415 -1.0268338108179218
P 4.830039435306269 7.296991089116094 7.820280973793142 0.8304966601126471 -0.446550996824347 -0.4170820408309526
P 1.4712162750690687 5.7887066237300875 7.691052883665514 -0.3661929672905694 0.6662946993790203 -0.1331350641254933
P 0.7440083280899599 1.6957574924985221 9.216188226688033 0.39950109452439586 0.5385908335714272 -0.724288759395301
Ni 9.269750078478488 3.7268212665799156 8.26455595238516 -0.23149827198744005 -0.5320437764815289 0.5876307697182138
Ni 6.973308359643203 3.6914269425764807 4.346484705597623 -1.5507534155304195 -0.2468377305579878 -0.6202557548420866
Ni 7.942589169663823 1.7248678044199734 9.288438468576471 -0.7023042847044098 1.3997553550815764 -0.03266895098793083
Ni 3.626997116319237 8.71040754472275 3.600519169577962 1.4355353408946632 2.6024089133777117 -0.21766008055276706
Ni 8.650868400487647 5.9701481213889105 8.654961424428546 1.518188851330837 1.1825994678587375 -0.2854811539617987
Ni 4.635973806232745 4.304660490660302 12.939213837755927 -0.9434619341584848 -0.49965019064217175 1.0240431354466621
Ni 2.149870877506398 2.0143251109463476 13.517493503754562 -0.5000314852409905 0.4367748912741897 1.1685031376666715
Ni 5.227063692694338 1.5590428248815553 2.951644425587486 -0.24118438892695235 1.7029280127858673 0.047488018278634345
Ni 2.412331245222226 0.2954383394544053 7.730196107138692 -1.340874007364336 0.9976309640017206 -0.980266504581344
Ni 2.7621038462854983 4.928124260794256 4.6275493025353365 -1.237731890056507 0.30458804999457867 0.6975703695638502
Ni 0.8462834300867812 4.16923628981017 1.2675488251536093 1.43084616294911 0.19756305269257587 1.129650426465532
Ni 6.363272924851105 0.39210178125718137 0.31596143665132437 -0.9851788542812968 -0.7563303612118781 0.09593377248484768
Ni 7.447947647210534 6.21958225572646 4.428644423086178 0.3699267233013887 0.3800864374432099 -0.44936352657247775
Ni 6.952342950286345 9.605280789064286 10.737544746373752 -1.7337498832627303 -0.8852071642816497 0.2761807024964792
Ni 6.332825390120542 3.6945689486174724 7.083306624703283 0.10509744126198674 1.529571639246482 0.3270898306415206
Ni 0.6874260359684315 1.8032215800672078 6.696349878338226 -0.22427398632485893 -1.6589942875173944 0.6291646272959422
Ni 4.869707261573792 4.726287777494351 10.681499213617558 -0.24425788564595355 0.5360595825091413 -0.8228825952108151
Ni 0.3384875626993758 4.449875406763166 11.183066241052867 0.0749276025468258 1.9465649770183702 -1.6206383134470153
Ni 7.711913559487671 7.868069389483275 12.828874253587228 -0.11324963805547593 -0.4546818534615976 -0.6891824026104711
Ni 6.524020198198278 9.183485180478042 8.165890416852099 -0.3812516613959047 0.17984095282246448 1.3217306016666657
Ni 6.849442252443862 6.505355186121434 1.8931633732322906 0.15608241695028605 0.6985440463310292 1.2521434374961469
Ni 2.293047230166 1.234986047070449 2.2352558267911973 0.22199624603427573 -0.30267412080131745 -0.776500922622482
Ni 4.234040164405627 3.5699547447417066 5.859931038050975 0.8417197825219761 -0.3023558182299502 1.1854618770081973
Ni 3.765731644962556 8.360120627194437 6.237471117501513 -0.6305252550888948 -0.24457413133479172 -0.113415731319695
P 8.841633052976437 5.666074876046851 13.296019482698457 -1.3186614758230388 -0.7475132771408803 0.10147758512121233
P 4.728709740484282 4.467652054036754 4.030916019701423 1.268073478462842 -0.05820771868898362 -0.44618667150639285
P 2.5128193312832336 6.16478417417821 11.104355249242639 -2.491476867711819 -0.9568087877790361 -0.12672736082693659
P 8.318283320565277 7.742697737722627 10.556158420844813 -3.7010335808856905 -0.3204550989338223 1.1093528525587604
P 7.91680788795247 5.475198009056596 6.482143616493606 -1.0978764764880447 -1.3053380192412551 0.5255044327011144
P 2.9732167283730933 1.9673259372498448 6.5395310476631385 -0.000478482298315305 -1.4068210036791062 -0.8223416351056805
P 5.1614556141717225 6.417248100055287 12.364957996755628 0.6458431163928877 -0.3408930550732 -0.26452614897668636
P 1.1231268915277572 3.5468479086485787 3.6424948740922605 -2.3390145640126234 1.5491480187165128 -0.03941475435219663
