# total energy = -340870.7936549304 ev
CRYSTAL
PRIMVEC
9.21349807063465 0.00000000000000 0.00000000000000

0.00000000000000 9.21349807063465 0.00000000000000

0.00000000000000 0.00000000000000 13.48488574103147

PRIMCOORD
 96 1
Ni 1.0902700752331953 8.581479700529213 13.273685749664716 -0.2753152691723904 1.7477829643170286 -0.2885243116634967
Ni 3.526530863370056 5.179681173415069 13.317983326816794 -1.1133673730347922 0.43719140998631806 -1.6254979555321618
Ni 3.387655807646511 4.749014635255071 5.646431455238286 -0.3867149985033211 -0.7794476639556318 1.1720767139505428
Ni 5.032974644370684 1.8416769066226801 0.1630107351485696 0.9158254033881389 -0.5126738565953494 1.248536951091811
Ni 1.352053194603797 3.042555025640202 1.746602820507689 0.5455371829822734 0.3933222194071936 -0.7877356149960368
Ni 3.5876071417745794 0.31983368502387355 12.64948323605112 -0.788963573865867 -0.31846326531477415 -0.33981679128988573
Ni 4.91049961513078 5.688533455811118 8.977104541652567 -0.18199605149225428 2.8852852827268114 -2.309765694449835
Ni 8.796347687958974 4.1221098026708844 4.066960567545533 0.742634094671708 -0.1150938903530663 0.5764359294436587
Ni 2.443180125153273 2.2806632334988173 7.179730740280776 0.3926077098386722 0.15409881086135396 -0.027223868712959565
Ni 2.5085683206332696 6.832168111602316 9.14459948628967 0.85142106897014 -0.23086398083755078 0.47734869893149406
Ni 3.1638230866388946 1.2230365817664854 1.9206522476394323 0.638947674824635 -0.3830205803708694 -0.9668013802153738
Ni 5.954987818680151 7.278423888419797 12.329257977361207 0.06603647070478305 -0.24870435145308137 -0.0017624912170614807
Ni 3.8639015205337954 3.752252351472698 1.8116409030627545 0.4617338752123725 -0.3124237439889136 -0.08952915451008452
Ni 6.058501468985599 7.9924884123159154 9.075921150665117 0.02400587599629414 0.002278254511215431 1.9151059871781406
Ni 7.603881492637837 1.534397534007013 11.525289061091655 -0.02642836939485771 0.4016885890940179 -0.23178803531371694
Ni 3.782223860546452 6.5531649644238925 4.298725189002456 -0.7806355136161458 0.7265335895654197 -0.5950738562598202
Ni 9.164380866548306 0.3567042614183857 9.638712935895898 -0.22782750800407214 2.46010015317275 1.0711958818730647
Ni 1.2572923674216399 8.421459666839402 8.112789977371836 0.9535632842585449 0.03189093517132573 -0.14618315555870307
Ni 8.956791542557914 1.7394623595386882 3.0678110664250084 -1.1633884421479255 0.8857015874195651 1.7390185878608373
Ni 4.741395072388795 3.5486708991229703 7.362073236984388 -1.6657087234230925 -1.3429285759005194 0.5731166352624387
Ni 1.8993718312522054 1.2472404410768916 3.916536392048256 1.1156569403999173 -0.938013509449404 0.3221597403297548
Ni 5.2059764967770406 1.3961766366432091 5.676975122539362 -0.6238069625284547 0.37655219903770637 -1.9958147151831178
Ni 0.023678689923008703 7.840124795484477 6.251957287006382 -0.10788683108166582 -1.1959303806396888 -0.3222918950322449
Ni 8.115221419500507 5.680010970138441 5.764289600618105 1.0232728329395409 -0.7676421866802715 -0.5827050502818223
P 7.175297205031378 2.623902888904174 4.061579884699214 0.40177420682928866 -0.5856127108469205 -0.5836969818814464
P 6.474546185780689 2.173325981513194 7.069208382028077 1.7544146107009335 1.7938643320561234 -0.31642540894913895
P 3.551499443016497 2.658803619421044 4.892302956532359 -0.08961657201756824 -0.6545794678246211 0.3939552250055022
P 4.890957785820779 5.2386107067798795 2.9412157608685394 0.629332006111742 0.6870622709436749 -0.7473926924026161
P 5.4928848252605 0.39929826278572783 1.7335085971152455 -0.5962365091093539 -0.6168804106119505 1.2360277628812066
P 7.795577532535937 6.892949558070056 0.46465236832303436 -0.3122669066960751 0.16998025797830082 -0.9208495960756077
P 5.950178372711353 -0.01151779388044871 11.409818133049988 -0.3041440204786246 0.6756763977042363 -0.4288373815946679
P 1.5270451625834487 5.612724794065392 11.090590696196129 -0.860220412429325 0.3852039611754334 -1.0735872649233766
Ni 2.237958670155181 3.932882980243354 3.719792276582522 -0.5685958645739497 0.5651102200181944 0.008023384525108762
Ni 6.046385719083359 6.504757245803081 4.338019836727218 1.3500806135642685 0.5270458090463053 0.2811197916693094
Ni 0.9393990450817294 2.6627654235715865 5.452924041628564 -0.984541220697298 -0.5397126058806963 0.0361831347887764
Ni 8.334428964499814 4.750719132389606 0.45075288520324797 0.15530722934715835 -0.16720912299106688 -0.5434918704174704
Ni 7.469935658357409 5.69375750919102 9.706825562741745 -1.0388012675924432 0.16880243562011574 -0.39672481733083936
Ni 5.172476217959896 2.496305154762638 3.2641921700685756 -1.1737263337388237 -0.9588345599598134 1.073831519723699
Ni 7.822591508743821 1.1170721409865154 5.596456520603503 1.2567583105603388 1.6296112063695867 1.3073295957499873
Ni 2.118901848682372 6.707859596255533 6.395611384155244 0.48305989038365843 -1.380819694519338 0.8731944560914897
Ni 8.242625670183527 3.8633947781424465 11.399218924922584 -1.016411072822701 -0.024716528910073563 0.45220331001411795
Ni 6.284545429519099 7.47047004124283 1.979850815146559 0.9983107636775645 0.7692977200058235 0.26776136808453244
Ni 2.3107729450429386 4.701279501990048 8.2016154691266 0.8521885432637839 -0.21297475926195578 -2.25009964604777
Ni 3.961951566510705 7.987697393343166 10.815295981972572 0.7285228520813066 -0.27668720981925254 -0.18278358039055617
Ni 6.841593520081398 4.492805682189301 7.419074385212667 1.3325114943322536 -0.30416998862055356 0.9361360899210329
Ni 7.127340947813768 7.039130917727042 7.254639243269508 -1.8699509879080571 -3.452233070174377 -0.2354883669834396
Ni 8.995165761830027 2.3601388674583013 0.07041600135197612 -0.8762689812517553 -1.9654911244989117 -0.2319656985421618
Ni 7.076464011722385 0.05309462506588415 13.47531117638384 -1.946621027067286 1.0659348905844417 1.2680727071318934
Ni 2.464638362052373 5.723655310280578 1.6833991454093047 -0.9184972937933472 -2.5039791139438874 1.9003249722142237
Ni 5.64158146987818 5.652388903060938 0.5451221387193634 1.0685381325352437 -1.0168820989218488 0.8710329296637966
Ni 5.091305300363901 8.051989182558245 6.132859004792464 1.2140962529154382 -2.1175721335992885 -0.15404044681959278
Ni 1.012010623012948 3.9898131845368443 12.469095843628311 1.827068329611918 -0.9191876349921524 0.4944892152665226
Ni 2.774847627039836 2.641058422225824 11.428387016968598 -0.7562709687288524 -1.3986464382881139 0.09848842058590135
Ni 8.20889505391577 8.453485785972623 11.794595922949078 0.9042865495106039 -0.39205775087247313 -1.9570039129635073
Ni 6.703602960168206 1.8040858346826507 9.067129630850122 1.8799350957039624 0.10917675353768293 1.9791233705703657
Ni 1.4855383539829994 6.894239447793488 3.8657930516782284 0.07455145015432967 -1.2717139034289067 0.4055614417858628
P 3.984414074694478 8.165296781263756 8.202182099255108 -1.2396666451853746 -1.5178507512651278 1.1808243782361858
P 0.40066370319296124 5.030367224429746 2.2543356628937596 0.17817950595964152 0.6098566709959496 0.28409070137217524
P 1.8943781153229171 8.457392309135018 5.294287875342036 -0.5998658783318249 0.9013225817862737 -2.24351016575571
P 0.8472659075361644 0.8391681641224163 1.6440639582932344 2.4009372696593485 -0.6349570656080032 -1.5260957648827393
P 0.8912557538542208 0.8567125070607016 11.609961107936966 -0.10205299800870811 0.2779740469514761 0.2236479227050858
P 2.985938080279545 2.8549866328570848 0.10097717429929903 -0.6407551603470191 -0.33256987991948533 -0.6929572962718711
P 5.361150230505955 5.4767796307136445 11.27236656277123 0.2965757212130634 0.4443367627818477 -0.17367364766948798
P 3.0033608050439065 2.9371710352357767 9.152016352199404 1.9812141916611232 -1.4384234610757356 0.8595326423336811
Ni 7.171961918746503 4.55483095089035 2.4468996143057704 -1.6589102124440205 0.45708429225550307 0.8908412226389755
Ni 1.3651824292887338 7.873901479242356 11.056931945212963 -0.26077002436836383 -0.17409787969110016 -0.8259473501790678
Ni 6.862720071051616 0.13264120296015663 3.768418355106516 -1.7512740081894227 1.7190079490668653 -4.2708044396043485
Ni 4.0146435617129175 7.390708788844587 1.7844417355445779 0.04901602488738655 0.9386426583929706 0.4668477994001701
Ni 5.456860047984638 3.8162769492450668 9.836724828689805 1.5660766761510514 -2.591728036625098 0.3583996964983957
Ni -0.11743432447069131 8.730885784494781 4.183051564004249 1.4595813261002735 0.9379366334648814 -1.6235344040478876
Ni 7.848527505682837 -0.26444489894988465 7.665577839459409 0.14533443440516258 4.109906860653605 1.167406305058067
Ni 0.34975083445928273 5.930793172867769 8.083905661064975 -1.4608766478729291 0.5525220989405387 -0.12716316281277454
Ni 1.138078916482414 6.170878504390633 -0.42972123326268297 0.9864183831153528 1.7969949072653053 2.168423411923201
Ni 8.409371557431236 6.165626810516658 11.849478887981519 -0.1937007415236922 0.1813990413382037 -0.11987305690926452
Ni 4.424459953843434 -0.16560986294128582 3.9542131495199135 -0.6355224511931701 0.012079813982669519 -1.0858105464624461
Ni 4.727528757861897 1.4560367333084963 10.331742122452242 -0.125646469057932 -0.18473581902092057 0.6243121842996474
Ni 1.0606394655863487 3.560353614618058 9.864921818044039 -1.0198311542478438 0.6284010096570403 0.5858384537044813
Ni 6.0006130608975585 4.181002482043597 4.97683956495671 -0.2798635506647051 0.308959439589397 0.25155621907957965
Ni 8.394758949564352 6.559282727112172 3.5387037369600476 -0.27515560366607456 -0.2628292208902377 -0.6379344030687724
Ni -0.23503080650661415 3.1028481567126414 7.591114348425264 0.4530612871390391 0.25329197082376376 -0.9829432800825587
Ni 1.6462862540167478 7.682491057783015 1.7458611339167154 -0.6003384470928693 2.350746507737571 0.46266769988055156
Ni 3.367164988039985 4.858452564790284 10.438528407255998 -0.27343322165832906 -0.4864092664718655 1.1921732275901018
Ni 4.742215073712977 3.5374672855251577 12.247889890907487 1.6360906434463438 0.9815119469526707 -1.2431980553774007
Ni 6.939579071572136 2.145307734020638 1.7988433543067004 0.6763011757724289 -0.3976293314229797 -1.525061152970638
Ni 3.3518797948173114 0.1387423813519918 6.44682737697393 -1.8517889722870495 1.0477319944231698 0.4235095416238513
Ni 5.212057405473222 0.5862152612585116 7.914306353479073 -0.5867928471979508 0.740506249695428 -0.13188062289310187
Ni 8.552272911791494 8.60282737545202 1.6692269427479927 -0.5055254184760261 -0.8829798176130276 0.8896623718395258
Ni 2.418644579913984 0.6853027471129822 9.96413000072263 0.046085481504152884 0.15264202381016936 -0.48920945492482204
P 0.5321384773032141 1.1047076266376135 7.450021603727217 0.025671436624175144 0.14976110271794854 -0.4827719268295944
P 5.143748531119453 5.616050866852244 6.663609929293185 0.3056792261762284 1.1978129423743822 -0.34191404013854665
P 6.903471372814054 3.102341414321293 13.013913015563064 -0.4487078952663498 -0.34821375710432934 1.0039813316997805
P 8.477164475895632 7.668643170252167 9.372144325651362 -0.34095424732843865 -2.3793705992321668 0.03111214802377222
P 0.9616588563089625 4.648412450325369 6.190802693868651 0.05225175821586485 1.291107991684802 0.2693109719598394
P 8.060078633823771 3.5120196039814418 9.371374998566315 -0.9830355826860488 0.7697396926392486 0.5685770955208724
P 3.4876406882085695 7.373461120542691 13.186586867439749 -0.7922065062831969 0.4183066572666731 -0.56488936225664
P 7.227970773237543 8.231164078641028 5.3189643871011 0.3804307081565061 -2.741814898113581 2.541504107472539
