# total energy = -340866.75941243954 ev
CRYSTAL
PRIMVEC
9.34993415837005 0.00000000000000 0.00000000000000
0.00000000000000 9.34993415837005 0.00000000000000
0.00000000000000 0.00000000000000 13.68457374660616
PRIMCOORD
 96 1
Ni 7.997082867772728 4.889463938712136 8.413959968856432 -0.8863194235092219 -0.45018807935630206 -0.8719963220183305
Ni 0.8644173113652072 5.6283144387970605 13.164505390255519 -1.368303307219882 -2.3428537352530556 -0.16679877492652564
Ni 7.205704437371221 1.3766188615702422 0.7640579226789989 -0.3874001974958038 0.7309013796158123 -0.059459331707897606
Ni 7.726823019819568 6.772232138081944 12.31180541642551 0.008485411763191838 -0.035830122324731845 -0.847873717938514
Ni 6.510022583472068 2.7329109661970428 3.2897575171974953 -0.0014310760195717289 0.5680117099357056 -0.24812662457274043
Ni 3.336243520036227 8.372641674648172 7.964202889176912 -0.5067855161353724 0.4768900141275207 0.877681802438882
Ni 4.502610411327184 7.887239840830894 3.662046652084381 0.13595967805848197 -1.423472239082542 -0.9263052198735401
Ni 0.439972373542763 3.1965461532045993 0.10763737746485356 2.0922166855536353 -0.4637527054146142 0.5991637100584778
Ni 1.0068850636992914 7.595727592448825 0.7189192453579998 0.11048415949519681 0.8592662760461718 0.1724228059815224
Ni 1.178549855549146 8.531431607109287 6.065098484778778 0.8111380530803772 -0.01606373833108201 -0.9595896929582828
Ni 4.695639802816303 8.636347218729505 6.146864594321597 0.7413858240869038 -0.025655238674259038 -1.0583362523015774
Ni 6.639126474858931 4.821125269669076 5.016450070003465 0.04891883718788994 -1.9734625727401627 -1.960632767965346
Ni 1.389278672472459 5.527718496775678 1.7709476613453887 -1.9446235370212832 -1.330929237446798 0.9031076987111543
Ni 5.041007672170875 9.277266508039082 10.479592311256802 -0.3464970315235388 1.2840690825601497 -1.2626947306494316
Ni 8.023851729377638 5.796070958152731 0.7502789246534471 0.41005907254590024 2.447692780647333 1.4840682554980442
Ni 7.6377274968600215 4.049961397000649 11.361699698122003 -0.5787270394706807 0.2465384541500141 0.2699352358073997
Ni 7.3827360914499325 7.023745367970892 9.668479909739917 0.8985527323506203 -0.08696987842334054 -0.1931556676534996
Ni 2.7754344669232487 0.8788938144818265 9.841329338252482 0.3999196701190532 -0.7920113595532553 -1.3313892078023521
Ni 0.6389903978848154 0.8985997357946126 10.434309644949174 -2.04129984409911 -0.21220034298977647 1.077944513450808
Ni 5.693988376594085 5.229708044126963 7.0621025380190865 0.7724879448083469 -0.4995972259170492 1.8730139431040969
Ni 9.311711665619413 4.998250423089754 5.858133016369603 0.3818155043191747 -1.2209988935725424 0.1818487272811126
Ni 4.034777103865347 8.902932542543397 1.291093143486964 -0.8447824806076999 -0.8946225440582786 -0.42853784807637807
Ni 9.209516884850409 5.560677014818746 10.294042867124972 0.5517384266969788 1.2701699559805544 0.3090316875882291
Ni 4.563562632354918 3.9227555422557 10.792914216145892 -0.4003498156779363 0.5315629801903684 0.8596874227439902
P 2.6827205194296124 1.5325664140355866 0.7691863615858423 -1.521783767770947 -0.3411295965640383 -0.06094542933512084
P 7.968668417749215 3.9385195313111936 0.11683864770774256 -3.0924547481609 -1.4626921038151133 -2.307674102028129
P 9.274657876398226 6.610281927862373 7.863662111767289 -0.7695070078031522 0.2938562653993714 -0.5535256005043887
P 4.904928729873338 3.1645413284495856 6.150599893033145 0.9759010285237967 -1.061953023118558 -0.04081934800920712
P 8.06099901794079 2.0551435862186054 10.279318590752142 0.6343893660299913 2.172848023353458 -1.1456110635598464
P 8.965193754358657 0.852164222600543 5.901062304239942 0.2306958306908027 -0.6197577321597455 0.11460203831831231
P 4.107743990335731 6.531293683769368 6.707972845328867 0.15475752749127542 1.8511212567960635 -0.04833185433616837
P 8.159781072728029 3.3835261372685097 6.73851721036237 -0.12557962037573855 0.4388140331914055 0.776308604106018
Ni 3.019916546296342 1.1696767679965583 2.855655967336787 -0.3769000692954283 -0.814564305153107 0.4941655133785167
Ni 7.1661355158511455 1.908330919463354 7.938667283892536 0.4418955003302067 -1.6308700184773524 0.9433269512425173
Ni 1.6962931117525148 8.235281791365697 2.925255942502971 0.61838270618909 0.20958475974380036 0.37507612871281204
Ni 1.5062556992063114 3.065759273662346 2.3151287914831067 -0.28590281488024955 -0.003536038177716491 1.0206112269469778
Ni 6.56589779023104 1.7253059575646117 5.659036452580299 -0.15820331994803075 0.14186524490963953 0.5998165131511283
Ni 7.951548688235213 8.442579182438852 1.0105100331873194 0.5707036549455718 -0.2599868663454361 1.0856313405721045
Ni 1.2336490177697994 4.6898521935485995 8.044421584610191 -0.7944233114288576 -1.5728276217216397 1.2309092107077189
Ni 0.0407526231893669 2.6201788095884537 8.666276358092869 -0.020162333880487857 0.9551478551368455 0.5404497411570369
Ni 0.8808544956828566 0.6450332603560877 7.808554534605859 0.19871079314377393 2.4086192116846386 -1.3593129307958138
Ni 1.074662736690555 1.1276488137827732 4.182224631152548 -0.8025914490619468 -0.18095064094687544 0.2091600135015559
Ni 5.296934071000626 2.893683084707841 8.888965610840494 0.9190349114643721 4.164322459290009 1.2742670088680634
Ni 3.385583122791765 4.532006604441341 6.726953211747996 -1.075067449013329 -1.377844413941098 0.46338915142760834
Ni 7.8772260613063185 8.541464086502254 7.2661798117549266 1.0838922463938105 0.816008493798801 -0.09039124540006367
Ni 3.5185485370018292 3.293476921020909 4.3509413887502095 -0.19608903925021068 0.9334400311461084 -0.06262281703754377
Ni 7.314977118327063 0.4541739885940018 3.0797131154573747 0.019087098538438093 -0.16340466164331213 -0.1048369885117485
Ni 1.7743650622942515 2.643796743369103 11.885585861092549 0.7050527939838245 -0.485686272262912 -0.38478641402204056
Ni 1.599465193212368 7.335350624941486 12.059872374491135 1.0095719384136805 0.9546657732941043 -2.09364159092562
Ni 3.301031667851774 6.476811617205691 1.8135618564333018 2.3741083223919626 0.6193795228847204 -0.33587374748173765
Ni 4.2016079797355514 8.505046092806438 12.375179270410168 -0.7424847135780375 -1.026747678862019 1.3973665431344255
Ni 4.203477966574874 2.9523352219232075 2.038741931650903 1.197494382692699 0.7546534877300873 1.0791290206772124
Ni 1.0118405288234975 8.324012666891575 9.057039092965427 0.43712044753906654 -3.3103721961401122 1.2921896547847551
Ni 3.048910692240046 3.5729745039603262 0.3078895931208591 -1.034237816591477 0.9485925705168307 -1.2217247159949733
Ni 3.070509040234227 1.4726052860326935 5.7593855563388905 0.43216207509252663 -0.6455271278143656 0.9567254840366103
Ni 5.084064119146287 0.8367994757352453 4.047061982406279 -0.3501171447746293 -0.0004900522625410916 0.5176846795463794
P 5.136246101897597 4.743614315179136 3.2635515216312223 -0.47828355204093753 0.576272150172285 1.197500810450602
P 9.05186764436128 7.927809205310007 10.824538498579106 0.5509398420550834 -0.6142152050749615 -0.03904297283507469
P 6.402919087249842 9.201345042362567 12.622678573548509 0.5376438962771256 0.597450584022113 0.31357971197022766
P 9.054560425409905 7.219935037218468 2.5273489229107797 0.06850730084277878 -0.5321617901166319 -0.047589833963821264
P 1.438702424635767 4.606001983673354 11.173838015263351 0.6246523412478856 0.037798558905012325 -0.0324303526145635
P 4.310366414310579 6.590488117168138 13.41156618148004 -1.7506250617515142 -0.5592776724968175 0.9522031706862247
P 3.8653656461568757 1.8706600345851914 11.27753907043143 0.6013512046280999 1.0277324113727915 0.8344646436214597
P 6.251496902935659 8.876088881464915 8.640795917420254 1.0306197602229152 2.4008267122234135 -1.2410082468149335
Ni 4.7387429994626995 1.2617268701622348 7.894699218332953 -1.4449959720869308 -4.028475652660307 -2.47077665904999
Ni 9.104180526191342 8.799840168091517 12.76156343109845 -0.6621467386489177 0.4517603089394285 -1.1064282227127977
Ni 1.1425713087605711 2.8377798281462785 6.406036355310993 0.042277934832604606 -0.17382148610126194 0.017650366091911535
Ni 3.1344625901390746 5.92255686796454 9.241014943171965 0.22123288550568998 0.08020967688137152 1.2820543661229662
Ni 5.340055967515415 6.204868781097138 11.51795018845532 0.4032165957027701 -0.20589034161134864 -0.28310314064792536
Ni 8.56210874120838 2.7086104872200396 4.709436565716829 0.35808602191271877 0.11278298283170254 -0.4338610600615044
Ni 8.634187383930087 8.305583946590046 4.45356252651858 -1.094644085593676 0.8332803935053713 0.2592006229987149
Ni 3.1490952371567773 5.152318638781579 12.351408932702112 0.4220008182888087 0.10978121989090125 -0.6053780663993058
Ni 4.583702390614427 1.4318676227380411 13.311094593583473 0.19108258717455476 -0.9380662170642102 0.289444766595237
Ni 6.009277507638146 7.516122252698843 0.38036934801960026 0.1600568282170018 -0.19856192627073543 0.09348993893004544
Ni 5.185819453008051 7.3080768668899605 9.23978355683827 -2.796512032546145 -2.8128264534354526 -0.21081348994457885
Ni 7.4416780766253945 0.09226234567193957 10.510628482829045 0.1780553216769514 -1.554876693670174 0.5762590375461624
Ni 5.578086592292844 3.4823549417267317 13.129075684604285 0.5700657642512569 1.2271870246611252 -0.5000070597609583
Ni 8.585614475778671 4.721772868895843 3.171208766525192 0.487650080857502 -0.48288659803058775 -0.05515684767780178
Ni 6.115848057611165 2.003597398992666 11.284764699578576 -0.4003503298985686 0.11195508761376848 -0.18786845111263129
Ni 8.39758729908474 1.8479770942242029 12.390012941013097 0.6258178223108964 -0.04071059034548472 0.3038707122125799
Ni 0.8032341469628165 6.6839687592658965 4.634458508400752 0.028550815054499218 0.09852775846426903 -0.7950321486574501
Ni 6.143177915267872 4.288150970659421 1.4836812180820038 1.2431471475348075 0.9896088650281926 -0.44691686480419807
Ni 2.0674106998845643 6.5124722662315815 7.217066477406947 -1.3702979690524077 1.4843809016424567 -1.166726505382223
Ni 1.9521447111086925 0.27377261823082993 12.857423631449247 1.1168311632136767 0.2812966835668058 -0.6075025689414764
Ni 7.61251072433175 6.528311054760647 6.064565538529571 -0.13084472542941983 1.5188210855981972 0.285085975405909
Ni 2.9623770512503724 5.88626042341328 4.705002826920794 1.7103577295910353 0.5409732177606748 -0.3306839757506821
Ni 0.46643455730602323 0.8022570788392702 0.8498061691961566 -0.3094330367917058 1.0544135202084033 1.6797592879788878
Ni 6.895024823886091 6.414830903416329 2.8650704160793588 -0.8547599035353861 0.897268466321558 0.7139264423243705
P 2.9696606499895353 8.047413563553109 10.357566320056776 0.8399693754897728 -0.8253778508288431 -0.4892343946254865
P 8.714970815388842 2.3230566006884166 2.485337798578548 0.04040437195897558 -0.7198662048475731 -0.05450250192325452
P 3.007191285854749 9.017375737109965 4.5849206870402455 -1.2752684535493843 0.34502404652243807 0.6344011931045332
P 2.5353655564909574 2.1656598084225966 8.136956948360671 -0.47963955184819973 0.8176804821845852 -1.4595052214466993
P 1.3891290735253132 4.690450589337182 3.9663234306316677 -0.25304411647901576 -1.4224278569784277 -0.32951335248134866
P 5.942892974842177 5.07643457284185 9.45240012547588 0.10489818076698708 0.3495419889974496 0.297806508296371
P 5.306190505855274 1.137662593307348 1.8795761318350834 1.5493989583850543 -0.2023969837461095 0.5912552538446785
P 6.393802901408142 8.129711684351715 4.747588972206118 0.8799333174772199 0.016192293489146307 -0.28259097689819723
