# total energy = -340872.3117453826 ev
CRYSTAL
PRIMVEC
9.24191920656420 0.00000000000000 0.00000000000000
0.00000000000000 9.24191920656420 0.00000000000000
0.00000000000000 0.00000000000000 13.52648294631560
PRIMCOORD
 96 1
Ni 3.3720897706197928 1.484437041669616 4.645941368460622 -0.31848306280911604 1.2323780819437615 0.8551769364681466
Ni 7.2036045803283555 1.7289782203682713 10.395007439515734 -1.3047335528880368 -0.19883703430899305 -0.7914729705512821
Ni 9.352452426148577 2.2939182495251655 8.267427097868655 -1.4677890587220463 0.16771640164478857 1.5601176303541389
Ni 8.575345660809333 5.55055796707226 12.065906667847122 -0.914150072568245 0.9856136278258704 -0.5349709774306528
Ni 4.1500745182710705 6.077180999748253 8.915832746566867 -0.738545012203999 -2.2025069838704714 0.10601146843582387
Ni 1.149528378265161 1.5716345481330256 4.911993113804067 -1.557398431650763 -1.0385158751415404 -0.9739099662356969
Ni 6.658451499908947 7.560961865163613 0.608941730060226 1.8599421975218033 0.07263726385075232 1.595743864198181
Ni 3.368254374204073 5.9511674331739455 1.209683105326071 1.3404477184601946 -1.67440496564551 -0.9278432537846213
Ni 8.46262197386347 4.457525440106603 9.441863372230216 0.3609941966984493 -0.05512496599860183 -0.2947247840472537
Ni 9.292010275404465 3.4591116806207958 12.944546080325495 -1.349104365693928 -1.478711362061505 -0.035804154182802854
Ni 5.906565931722709 0.6853529927723429 12.479965898777234 -0.26809638282644793 -0.09344083085966488 0.511001611099249
Ni 8.63454015247845 3.3662119100887136 4.291290117530239 0.8677390894038732 -0.6315038169520802 0.6064664143674782
Ni 5.739425825269 7.37771309376388 4.5560572361223945 -1.2820024298391082 1.5907104155393315 0.9293170101166704
Ni 6.81652528375104 2.136482158099179 0.6717793862283249 -0.29347471369023653 0.4153956542674652 -0.6255203456751356
Ni 2.148071524618004 4.826971155090682 3.1460703219373873 -0.22446861883416827 0.5091969537903425 0.3247015329150021
Ni 3.73507538417113 8.708198247498418 3.7823293163966114 0.5416555885396801 -0.00893484059578461 0.7921111183559132
Ni 0.595760905076854 8.413325577522631 11.695172629344123 0.13373233138986002 -1.970492177257929 0.1992278419895085
Ni 6.425795429139485 5.284353730064093 10.634074629546847 0.5199269386133368 0.7218544389221955 0.3083791416058947
Ni 2.504412198355119 3.193702248652996 12.764225148888412 -0.17948974013063282 -1.6108735207507674 1.0905694013036702
Ni 8.686415044240944 5.695582161181832 0.9983869579204921 -1.2600043283014624 1.1208207439890439 -0.3705047072920458
Ni 4.197004983328961 3.561123983359865 8.358068143379045 -0.06588811805237685 0.07727142018865402 -0.4097968200234491
Ni 0.7739423322483002 5.298327511704017 5.22169536712603 0.28070507272939405 -1.0963458987761314 0.48974167327920815
Ni 5.563653766400151 0.7949797126364994 5.280130173047265 1.1059937062785405 -0.40866861995627685 0.8547871572288956
Ni 0.6333265335370363 3.748855085510499 1.7136967071793738 1.978601693738941 -1.6961017338926532 -0.3232434603122369
P 5.839645195707707 9.155211389270773 10.504937294325519 -0.19244784295319758 -1.514067887183928 -1.0488432252094775
P 6.262148768095754 8.303402192056197 6.572098704848902 -0.2678842668156418 -0.5603176837255576 1.2641394335157585
P 8.470875007596574 2.0153852924722524 6.1942770386080355 -0.17717626150610777 -1.2558975052219403 -0.2141710935629021
P 5.911011294797315 3.415138629666593 9.728868396498287 -0.41807345820994446 -1.0865479388491028 0.4664351373427838
P 9.17346417944197 2.5655197672725607 10.423886588238242 1.2401482128074837 0.43419350370025867 0.9054029225032343
P 2.9786150660432527 3.513592793562163 1.340244620276705 0.24052053009070834 0.22809001763683945 0.5264580548636353
P 8.291701922508484 7.1986324278665315 10.325670865854782 -1.4274062840296255 0.2928553349386827 0.9531868747557325
P -0.08413565867418554 1.48842030879052 2.561307300558621 0.7451887427727617 2.7443795735169636 1.2315733266542788
Ni 7.381077152306824 5.937286070724762 4.720580031094341 2.213641660331052 -2.4037433716495764 0.2841639778122719
Ni 4.516479641879797 3.1803384336719582 5.955845692609216 -0.17307046686785033 1.0941856579000186 -0.7010806967099539
Ni 6.4553141186619145 7.322760642949738 8.737323231268293 -0.1333687774028542 0.10243274994563004 0.48307480278199383
Ni 2.3385289928954758 7.20848431359944 7.607700098304764 -2.0474758910028354 -0.08365084135243658 1.0582521772282034
Ni 3.4796287409651274 3.4311548754218752 10.614515032018582 0.4197387617275094 -1.0301222517612065 -0.824564096678296
Ni 7.959722947450495 4.03025303747636 6.616424797111732 1.176248585940045 1.8455815579247572 0.18413058133675386
Ni 0.5231508436798828 7.224537527031019 4.080439430624028 -0.5026768932836375 0.5820301357019848 -1.067429215741781
Ni 6.210689762691593 3.22966255577002 3.9911236763088525 0.14735146483519138 -1.1440817713995137 0.6440651985568585
Ni 6.464971924094269 2.411124267221928 7.510200624649541 -1.6317614199433703 0.6712559000390376 0.16667587619541618
Ni 1.5194823987983122 5.202276246767693 13.40575850656318 0.2928676762338569 1.071767952326451 0.8134813565015733
Ni 1.181995239972205 3.202149362686653 6.572950809787527 -0.2760061245918279 0.9808486023370592 -0.14700719412189522
Ni 6.69914366959187 7.5034216770087445 11.942599135177689 1.2696243678897297 0.468752986842683 -2.1541139372790643
Ni 6.318247216875076 5.999243896197014 2.536796806982404 -0.21721553681618075 0.05521444038861459 -0.4643893105573486
Ni 3.2060864202121873 6.4641678771348285 5.052681923676015 -1.8878196406583618 0.4370021767936474 -0.5394308129742194
Ni 1.8712668064319335 1.1248062447421487 10.925637768302225 -1.5877238221071819 1.6683379335158235 -0.4844837673143785
Ni 1.2668637828289604 4.410354685152788 11.181220267718615 -1.056492000003987 -0.8671011987095582 0.05237542827792271
Ni 4.67900803071557 6.858280274127476 10.958209063694804 0.6797850205559712 0.3200663481358359 1.1138075458960044
Ni 8.994207917082214 0.28602353246240886 9.606453633211403 1.4615613326447796 -0.5460249212519693 1.1061672557419273
Ni 0.8564800631145872 0.2919189526397283 7.174717113878682 0.1765442843490637 -0.7365264391120734 -0.4004932832343361
Ni 8.871697037836963 1.0943633633123162 12.149973936320158 -1.059375492199369 1.3408691222683293 0.16094360169732927
Ni 4.408940671534462 1.3704010022152429 0.8454063956800926 -0.030934227685011244 0.8078884357948282 0.42585824436168596
Ni 8.310398324795234 7.869170624363215 6.013630791619546 -0.08832253579649305 0.7001887810233037 -1.4694818730434371
Ni 2.773980493906229 4.94986095301797 6.878865724672956 -0.07639415979002326 -0.3831352515718627 -0.31751118581414994
Ni 4.268130792522644 8.310010164194125 8.585015480736482 -0.09372545197961923 0.2077983572673389 1.4078833835053495
P 5.003547260918971 1.30963538430354 3.2532405397116686 0.11751047021435893 0.7043166871487484 -1.7730054863292433
P 2.9061769043410584 5.6448902350608146 10.640472810121793 0.3879552986683254 -0.5253604509240823 -0.6622943199703756
P 3.709022414301459 1.597262389725292 11.958899107848543 1.633276056815684 -0.5079911064076993 1.2247799578815295
P 7.607966265574095 7.8826083746968445 3.5857620154193035 0.9130768941087243 -0.16237133528279132 -0.27884076582714556
P 4.1961454848550765 6.712960338607535 3.1868530624272373 0.46750008827218836 -1.4060455589656624 -1.541242904936823
P 7.765799759520265 0.34335947420574175 0.38468101857760717 0.6877664960995511 -1.5723277992670857 -1.2875935507736405
P 7.266357210840974 4.188077289503454 13.509222714788779 -0.023313735025275978 0.18229069991453767 -0.335824382301041
P 0.9011213048178417 7.38660381991309 0.43550510414138327 1.4137598968907847 -0.4907490314977999 -1.053744776276153
Ni 5.325110593180536 3.653256674608802 1.6839931792754632 -0.9633843841140247 0.4562635961264207 -0.969377368472666
Ni -0.5064007895501231 7.57983386391277 8.1789505098054 1.3394992385039965 -1.0118792463906185 0.5941019792648542
Ni 6.271991411909589 4.825067319761434 8.234246760009096 0.2093703297401491 1.3573853747557978 -0.8285246239879408
Ni 4.468218340475247 8.122667222644598 1.319083398172914 -0.005986299490421948 0.22102616881152257 0.0747342555890971
Ni 1.7805758545585433 4.154103994987345 8.926856507638362 -0.271725494938603 0.31321718642448637 -0.9099157227719232
Ni 5.750137209475791 3.2039977465014577 11.903913386125733 0.6026082169636525 -0.9310010826873127 0.6627339786109554
Ni 0.9988111620059898 1.4308246691212072 0.5823906207524645 -0.8501046641515617 0.5538878689398138 -0.5774772262239797
Ni 2.301607526194753 7.5439659759864846 2.455111181054742 -1.9914117010194154 0.4589732817480999 -0.9469884592545046
Ni 2.4930816055703664 1.8647604954038213 8.192165529889346 -0.057941352401474404 -0.6018880509681763 0.23107301152456333
Ni 4.439318859530776 4.576173197178913 3.6625115323695296 -0.7300912250096909 0.7068685070363245 1.1264717716272343
Ni 2.553606933586145 7.1122944198770055 12.155059764386595 -0.5293659725390496 -1.335757769183693 0.8754796525812407
Ni 4.2262926248745405 4.7878408697312675 12.375135734912497 -0.46769626344339454 2.0534233668355215 1.21250422583797
Ni 7.608188071631872 9.815657410138623 7.8670837990363 -0.5646186250937567 -1.929483853166367 -1.6285557685218792
Ni 2.4451714970906298 0.828218274586224 2.2046542499568043 0.18340270203179382 0.13818239674141364 1.0857280140509689
Ni 4.552319804048859 1.2419383270863196 9.226089515033273 1.0208585670710935 1.4565548805691237 0.4531695305821293
Ni 2.7246471298890933 -0.19748225096563643 13.358145987877627 -0.46228820505394574 0.8365014715458303 0.36427595277351454
Ni 3.553249868308797 8.849054336105604 10.971586741554454 0.6428984319422669 0.8150273608324544 -0.651914005177316
Ni 6.527761522283183 0.0471652098023703 2.222008725594005 -0.2143911799935082 0.6277677469484155 0.6394467259482407
Ni 7.724238849444383 3.6254477401150664 2.2002449303665874 -1.456421440315053 0.23031762141577752 -0.39475072432360403
Ni 0.9378976733891025 6.413346564146775 9.914559807109285 1.0380589901097799 0.14994725058682565 -0.9013506068107315
Ni 3.7557495571397204 8.454775584569624 6.415042456296859 0.5078121576276738 2.2296359788767792 -2.821944870796953
Ni 7.878736010604829 0.7640081934356326 4.323375287979525 0.45634767119979475 0.4868327271625293 0.05374222671846229
Ni 9.291917856213725 8.740655867286385 1.9055977632162078 -0.7558086843804531 -0.966144206247349 0.31780943378085913
Ni 4.6597478713653055 6.306223480159772 6.791430700889344 2.1719453090335303 0.5672491207380682 -0.4827297607377492
P 4.326188528145658 1.3614363407134404 7.015685867220518 -0.2518164147195018 -0.4338512898694915 1.0214098115888732
P 8.999651407416815 5.252228819362788 3.104381873378283 0.4759667309823028 0.18081231559679828 0.81255113137782
P 5.974466311159559 4.7661316018263875 6.0114395326070955 0.4233269932994 -0.08607076364783886 -0.48885361424730006
P 0.6193204051803541 5.6768395492997135 7.35878564350028 -0.2921940472056 -0.3938019872570896 1.1362936428136623
P 1.6358196761021169 8.597720346887543 5.30707498810758 1.06235668631488 0.3589164882338141 0.18884212787981025
P 5.0451543805902235 6.607500800053855 13.249500759819133 -1.2607728310363704 -0.2140834189451023 -0.2147660468344237
P 1.9563109457510957 8.930050514870345 9.152843609604009 0.3135342034442729 -0.0031735126319751795 -0.22456966318840677
P 2.534245113126066 3.5949124394944936 5.004866082770834 0.5965198446777276 0.3149267129164253 -1.4515198892483776
