# total energy = -381164.11413000274 ev
CRYSTAL
PRIMVEC
9.22697356269414 0.00000000000000 0.00000000000000

0.00000000000000 9.22697356269414 0.00000000000000

0.00000000000000 0.00000000000000 13.50460848577939

PRIMCOORD
 96 1
Ni 7.456169671655065 5.97639379304383 8.801911764791816 -0.2773148161009224 -0.5296197404210686 -1.4752177470859498
Ni 2.4899080319196902 0.9240075824529151 13.022263942301032 -0.27789382853284395 0.4000407690779497 -0.4376387819363818
Ni 4.297121519910672 1.0282723832529586 11.229743486946687 -0.9783859997291796 -0.5724772019062269 -2.8623618411614187
Ni 3.86606499787743 4.695763683960678 2.6864720942562816 -0.11481441143943452 0.07825281026531684 0.901005821876803
Ni 6.520296201252693 1.2194183667373566 4.6143494830881835 -0.806610597523669 0.018896322683870682 -1.3779259179113108
Ni 1.0258549161901611 1.8084775833635132 3.492170499511123 0.112807922532367 -0.3783666265386258 0.14463278035244767
Ni 0.42583128692766026 2.6189657105736908 11.95118670618157 -0.36545583201422865 -0.9981333575594359 -1.761650209217424
Ni 1.9567458208905837 1.0129463802327043 8.882372819299475 -0.329965866637735 0.570215916675876 1.099014960967862
Ni 4.197045765089674 2.757527171955483 12.916212799427106 -1.7542616300628369 -0.6968003241670451 0.5598859955047777
Ni 7.0599542016413785 3.8934598822646276 7.907191518995486 -1.3775999020304597 -0.369849333096234 -0.8522178538398226
Ni 6.023248364589195 3.965356459949047 12.620448622056767 2.297918822413578 0.8266106947946795 -1.976782638252331
Ni 7.511393108185 4.799318007799518 10.770302948964677 0.4616338592993985 0.7134389611649906 0.3981466373790304
Ni 8.030336553016507 2.4649859764364233 2.6811647390863538 -1.973017257672628 -0.7427788477796885 1.28847621048891
Ni 7.097351125326561 2.629263013024385 11.125717664760868 0.8114404148121445 -1.1133352342452763 0.9437054176278588
Ni 1.9307903443728383 5.601917072648276 0.9860229941924878 1.8684461212277566 -0.7315420985236046 -0.3436809022309823
Ni 6.973617410394828 6.0448856174985846 0.41005685299423067 0.77581700918158 0.317979126589504 -0.9604684960188105
Ni 7.692527825397889 5.590217270222218 6.0677288358473165 -0.304440725783437 -0.3083323475283593 0.3292359304502459
Ni 6.936026720265681 9.080753672722572 8.063237172504358 -0.5386489405028723 -0.9065491202925356 0.8725123424228005
Ni 0.2465991716550335 6.676490409035272 13.18202345265256 0.2528803372076419 0.8515133715736303 -0.1959640836365722
Ni 2.661400561801956 5.901784485143906 9.81429899042908 -0.7400781610190739 0.1312355331099353 0.024763065877292836
Ni 3.507311040363582 1.3017691054223464 4.963173371697519 -0.020469580708261523 0.22928506638620513 -2.0412116552606783
Ni 0.4029216343695693 2.6822073870943544 6.369502541072617 0.44366570485675205 -2.236761019957335 1.1112562402290604
Ni 1.9377290284614783 8.357091366355617 0.8382354819859202 -0.19920315939916014 -0.45503126638121627 0.10575384389906303
Ni 5.364774626156072 4.092688694554409 6.3142689548718085 -0.8966832832420493 0.12256397347786632 -1.014427209623453
P 2.7659421718076636 0.023593371296080606 2.669442791923843 1.2238317350356471 1.267043751646747 0.9351909523989442
Ni 7.9674731824102505 5.127050880331972 3.3957200225869695 -0.06883485938552661 -1.0959759170312222 2.5067358507534183
P 1.8890382891852102 3.1153492051435965 13.310615169143693 0.43156866448290193 0.7375543661559556 0.2159613526941055
Ni 8.898936159469045 3.287589119881155 8.789947148225673 -0.059556262297078076 0.26036970360615164 1.1708898927312932
P 1.5155488549565241 6.964150535561125 6.368827126610797 0.45204261606653756 -0.5976362176703578 1.702396051541797
P 4.69871631548776 3.2444622456387298 4.3229468961017545 0.09404478299225094 0.1099030901807462 0.37290534631373845
P 7.869547312419909 6.999582113886097 11.890767560861327 -2.4727849477292705 0.257561287623079 -0.47734484227675217
Ni 2.6650636702902406 8.08008839424782 5.087956193518717 1.6655344026287573 0.15707743387370368 -0.9372213525654117
Ni 4.95492168927668 1.5502422753997243 2.861720925059406 -1.1546664888938953 0.44137999414636886 0.57040360720665
Ni 3.671080593407827 5.788320391742301 4.9801353171232465 -1.4405351081020996 -0.4099482579996488 0.6257345185684707
Ni 0.5474649426857569 6.99929607770691 10.811005897262838 1.45386010734578 0.8903118324980667 0.5372322626610038
Ni 3.168644204207406 7.017427080677892 2.791686350631752 0.7158838231610574 0.5951548460094008 -0.6817290316562195
Ni 4.128323266296867 8.206387207818704 12.35940370065549 1.1542473990786057 0.21597035155517 0.3110052663748321
Ni 5.532004294271115 6.217365433547718 11.590937978957138 0.8643100091176664 -0.19625307563190073 1.4438759995498747
Ni 6.99746913694953 7.8096550272877785 5.52212866451038 0.6754393419927658 0.15636138164328556 0.2236697770819567
Ni 8.518738715489773 4.609998965072501 13.086776173075693 0.040230051164640394 -2.3292168611959108 -0.20605334955177418
Ni 0.7902173890794153 8.517806791164038 2.788566710883921 -1.2437845240084902 -0.5227176139845966 1.5215264003445024
Ni 4.439798211483333 9.040035038569423 1.246090779097771 -0.7387818108051534 0.12787201595434106 0.21670208751487194
Ni 1.3902004196584188 5.590900066262855 3.6073508099878433 1.6285046035689694 -1.7090328401320243 -1.7075416002984785
Ni 1.8307699513929738 3.566243720249412 8.547917173858796 -0.06265932670243402 0.07390430348863401 2.1680793983202205
Ni 3.1113354716614707 8.247401105124561 10.25699349416578 0.7678170216952389 0.1234887992849809 0.391723507461506
Ni 6.40440541381477 9.020114002735149 10.569611661371638 0.44888607271542696 0.9304500952798491 1.5431105542731811
Ni 7.811814139091957 1.0154653440042452 6.392028351532187 0.6777602768164586 0.3990516656918031 -0.8576215413538971
Ni 0.15827950379857908 6.8444305541115185 4.7305835139411325 -2.045078594415252 1.8587911146364955 0.7958502736833714
Ni 2.6965830118418292 2.498433755454136 10.998693611071143 -2.8245473414168063 0.6139845771213942 -0.5736773928619152
Ni 9.077201287916553 5.949976967849979 1.7123980307749493 -0.5609249782922534 1.7377952569766975 0.432958602851893
Ni 5.933488366165936 5.65158587111789 2.3189848063037397 0.7342330150922064 1.4119824932753875 1.9890231461825807
Ni 7.493714226916603 7.643901674936275 2.96916349554047 0.02440002611091927 -0.045096121007690074 1.0569457997119538
Ni 5.819120029359163 6.074688741975057 4.488540621811325 0.9655888479645113 -0.3044191285168822 0.7808728264379327
Ni 3.1727871153188416 5.242618723696623 7.4972721479067355 1.7374872388179754 4.1262125397921645 1.1998759955509979
Ni 6.443149475634184 1.8660169902475015 9.239664301510064 -0.32865229003263396 0.4928933315343124 -1.413611030017746
Ni 5.949257263915253 2.508352751990423 0.9449804932687116 0.21154933966933887 -0.5089845806692201 0.32376616558492627
P 4.6415367605711335 6.8412657021934296 0.8055332424287952 -0.8932860846350422 0.2821978552248366 0.0597624647706132
Ni 8.801849944069218 7.523628075075341 7.103383720615329 -0.16657637450307441 0.8985645594251622 0.49854590183439945
P 7.3991100673942265 4.036330340281253 1.4749732388929675 -0.320638418589222 1.7356406725275397 -1.2029235241280702
Ni 2.776184112417225 2.490987587821779 1.6398380336942888 0.6935100834515476 -0.2753492077341193 0.2935919559943912
P 4.674809227091926 5.15643879099995 9.351347589021898 -0.03625769678045368 0.7268431503860385 -0.832997829267946
P 4.993776474778359 6.843212593606598 6.554110291119235 1.313459362796809 -1.1827676180054856 -2.828505811843922
P 5.676461791733547 0.9005618427331885 12.585984030556915 2.7739156353028678 0.3091551005399708 2.544774036473062
Ni 8.178088080026338 7.866566999972263 9.502436512354684 0.7490806216280003 1.4314493437507476 0.7303259667283164
Ni 3.0812001761382017 0.7266398507225463 7.0222075756597055 -0.03876220836986227 -0.23537215312054946 -0.07627100394859768
Ni 3.9851483181540113 2.885145442740032 8.30349741334969 2.383463795464934 -1.208105582549642 1.41065606115448
Ni 4.625527961510242 3.5107065666197252 10.573554347157643 3.9093595285217253 -2.4719053733377945 -1.1521462935752027
Ni 0.9350707237059463 0.3379646634711423 5.3197755989860065 -1.1866425275798596 0.11533274583674977 0.9655474532036146
Ni 0.937931085497806 4.829056543461336 6.76614614265773 -0.9967863566132381 2.155126180593663 -0.34717785964064724
Ni 1.2953379048774236 0.19402479922330193 11.012630031878965 0.8757668448043563 0.21667329115946557 0.032473804257989236
Ni 8.692851705852322 9.119045612839402 12.24361533262366 -0.39710739748123863 -0.948521093848947 -0.4707625610735441
Ni 1.5870302188324477 7.752014123695046 8.642192853123785 -1.0794501514620571 0.06409940158307026 -1.4059560845756498
Ni 0.4226405994837085 3.668247912536534 1.8603276383737577 2.011206881368472 2.7595225998059894 -0.25487654170206425
Ni 0.5048879960652507 1.6307937542478994 1.114932118572782 0.7041253970735486 -2.7895284021394606 -1.0783733734581105
Ni 2.870280788395884 3.444715251989468 6.578689103187479 -0.8347778039865043 -3.391025645427121 -5.1401034172961735
Ni 6.752003960340365 0.43838827519392387 1.7325598906181505 0.25562858937674043 0.2618622289912781 0.6799688544320032
Ni 4.880764503079339 4.729008469560904 0.7366169771920231 -2.956397368182289 -0.5582361186061806 -1.5945755549216922
Ni 3.5595726183929135 4.8568943225775945 11.69730007083876 -0.1730982347819922 1.7567877389188 2.5411750062678946
Ni 6.15666117474564 8.08498791718807 13.406659659232874 1.6485193561279996 1.389053138172724 -0.9952526935775312
Ni 2.5555487215561072 3.42005155176482 3.907544857346156 -0.4671977265404212 -0.046707174248551815 1.3307831987872372
Ni 5.257704825405301 8.406095822731638 3.9978501699045723 -0.9877859528868409 0.18732723389718062 -1.020036071169798
Ni 2.2318295825057777 7.270965859118918 12.41389543818512 -0.0062030434869183495 -1.461143785491387 -1.451075345511791
Ni 8.816225568816693 1.2145834326117617 9.769827746144479 -0.7596049181980917 -0.49987773327194557 0.5674586656457131
Ni 4.664281250303178 0.4197783922971445 8.914526976629384 -0.5436741616316056 0.960599622280036 0.10189744626745031
Ni 3.997733910038193 7.733781624015322 8.022884849200038 -2.3857921864877945 -0.1138330213627717 -0.42362961214148326
Ni 5.386125842886274 7.214625958792805 9.632107784747907 0.6321977576953112 -0.20079595780757678 -0.8393978192570188
Ni 8.366761234606807 8.31499791314767 0.9169747832343494 1.0286752349020347 -0.20670178176905046 -0.0868858033499665
Ni 5.274664002738972 9.146523539988298 6.3119326851760045 -0.8183903637674165 0.9270935201027903 0.45878019190068725
P 5.8755245184999305 2.0130303593755627 7.069054765626253 -0.13737069947339567 0.03925148930145498 0.3240538720286742
Ni 7.529856282202776 3.325161356063259 5.3914857918052785 0.16391142607640158 0.15441428521924375 -0.234271463857203
P 0.5280034101328851 3.916010605552708 4.713878078379319 -0.7772681398058098 0.47520131357118806 -1.0254857814304597
Ni 1.3353737429899357 4.8045312478395195 11.757948967799706 -0.6902360406859661 0.3084035670859269 0.07899688752019299
P 0.11469589436680876 0.6025370568499284 7.761098079127581 0.9280150034757954 -0.9196213800954613 0.11190417977117503
P 0.20932681211239854 5.302612505537497 9.703128722645076 0.2850787763170574 -1.7962256331994486 -1.1828948876119691
P 8.347919754674622 0.6161163937824438 3.5210426223592126 -0.1155122088374075 -2.4128754158578314 0.9373833320645727
Ni 7.991574037250049 1.8117623859373906 13.160011584618172 -2.6232775292966046 0.07770439396101456 1.3150421339028964
