# total energy = -381172.0687147984 ev
CRYSTAL
PRIMVEC
9.17920705467191 0.00000000000000 0.00000000000000

0.00000000000000 9.17920705467191 0.00000000000000

0.00000000000000 0.00000000000000 13.43469737297792

PRIMCOORD
 96 1
Ni 7.298258827515452 5.910114918921062 1.7300399888884748 1.1777670794671007 0.028572669431370146 0.08551489114436885
Ni 8.324705270880397 4.917484673452404 10.920729070928394 -0.006811623605194721 -1.263286855707476 1.4834555616147096
Ni 5.8076015372419825 2.7314106750837466 5.295138353883564 -0.2203247718691238 0.30623304179716937 0.7113653664654137
Ni 3.210097131135172 7.645756059806365 9.627801074597354 0.177668627761494 1.2155923778449904 0.6924466751840397
Ni 3.627530740128529 8.709754638240177 7.191673549694464 0.1823799171942343 -0.6805501808567699 0.14810865471619009
Ni 1.2826748223217699 2.6831831224922453 12.193048830045278 -0.5865452499635189 -0.04270062419232001 0.518327712447017
Ni 5.409655384311008 5.224061001774357 12.122207383551146 0.8523556649692675 0.2973833047160233 0.6758787435230295
Ni 1.1570757355099106 3.059548960207648 9.923606521645826 -0.41347966819167503 0.6302002676493083 1.3231138551674373
Ni 6.194863093443513 4.850549897377561 8.831136797442493 -0.23499522939710496 0.16343551488124758 0.1669381287178673
Ni 4.908149420124358 2.528476770878778 8.973101492079893 -0.07123112753184506 0.15689694243178137 -0.8190799336352732
Ni 2.4828102169878914 6.769178526064838 2.8333108857477685 0.20215144339420668 -0.26446727071429293 -1.0171831751020353
Ni 5.812815326711334 7.182453954372251 5.924687827656172 -2.2030592568295155 1.0883978475736482 -0.17903465487108522
Ni 0.7651070820550652 4.04116415750162 0.5573715347666146 0.38624448662480576 -0.1216365765675905 -0.051150554731886094
Ni 0.8653366770792597 2.8149139194546797 5.374040061879523 -0.4402700489116418 1.7797034671747094 -1.9084074921120422
Ni 1.8048340018359563 4.72744755481863 6.572186322429431 -0.40260673003291314 0.4571848223891094 -0.772189953951954
Ni 7.232535706739825 9.17523221568879 11.894852199622218 1.8171104470682578 0.634684528672907 0.7751958306578134
Ni 9.007684153745002 0.06966100049807791 10.26566690974185 1.7634499814303242 -0.30468806590755265 -0.7048129100588765
Ni 0.5066637604944467 0.38277567783238875 12.398868676872015 0.4084958418238384 -0.3639671632838441 1.575097391592423
Ni 8.291531617460967 2.188478950553464 11.236793945332158 -0.249045536842584 0.7309785127106508 -0.18772858310065732
Ni 6.910951375279861 6.658357962220682 3.8207337671918435 -1.1731874305162182 0.3894545089216712 0.3378748370721665
Ni 5.580003104332529 7.719327402406456 10.916013712388947 -0.7417149252915485 -1.6067361015436263 -1.0485699169434328
Ni 2.682430427533642 1.6153843524381664 3.3587149148700814 -1.2464242756241823 0.2735422364323676 -0.19220255971161093
Ni 8.591535633705357 4.457230064679954 8.778956678397643 -0.7468872135211072 -1.9350230378170417 -1.2568297872282226
Ni 0.5455679927267572 6.158467538432987 8.084732349267364 0.2731961659468585 2.349863590911985 -0.2639687338113196
P 6.6155461416484025 2.107986486016945 12.683926190664037 -0.1767818542811665 1.0506183148320292 0.12320623504755554
Ni 5.893509733797723 0.6315789963987942 6.704800159087203 0.2025507357151544 -0.4394082151319787 0.9811509640688263
P 7.996108025415883 4.0337289999837065 6.311728164973527 -0.2642304721131385 -1.2161029989328218 1.0342529861001284
Ni 4.287075108001489 7.654613994380175 3.84701200045392 1.9738238127343233 0.5641540267525122 0.3462882579468423
P 7.647968248648115 6.505083566869924 9.435146964101412 -0.32058853918789304 -0.8030372783501137 -2.830248248456326
P 5.886460102965923 9.236760438951226 4.640546168085807 -0.1894620208519963 -1.5720334079551184 0.4673386229936597
P 4.489320571695539 5.281348431489538 3.4448039418000223 -0.6317820103141313 0.5283164482286127 -0.143321774850508
Ni 3.5631936795815493 6.231561562278841 5.501696208938004 -0.1753176110308142 -0.48804165986896597 -0.6909405229521585
Ni 7.548786919041877 8.86550741943024 2.946376683578197 0.6617070800083378 1.0123749550801147 1.6942816499647788
Ni 6.869571510970291 7.025498697089786 13.23415722045141 -0.7528015221230132 -0.375373862458889 -0.20613948150767725
Ni 1.8625253166508755 5.486072281022893 9.766621890901561 0.46711236591546657 0.16396516213247245 2.0222621107413685
Ni 8.44228173093836 8.365176393715556 7.602143812400057 -1.1072232078102673 -0.14442992031302224 0.9141153626755675
Ni 6.42748255247926 4.296144164331981 3.3399324218908784 -1.5463426880572337 -0.7417486067429612 0.6051988605089641
Ni 1.7951407594422326 1.019259124430962 6.347329718594795 0.33764343778765077 -0.690781628776791 0.4270779757014
Ni 8.575315975268133 1.5314313269334332 6.612342598470931 -1.468578387392561 -1.9468321146368281 -0.8453434953174925
Ni 5.372075711621703 0.9424658802397747 11.152437952648368 -2.159388298304126 0.9732237388019497 -0.2551197680611219
Ni 4.394738024702234 5.699543914648311 10.115682342112597 -0.18022121898001864 -1.269299380450143 -0.6002461444893792
Ni 7.199986239383627 0.3525219300999319 0.7110424718516616 -1.1692212467796186 0.3802574158034354 0.16540755100595383
Ni 5.322517174042428 4.945380282954797 6.549374157659656 0.2942257329236481 -1.0966608589133888 0.3302227198435474
Ni 5.653051232144324 1.425319696183956 3.1444584590622164 -1.6228682312187983 -0.4818411874852089 -1.0460682335675016
Ni 6.889894274852586 2.6516984431262673 7.708331630566076 -0.9493446181915068 1.4156092913946976 -0.5428197840511103
Ni 3.388283893774345 6.315643096678947 12.170048491535852 -0.7380408188740709 -0.7389856992858433 -0.07174560527441837
Ni 2.928873772028621 1.421381816461506 8.828261869868902 -0.49475815265719314 -0.14050076046194512 -1.5700564867344056
Ni 3.441257096287773 3.771038459431066 4.915433120729869 -0.449334215996439 0.27109506044345566 -1.3915910741032291
Ni 0.2335695069408145 7.409162004220918 3.309140772639225 -0.4190319654684719 -0.5321188526938384 0.32630178752258643
Ni 1.4763744444736266 3.580661710145239 2.888688122525322 0.616957543706789 -0.6345881123043587 -0.7655248832269526
Ni 6.576066373148964 2.5576023940940105 1.3734287221536907 -0.11086211165990584 1.259302417138431 -0.13669449934197747
Ni 2.827810705025875 3.963113361977156 8.355575861310637 1.9249723384492592 -1.5791893022736094 0.8916112680357806
Ni 2.0525624352846488 8.310257199357935 4.857811567886723 -0.11267268250608337 -0.04894351977823829 -0.38208649859237426
Ni 7.465219420223258 4.428691910700705 13.243494309620822 0.16241273004368803 -0.6635459329892894 -0.15071112533604367
Ni 1.4927409702198478 5.2706546555532805 4.307445603759208 0.22200164535091443 0.7047558315686959 0.2888241022921026
Ni 5.893353687281914 7.4293837968282785 8.409891981780696 -0.7753935484909162 -0.605854234704776 -0.5942279633197572
P 0.10262628592287 0.44043302958210234 4.703487071276644 0.9426098705708347 0.7984715133563022 -0.08821737767719645
Ni 3.2093903322106287 2.3108377773606033 11.031686404954051 1.436359379457855 -1.263776907970017 -0.7836573311616052
P 0.38738180381077 5.6168759780972914 2.025925295036214 0.5796019858764663 0.5153992259463123 0.7441343333663184
Ni 4.310702386336191 3.1770887034383617 12.966753157200687 -0.026881140661560155 2.027508446741973 -0.8544464860600252
P 1.9980746636472013 7.123312324880999 6.726887166518812 0.522116747175804 0.8421121328643885 1.0007826222568248
P 2.0348373869302163 0.24380432253646042 10.31986278260267 -0.3249802404976855 -0.22214125625257228 2.6132008617868934
P 5.320378418855176 8.476299871384516 12.824735223163776 -1.5491634453354803 0.7623374866379065 1.886116799034642
Ni 4.230925899931026 3.1940059815933175 2.4312910008335216 -0.8578033183474002 0.23763446679216496 0.15340744122128416
Ni -0.025060152518092304 1.3349595843242805 2.520590914306384 1.602290664177763 -0.24815542092814685 0.2572388712866538
Ni 8.059169176215962 7.132675115829483 11.269333315560862 1.5861227961686488 1.008727331025198 1.2509270485905424
Ni 5.883027079618147 7.938829774907515 1.9676455930646306 -0.2463548773842983 0.14685138527032127 -0.02054105737614527
Ni 0.8532862143761529 2.669542821169259 7.841497137553263 0.3173006124652406 0.3241577445963901 -1.1129117735546123
Ni 3.0415577148556605 0.20568674832795888 12.679008889574721 0.45551540510648647 0.7428528955507335 -1.6241087884941192
Ni 5.229550167448076 4.859417011158183 1.150848561608488 0.431676907925992 0.4061617943740231 -0.19482097117106448
Ni 4.594468385729732 1.3508946873503263 0.6381228529352391 1.48456396418754 -1.879294891016802 0.6295816602287029
Ni 2.3418176003519084 2.2906802392009276 0.8153090820318787 0.15444411001591465 -1.014846813659375 0.9562799118587596
Ni 7.528611022468578 6.1669032294934345 6.941855928775306 -0.3879689255150802 -1.3315529870737262 1.004766032384605
Ni 3.854661033490558 0.9119312487788634 5.12333481166162 1.1730218514726314 0.21805757310150187 0.7054723980197463
Ni 8.371904752308927 3.754525066375849 2.301363918009692 0.3973809628575995 -0.0739886356723242 -0.07418763905700772
Ni 8.7717234634296 7.924482674659987 0.9500534125907711 1.1327344647074944 0.5009776512043437 0.676807425984886
Ni 2.820513235610145 5.083508987065362 1.0889302220565333 0.04837144932485218 -0.1711609085499633 -0.38622597468204456
Ni 5.8977229897245405 3.3294910741419574 10.821701951996603 0.782953106005729 0.5012926113416011 1.0338812045830066
Ni 0.1827451567421312 6.715158893974815 5.760167068119059 1.065989397971461 0.2605154851553965 -0.7431781401006362
Ni 6.961492087988047 9.185815841143302 9.538487392314273 -0.472579816787941 0.9169618309854272 -1.523801569531924
Ni 1.3413483122655985 8.759037799615086 8.401508612199079 0.7386432283447601 -0.43007408221524646 -1.1985727033585423
Ni 3.6384081002010316 6.1998657611561825 7.858262958795817 0.26699440801152086 -0.544728571038049 -0.06716544210290369
Ni 4.250743807438649 7.085897877914316 0.8133327988052037 0.2876221115642014 -0.6867776498237205 -0.6909806321614744
Ni 1.4630278777686319 7.481595125176292 11.612750390423736 -0.6088901933176223 0.3436251092923824 -1.8488059783993256
Ni 7.655761395231705 2.107068565335721 3.966150761511326 0.6215773018669876 0.7422342881301282 1.2719663857593448
Ni 7.749077211684922 8.228553079522198 5.351537236379319 0.10708593244692527 1.5052520886645107 -0.14614998832792248
Ni 8.853308253576776 2.1176705492038566 0.403669388378406 -1.0100434787334605 -0.36429189361311454 -0.7200086439627084
Ni 8.32803732295324 5.003548916523952 4.535916061315825 0.4330290510785123 -0.7491163599619421 -0.6774162632134785
P 2.6163309592787125 4.241013848217676 11.589158910995602 0.29871873569799523 1.745262768998336 0.022312033233638992
Ni 3.5868668539503124 9.096548054894283 2.163496821293276 -0.670526992292813 -0.49215465359607496 -0.6657514252810405
P 8.258541548177782 1.8351988179708414 9.02023029361597 1.353605081777759 -0.2517004579669278 0.5075018254761067
Ni 2.139783258414539 7.671687319050938 0.36430068828139633 -1.4757011144802714 -0.8477942708508303 1.7265811334284331
P 4.890048024290623 0.24605598196750253 8.999500890871891 -0.5963406387873859 -0.31820101279232293 -0.43903514806327615
P 3.913545645191068 2.753202112056001 6.657187613352122 0.48255081195772376 -0.6954530661105314 1.2194068664950741
P 1.4451926789324523 0.24612115433586942 1.4095277887841808 0.3850247552850917 0.244462802567908 -0.6549034268229431
Ni 0.3611136676761871 6.066960025721782 13.293740369790333 -0.41406922214655784 0.7609303218777347 -1.6322918385255436
