# total energy = -340861.2814133781 ev
CRYSTAL
PRIMVEC
9.34345531860588 0.00000000000000 0.00000000000000
0.00000000000000 9.34345531860588 0.00000000000000
0.00000000000000 0.00000000000000 13.67509130971555
PRIMCOORD
 96 1
Ni 7.05530863717661 6.531280936577821 8.099620115763333 0.5062890361149279 -0.2799288566850018 -0.3091029071457967
Ni 1.9906699073027567 0.74496304888013 9.76521906042291 -0.022707468899844766 1.0312717919846175 -1.3936510419560513
Ni 8.256363121860062 2.4278782195808915 3.1230761558831612 -0.3368014015023296 0.332539283791866 0.1343925906816782
Ni 9.100955436524 8.750379643456922 9.349906201716735 0.6175406699037687 -0.6889466324505812 0.2728899475603494
Ni 6.238111333980188 4.152315706435009 3.022851711985273 0.14032952499140347 -0.1042985995097752 1.247938912496496
Ni 1.998415631895721 6.870597865791437 4.824298893251539 -1.44452648864968 0.3107643540086196 -0.5807319857158515
Ni 9.058424027178798 3.513139260500042 9.259363446387278 -0.06638974027914372 0.956566332750927 -0.1720528242366134
Ni 1.7662214197609163 7.510736687640848 9.77640504532363 -1.801563500472594 0.26903457837000117 0.908907336112067
Ni 5.5359599981096625 2.2824847088557814 7.641134886666021 0.5030383903881143 1.7460994059670185 -0.8151777703673896
Ni 3.2802723195706736 6.642468056790456 11.257732361005598 0.9757501047682293 0.08428384695074516 2.096029631541822
Ni 2.158132659871752 4.821839695769189 10.10624864502602 0.3697092079739439 -0.6665422966134521 -0.5066698164931145
Ni 5.551610286038752 8.49264042403965 9.847091089066877 -0.2562610807544167 0.6070204870987352 0.3029538568252653
Ni 5.6626759413301455 6.48015354819097 11.101124835013328 -0.08757614454877176 1.8741681113131983 -0.3533150828866367
Ni 0.2886249458521346 1.4101049575941647 5.856960017200182 0.8925764601625273 -1.306405798384137 -0.9253096887294902
Ni 1.3706755754683397 2.3247171276256227 8.161636367166638 -1.5727137218515945 -0.473753525381068 -1.6142828035426329
Ni 4.408550629519991 0.5599233878620584 5.808085335929571 -0.45863698145460363 0.9654996306848147 2.1414638526152214
Ni 8.770243829807514 4.922786388775684 2.160937565206864 -0.9662107978192264 -0.9735083599219041 -0.29130958771811766
Ni 7.505541726393939 7.570824449833072 5.177102166105064 -2.0854577695632472 -1.102687781833759 0.5706049245841786
Ni 0.2714638211719207 5.679933303601804 8.574282603678808 -0.35889463385694326 0.5721375591786211 0.3490020573335796
Ni 4.28573090723469 8.048144216487074 4.570516627230071 -0.2129423633621236 -1.673027882792325 -0.9853454617661481
Ni 2.2205375990230283 0.12318037966683075 4.640724286052739 -0.38030832364602885 -0.850848998516754 1.2144289536645085
Ni 7.802663610659634 1.9939774905426955 7.213009347460046 0.12409917917547014 1.082529047497697 -0.13591108420873368
Ni 5.713083883645034 8.730393992185087 2.7619310459770445 1.471913365303065 -0.6266714285604432 0.4620619479757526
Ni 9.328328425631097 5.563840869262142 10.965126168773413 1.6155814677493983 -1.1564078970650342 1.4001636462635885
P 1.2863135159389383 6.842857146471159 12.072740492583044 -0.6679116661571529 0.2647441785247634 -0.4857819173005118
P 6.094558483984649 6.309205686727914 3.713224687877644 -0.9502691868883054 0.3407156489550713 0.16300099844699023
P 5.154326559026885 7.88953905971317 13.149694267234878 0.9678928135073394 1.455157486000965 -2.0897137166261235
P 7.637471317772292 5.961012474808247 0.7587941660272529 -1.0750679632339615 1.3528401785872766 -1.4967219397063127
P 9.154670962078827 9.19863192011248 12.79103825386865 -0.9766409920136147 -0.4141209013200997 1.1335695590142798
P 7.906161067012184 4.487885910001123 7.508185924294794 0.09484902406110117 -0.526385549754487 -0.41158887892686535
P 2.4852657231393787 4.378931875648222 5.05387600350638 0.1946224820070132 0.5152827549731062 1.1365983185382749
P 3.663139094776818 8.104700152507837 7.0205051998589605 0.09607826848251196 0.20325521798134674 -0.7159807537502378
Ni 1.7909348595056571 7.065380882184108 7.478866160998387 0.013718892247989277 -0.04717845745801552 -0.611416816394218
Ni 3.8733107823451376 3.3500866189176324 2.314482306492772 2.3501677524159654 -2.425222367458959 1.4424775765404512
Ni 3.1173037690875844 2.717151601243341 6.501562207732415 -0.08655258838026385 -0.5690411796414845 0.5486358765122552
Ni 2.318298173710826 7.208475902861124 0.20791711176098215 1.9333729038081282 -0.01864486879469692 0.5266544871451575
Ni 8.868499607635755 6.070611207589273 6.3833553494176165 1.4126381245815154 1.4813156324535715 0.2799838782926533
Ni 2.2457088680862918 3.826686939499671 12.498446076819683 -0.11736108912068821 0.5424060935524594 -0.6662890429520654
Ni 3.026485381821466 4.94824730495883 1.343899100753603 -1.084764621696435 2.488051644080354 -1.6390507545159319
Ni 2.912074769468213 2.3033393014872603 4.235517308793788 -0.7686778270336374 0.5285558179329285 -0.8546891981984507
Ni 8.295904625451648 3.420143848107072 11.638761278518814 0.8740681169456946 -0.6026398415325364 1.1991895110069348
Ni 1.8043053442976136 9.101628165318566 11.759224581332045 -0.42370211725063156 -1.210065020268858 2.141847461206886
Ni 6.693735597009507 4.462387619996058 9.35461063155094 -0.7033265553213371 -0.9263137045139723 0.25890443191453477
Ni 3.466459356921696 2.0755738872500014 11.541380982469056 -0.9425923870693379 -1.3088676296610682 -0.41857636598829207
Ni 6.115254237872967 5.531736756232679 5.797062861499752 -0.9148257584790309 0.6296824474726253 1.5093486273313876
Ni 4.12449089601541 0.8153183342993834 8.268835700580386 -1.121569192119294 -3.4072791311715056 0.4992213306348693
Ni 4.688144191305106 4.831379363814323 7.726180887136562 1.3885702849990345 -1.481000672316314 1.3357189455259577
Ni 6.6619491614663655 0.04024039406149357 11.678952152266264 0.5684071456019113 0.706309806319377 0.3357649898180153
Ni 5.6796810303038425 4.857027149107069 1.0173967207308803 1.034334232960025 -0.5787977448076161 -0.981860074320709
Ni 9.160678803952502 1.1322866523502597 11.018281086999435 0.6342114456912302 -0.5015872597638845 0.059391454584439646
Ni 5.419353673718597 0.8543618317138821 13.57579694832942 -1.5975559777062551 0.07617433046973332 1.146591939415877
Ni 0.6473846715741933 8.630409675093036 2.9715701565830006 1.2292385078735153 -2.0310295725213536 1.5326081120799606
Ni 7.455797169418135 2.1107239667659616 9.894749252433986 -1.1754669705790142 -0.3043556222687984 -0.3304908859032695
Ni 3.389740243974978 2.772277988575656 8.799443062528228 0.17638847549748976 2.688072671395119 2.0517796605845113
Ni 7.924016410434566 5.031095724700462 4.655849471783849 1.5064124275211992 -0.6819619736026319 -2.6870231470846817
Ni 3.724506910369808 6.020623720770988 6.062004016401048 0.3505606600699511 0.29477029257320847 -0.3245544658141765
P 8.948049787592929 6.812528289982905 3.866495665917986 1.798212324612174 0.1038190887701954 -0.2234206371856281
P 7.323101414690418 0.3939752094263796 8.774417551370455 -1.9483747765335993 -0.2721291581349249 1.4914414080336635
P 3.0118441870842227 7.637873086357934 2.383719180291063 -0.5081217184482927 -0.40010658931887866 0.724430684289804
P 4.445905764529244 4.933989191896268 10.168743281349904 -0.20855914669276338 -0.8886622127097855 -1.5410323315879138
P 3.2471123960719646 1.6504466629075758 1.0000291056845572 0.9090559458747893 1.471953474512381 -1.659709311306548
P 6.798429015663505 1.1496187622657585 1.9762697737168986 0.053665864954572096 -0.5439667531713599 0.21677613528591697
P 0.9506498778180235 8.754088995282503 6.720363510782112 -0.4591527447487576 1.5519929443644755 -1.2326125665520706
P 7.670855484202522 6.209286773824224 10.10913390407826 -1.6021155720524796 2.037926813861819 0.39071332102943673
Ni 3.6328849859324057 6.700219955112665 8.899503061609668 2.309245303169991 -0.20376223952475228 -0.6869712538917652
Ni 1.2221239767909722 6.245530037631351 2.5271571057841973 1.7247952451726034 0.3325601097274724 -0.12468384803434655
Ni 7.993485001928763 0.10621079582395793 4.126308198106281 0.013709122055976387 1.8605109255410797 -1.082557072522155
Ni 1.0995845581700732 1.7904770301871347 13.02142170433142 -0.32864740493662753 0.7926693048522284 0.23239301588756753
Ni 4.412773871396975 3.197078191976279 13.423387436884342 0.0037563817186386916 -0.1264666509663822 0.43597836351482333
Ni 3.6561875638996586 0.3485323793535923 2.601098409416695 -1.0630807089650982 -0.35733448845867494 0.27276550616734313
Ni 9.010931242973687 0.40024279936239937 1.3856699528227294 -3.225493653028161 1.9021234588755433 0.7095578809430296
Ni 6.495205854969336 4.736076117917779 12.104876373361138 -0.24361228164215465 -1.3409418844877938 1.5742568979689986
Ni 1.5555825594185946 2.878896159058544 1.958122914483539 -0.5565600164553383 -0.6288308981056073 -2.5349351960057698
Ni 0.22549682324670248 3.709510664324323 6.190782060245978 0.46024906313673 0.5401568925069665 0.7423916396435989
Ni 4.9241598767312516 6.982999635216478 1.317082449180302 -0.8925006126192694 0.09771940363036073 1.4578255197514312
Ni 5.142114662714456 1.4585414308027609 3.910488391700269 2.2668064172794895 1.401702194395302 -0.4823317539683822
Ni 7.772988796054985 7.310618558169067 12.170831825594835 0.7930894231087825 -0.5481381109402302 0.46956956920670745
Ni 7.727374046401365 1.565813643169253 -0.050210795404258456 0.40170812947804363 1.5012589083447176 -1.3350553438000299
Ni 0.061581780723483324 7.521743278196351 0.8521128619798333 -1.2980049759149517 -0.5058262375458966 -1.2248342081582324
Ni 0.9225148646764869 5.270185406979546 0.01073095861884122 -1.0129786501023845 0.8655446528557158 0.31002876139417573
Ni 2.3822821568382304 4.753333480189438 7.618270516760782 -1.2401736667287802 -0.5713690564437128 -0.2203880210068914
Ni 5.701339160106606 8.279946003491716 7.648027553773656 0.21692114550421354 0.7466928381221141 -2.3468808541345774
Ni 0.8202750374315517 3.9402753277706792 3.7591870140751222 0.035719564888796546 0.5188463039546483 1.8751309894470998
Ni 5.256076789204665 2.4619257713502054 10.126829474411933 -0.018414497951445705 0.4453793451137491 0.6331166699651548
Ni 8.172384144005344 8.859286960532422 7.157843717614716 0.40909182353662454 -1.1486948446914929 -2.0951084052791336
Ni 4.711773790214161 3.7424930621689105 5.10172570771083 0.2067966554757019 0.015002386946103194 -0.3201427098997261
Ni 1.7142531203808598 0.17992038176055045 0.9823970708481485 2.9359483562993174 -1.0250250397439573 -0.4677913942603621
Ni 6.9571369504476905 8.519988718229767 0.6755346342444979 0.3012523007531263 -1.0758752896266053 -0.2690618320635108
P 1.303935272974319 2.8008689623446186 10.504357399156774 1.0428224729366944 -0.524981984538741 1.203167007597444
P 3.568162869822076 8.90106154998374 10.529506243926887 0.9483580859085217 -0.33942315539589285 -0.552402799753855
P 6.54352086325669 0.22082322681557978 5.7941906832851835 0.13673100900686774 0.3822369081273095 -0.4029872533007834
P 9.118595880470341 3.521884734829372 0.16136054179497258 -0.01500135850483868 -1.524477512553026 0.049649801816643524
P 6.170109664996361 2.3807124563175823 12.229825469150343 -0.14459858468040257 0.5883632770088643 -1.0934163838341622
P 4.21379564349376 5.487047008671584 13.216305630043275 -0.407325218554505 -0.07969005693247566 -0.7328042530654799
P 6.880623393521534 3.234741661016374 5.0570490409874065 -0.5540303080549491 -1.4339289156394917 0.15771763856086385
P 0.8980901377060796 1.4192428570536568 3.394786644279755 -0.6262716220188633 -0.07855877154150986 1.0766898151081006
