# total energy = -340892.12742001784 ev
CRYSTAL
PRIMVEC
9.06857833220664 0.00000000000000 0.00000000000000
0.00000000000000 9.06857833220664 0.00000000000000
0.00000000000000 0.00000000000000 13.27278105513212
PRIMCOORD
 96 1
Ni 6.465433675992297 1.9364860267761692 11.357411922470249 -0.1066717277276421 0.13257816318075877 0.707517196363917
Ni 4.540410331913563 0.21567073769538073 5.9303848484974155 0.1410959708437828 0.0659246277172671 -0.423940972734315
Ni 2.599163301643601 1.6615902193336247 4.786801784724319 1.3802738493181972 -0.057836708502810065 -0.7884310984011647
Ni 3.6654195069572304 4.3692137148548635 4.969581696568963 -0.9817430891268705 -0.47908445067567823 -0.024473045440699788
Ni 5.322321271421729 4.483305495722302 3.0035375463877134 -1.0970961466785945 -0.657486614169087 -1.3774091261758923
Ni 7.299606830995181 6.202417705839025 2.829212269890236 -0.025359561810711168 -0.19568691871578556 -1.8714535405955124
Ni 5.190736203431385 4.719460337592499 11.604498028362192 -0.10796987771377535 -1.0163434528095592 -0.03580158307964157
Ni 5.535868148129975 7.905578287107021 12.550170257758468 -0.1021779536223466 -0.03341765622849729 0.1573196317914968
Ni 1.7643825519091285 6.676259979275517 0.2481824969822301 0.978970668588056 -1.2928715113431284 -0.6048995841009904
Ni 2.78363631701642 1.5012668273969396 0.3394740588323473 -0.8008428418019562 0.8984622295193431 -0.1313887708583479
Ni 0.4364878934530992 -0.035741986800161635 4.733166586507772 0.4486397610325757 0.20179174606194278 0.14505058461615666
Ni 8.637512292797492 2.291139978462344 1.5226405590817391 0.0902385218722833 0.7217497950235311 -0.3111952708984511
Ni 6.969247599994473 0.6831631927578657 4.655282010496174 -0.014273479199878645 0.3836512719763328 0.38306120380081776
Ni 0.728653900997698 7.071541160775388 2.2658758267797596 0.34402980092996877 1.017235111385893 1.6465758592483835
Ni 7.50591698239286 4.057835017782743 3.9044409263595945 0.6942626453468559 -0.9197625336590158 0.4774996226870615
Ni 7.75838619623512 3.902163806402849 12.753589346463157 -0.814452462165591 0.25084736593801316 -1.0124939971564821
Ni 7.827905915822576 8.835234500750179 7.172411861655017 0.8448197616035386 -0.6122092303885264 -0.9520391343045346
Ni 6.879704459998838 0.56932714579238 0.15391372094732786 -0.33169467640338357 0.20795082368480314 1.993798198973721
Ni 1.8959313455871394 6.701670135065244 8.926940496618707 -0.19600033619114632 0.5260430788134037 2.534391664797474
Ni 0.10373274412275363 4.822914676368093 1.4410124740373085 -0.12168542752765493 -0.5798452122355239 0.013480808095254202
Ni 6.485847045258062 1.8418100715853216 7.210119916183662 -0.777384610779016 0.8554479307413462 -1.0378273337149482
Ni 3.365612315519546 4.230464470178622 0.5345255705394685 0.7783785992611691 0.2571671375084538 -0.5764999499123749
Ni 5.928120424549986 5.789597894325829 4.791898325607197 0.5115582549336674 0.19875013102214156 1.2439233635791997
Ni 5.403503182424456 2.9910800406745266 9.250544543805079 -1.2182897221714954 -2.0026296812224222 -1.6263394775968507
P 0.22971433771535643 5.673601712060874 12.360051145670916 -0.3501564826529969 -1.2178086687700187 0.3038879386037605
P 4.166095702942545 6.16724069145346 12.781475224069656 -1.7311456128706637 0.05853913388647339 -0.32390346249373897
P 2.1310251638215774 8.510162250772101 1.2596835346860102 0.1852775504570035 1.1774624037424883 -0.006642187906865981
P 6.427445402400872 7.938116345270313 5.662991475703279 -0.6555143209340646 -1.3911277613135655 2.1363291024918176
P 4.880744998806026 1.2622100405400496 12.842543935741178 -0.45299418134652947 0.08539173530294325 -1.6869923153922173
P 3.932062908343867 6.1128654972653065 8.294824329892382 0.2183375662357659 1.3452446256282056 -0.7505235247221139
P 4.683929648661681 0.8701291602458145 3.7207722938627756 -0.4359133146048428 2.0549485452307965 0.3453541761683472
P 0.32067036217638734 5.5183385866947345 3.630265164016874 -1.30960270805488 -1.081465382119873 0.5011627706319562
Ni 1.5879624338743825 1.1027028206308715 2.611193677329059 -0.8102744195285013 0.7288167291726416 -0.511619447188906
Ni 1.8835255307690282 6.339280686273917 4.759114508977846 0.8211653554093923 0.8682666797725692 0.11415106682382277
Ni 6.056867027600222 5.366158777876955 9.06582667682401 -0.3557172645702261 1.2851286341729158 1.2372274396162628
Ni 8.672145192498052 2.337870361326179 10.18352801874704 0.3419698330771465 0.7197615609489089 0.13243958072036544
Ni 2.2198518861486223 5.413904841486133 7.019747790767584 0.7211568986345386 -1.1994275951596698 -0.5814143564948567
Ni 0.449312676578664 8.991866981406913 9.33037977096242 0.2719797770412542 0.21743382347457393 -0.7095748502238941
Ni 1.4551712449989436 1.119252975633103 11.47145201244261 -0.28417863310029123 0.42847048517355235 0.2429409666067429
Ni 4.040187564832419 7.147254719193817 1.470730204416658 0.041709463923644295 -0.8775493906260757 0.02476203743602832
Ni 5.594650671266668 7.838788209522674 7.912116731905164 0.22298020721409983 0.38135553396362065 0.7883362246945131
Ni 5.291179774283283 2.5660267173268045 5.000294249964063 0.07324764374124158 0.4706867135302862 -0.1647066682841873
Ni 0.9151102143973588 7.543823638781534 6.827544719436463 -0.774867243673801 0.2413414833301069 -0.026338895004844962
Ni 4.88856211311393 4.655898673805847 7.0722022601176695 0.3112191821578511 -0.8122369425715108 -0.35102602974214386
Ni 8.003936084999735 7.278032683734738 9.320956611475943 -0.3040923413050827 -0.9632260041592895 -1.0514464671602797
Ni 4.621102539699786 0.4267999314865874 10.52536806960135 -0.29356778762467506 -0.8207413804980962 -0.19376064822735015
Ni 8.18706695081621 7.185288335675658 4.722521889553461 0.5390500325960329 -0.5491341563049124 0.718446441681911
Ni 7.103662064346843 6.125262243505334 7.087041174435561 0.8441242781984107 0.316403554572268 -0.85263642943448
Ni 2.38007552372639 5.108411651590147 2.5199701298145674 -0.0825187846305224 0.0622399797768283 0.9257125805948637
Ni 2.502646425101821 4.994301733566544 11.738473573535325 0.9886261893999491 1.7363883493268417 -1.5127694800874785
Ni 0.8189506398320646 3.27930665789969 3.985550288737654 1.3761963368147136 1.302486408725073 -0.7116474164822066
Ni 3.5911931953444824 2.6862125826662973 2.6095477304069195 0.6128946864913252 0.07949928107790825 0.22745315538378894
Ni 1.3122867287166644 3.4616213516886556 8.268198984639476 -0.7039927281504262 -0.37051396326342645 -0.19050588873547836
Ni 3.867086546376202 2.539201863356065 7.086616764981257 -0.9810548048105943 -0.39954788860193124 0.1892869287267127
Ni 4.137701984963375 6.713223503543514 6.078296077611331 -0.4135812267665458 1.230707379109558 -0.4862534576202916
Ni 0.7794188942508442 7.426267661086231 11.294724469610838 0.16640719591506178 0.23482065149245365 -0.3963872314857625
P 0.1516901056012746 5.750412568427395 8.037651244598253 -0.5826862812287449 -0.1124968190498514 0.36270372319038824
P 8.578113106351125 1.7447581489366195 7.981174860868174 0.9333526136386249 -0.6582168074668923 0.3063965639582271
P 1.8597023761438984 3.216162148704875 10.414553672853257 0.3774243172300145 -0.9647653236219512 0.26707822597457875
P 3.9427003504357123 6.191816538059513 3.7495740978557004 0.10063837704936864 -0.04631148147202992 -0.3890729572125364
P 6.752635543894034 3.852867015941408 10.435604563158288 3.2160175952169254 1.2637892492651912 0.7085644066815088
P 6.175529371821701 7.8238794671535405 10.466570129881914 0.3893665771935552 0.09288495835619485 -1.3392112749499323
P 2.3568508952547655 8.52752857780184 5.494068351170092 1.3143577062413623 -0.3265573551768182 0.983109630457094
P 7.042793768250966 4.053246317272535 1.5748946128561823 0.5813459651507665 0.2900556607063585 1.7719418209514193
Ni 5.482327263125495 3.253633513345544 0.4958462712980889 -0.8538456192512327 -1.081257122763809 -0.7219536835042211
Ni 1.527728938244343 1.0919112127116082 6.756482434717019 -1.2058414691058137 0.23390122500197782 1.738796187437386
Ni 7.082124191398734 0.6673711708834077 9.241372583931513 -1.5171128446578388 -0.22361398414335681 0.5814290117828761
Ni 2.299555618923753 1.2657286488364143 9.051558176067564 1.8479243471253208 0.8527079061023638 0.8038260927999962
Ni 6.335825558024136 2.0054888374128703 2.6449995227084115 0.39367163232681235 0.45545446996156397 -0.2525934020948424
Ni 4.275471823206608 6.707836768161966 10.365975113776024 -0.5331002427705013 1.2273808858394861 0.6645538054285135
Ni 8.295409253178763 7.023341668262041 0.5252937580505526 -1.463123534925577 -0.020261835572829623 -0.7207748327047716
Ni 7.812017767020435 3.9257058351073937 8.114872000694145 0.1808007456325725 -0.47302487474515953 0.4512838835236421
Ni 3.1347081803596457 8.433559971701499 12.533818704616264 0.45649396696967187 -0.08750338232930736 -0.5415812836583188
Ni 0.37630064757128534 4.876047475358818 10.1987115390321 -0.6338761738389986 0.4460151789255351 0.10668175502997111
Ni 8.494292239126125 2.4899957586754575 5.867219481573008 -0.017674020240995368 -0.4897262466602404 -0.0967423844290721
Ni 3.808430983332677 2.5805727165726013 11.345811397385946 -0.49029034669382665 0.403974299804401 0.39047549398701786
Ni 1.0508305539937406 3.5704896315800467 12.626568493822193 -0.639543399427105 -1.737981919066207 0.24674208552038793
Ni 3.2219932444125106 8.33553771119787 7.832175402384248 -0.20569545199172318 0.5221699690112426 0.033551610703200285
Ni 5.541681106681444 7.979478129908767 3.6355603067597793 -0.7665890628254087 -0.50554907262511 0.10284772599586159
Ni 2.99632167880674 8.35038297352042 3.276147165295429 0.1856696436890996 -0.4162777997621025 1.452440087069802
Ni 3.5668712689247646 4.384040840021246 9.49615700575847 -0.8731016392673674 -0.07021142801807909 -0.045792118633450174
Ni 7.328018686130518 6.226050420324404 11.416250670791058 0.09371568178760635 -1.0075291969520392 0.4962283094448164
Ni 0.1532780136236805 9.129065499230892 0.3333509549104258 1.9642091724626947 0.3773160737869244 -0.5085112405772275
Ni 4.594839937570217 0.5209789285984638 1.5270732800489124 0.5861593273790099 -1.1367474425216295 0.8866719217526342
Ni 6.123122059077648 5.779187166686069 0.46391127357734463 -0.09800428186063122 -0.18094858406434644 0.5096898342663608
Ni 7.898894745059545 8.802034436386798 11.327150077405895 0.344706001061387 0.40231953780979746 0.730605188531632
Ni 0.04934938821432512 4.853702498961284 6.008893342681151 -0.2696606419897743 0.248089857797534 -0.8402817645238688
Ni 8.217038601381894 8.849163836686303 2.453181865945836 -1.2497551397696283 0.07741308797284087 0.3405588116622328
P 8.696158787262933 1.5873548391427936 3.6458740006140467 -1.5577542723282851 0.08481272287102166 -0.1948505388574193
P 1.7595943426810856 3.167745010317525 1.4634572047937595 -0.5437996314658764 -0.38475530367378896 0.7800379892414631
P 4.817137992128957 0.9614869227159406 8.341478536700315 -0.5654994850368131 -0.4123630380887285 -0.43570685502099155
P 8.460783843107908 1.7662869533066454 12.467375046714702 0.6716143118197209 -0.22050629175231057 -0.4314506508477989
P 6.203369906537783 7.747104885099354 1.623048762479113 1.8255542069602366 0.38959257716143225 -1.7774450101578356
P 1.786029247794239 3.2985229748584457 6.084932463052773 0.8440214340719594 0.02215596727174894 -0.38607222271299957
P 6.732530506283104 4.033794217283611 6.132250489776414 0.6084464209119843 -0.2285214487473032 -0.7832539250755994
P 2.492680057788148 8.474169064359028 10.40681545517468 -0.16233302584568818 0.18205261576180262 -1.1586876942381465
