# total energy = -340868.0768130853 ev
CRYSTAL
PRIMVEC
9.23969441553804 0.00000000000000 0.00000000000000

0.00000000000000 9.23969441553804 0.00000000000000

0.00000000000000 0.00000000000000 13.52322673976605

PRIMCOORD
 96 1
Ni 2.7552029564130276 8.42820901151975 1.1129387474699735 0.4891318076093512 -0.41206093346727735 0.12533485135478414
Ni 1.065540039100523 2.9510937176638743 10.051814581565111 2.502408427022658 0.17171009618521396 0.5889358616828825
Ni 8.274127867487904 7.1023590617206676 11.240059610409679 0.5935044548901713 -0.49620876906079053 0.07506515656595458
Ni 3.3754082041938798 4.07981478716076 13.12080218009216 -1.0161781308762887 -1.4053166512194377 1.407660468861266
Ni 4.003531870086707 5.267512826096077 6.515720699772945 0.10622332733631384 0.35230078268950943 -0.5040701740867384
Ni 1.7864671956779175 1.5544399895776735 1.056812223757966 0.06387751538025128 0.9331798355061864 -0.1828563426100206
Ni 1.1483369407357684 8.185842587371313 6.995564825755877 0.6233829876171586 -0.3009807922592946 0.6389846987101576
Ni 5.562610186259726 4.067738506562918 5.027340829370739 0.9955008050325951 0.3464049860303647 2.0795218636947865
Ni 5.391888352589999 4.796186774392527 0.008974515183385113 1.2619766215364847 0.037098190403878045 1.4467525497667215
Ni 0.4876793868451882 3.722802234735333 0.8213275240083627 -0.40331712583637636 -1.6595218778860905 -0.02639340239186422
Ni 3.913435609865161 7.838790425523142 9.484244176977578 -1.145136695026589 -0.09100599616592714 1.025510206910492
Ni 7.672873232948195 8.917552467328724 12.643216235423775 -0.43998388512979064 -1.9895281108434573 1.2191034763220423
Ni 5.933269767333213 1.4677162178168863 3.730544174684019 -0.12733876915869036 0.85819515446918 -1.0022661487808868
Ni 4.137359603965169 2.29783808296758 6.326841942612154 0.22393794314167884 0.3997687463634857 -0.770892318186453
Ni 8.664634312160599 1.5348887961996822 0.7567817907471939 -1.4502659622366183 1.1453431546104405 -0.8304195270178086
Ni 7.796869931971183 4.933470153981465 1.9549585671163379 1.0948266339181272 -0.6303403927715984 0.13611882934416555
Ni 2.5108499979657886 7.164274253982444 5.223143813524661 1.044463350974227 -0.8541749775661934 1.556686750295719
Ni 0.3783146678946893 5.787716861244604 7.466700539754518 -0.744135361807583 -0.5588331287602312 -0.1484200153090218
Ni 4.359943842375287 8.643216700511175 5.620996739225164 0.9232013841372358 0.3091188479853967 0.23446738191809297
Ni 3.656442749460884 3.9638566222771168 3.9440217702806453 -0.47146112980246546 -0.13670658352683554 -0.32235514417001254
Ni 3.7514545271101682 6.640466738012831 12.967705987484747 0.003768208793180607 -0.29524851776120764 0.5499157716659432
Ni 7.463834386547593 8.95414165720436 10.119416805738114 -0.6289669094628394 1.1553825411243135 -0.6391639046004992
Ni 2.233751562518739 8.63322859085068 11.793660521014136 1.5306191066743897 -1.3619976767168285 0.5252316386557019
Ni 8.624589476574487 3.7817422453961114 11.341253667590728 -1.63674704608342 1.7653297149515401 -0.14417743798258395
P 2.6880673368078836 3.6707735154955086 2.0245621090992043 0.09263556134955014 -0.48105931501386184 -1.8299654486540546
P 2.126164560773309 5.059213155248518 4.891242902574993 -0.3214786551023302 0.5992398147120518 1.5309312385981697
P 5.554275981899165 3.6510282885348437 7.495870255016483 -0.6843487286672537 0.5244446239780323 -0.8312057703645297
P 4.002811173922491 6.910339732428885 2.1996339908985916 0.38562973585894234 -0.5016672210722006 -0.185412533372971
P 6.773472139088533 0.4432530881684124 1.4384254625581103 -2.289700291158528 0.1384176526806713 -0.2689839276377239
P 3.2413771970383314 7.810396844591873 7.3676972141188015 0.019794923238740103 -0.6377225441682823 0.14215603667718096
P 2.4840179253903227 2.253949534505643 8.626019781269626 1.9852099430840777 1.2708356145890114 -0.42891682868235165
P 6.3191563647993885 6.818072144020273 5.909176340181771 -0.36541726546680936 -0.5307939632348277 -0.06752925320022564
Ni 2.444675306579601 5.884299386944105 8.444146560412799 1.6161388829147652 1.2562422901558687 0.3307935047453529
Ni 3.869306829348485 1.3921262778238115 10.343686364409168 0.7053811238575207 0.7714317356296908 -0.7909924313704377
Ni 0.12186510152189978 7.153824159601297 5.147629639025773 0.45826340016526884 -0.6282120335746858 0.2340161533132873
Ni 2.0985840729503864 4.045184412500689 7.00881824342194 -0.6277587480873511 -0.8842057196003288 -0.14573681204990385
Ni 5.7772205683913915 2.535039517939126 1.2925796581566082 2.3382519748149857 3.144771041066113 1.592770897612786
Ni 1.9317151918508961 0.4656981538365676 9.608334196914138 -0.9823246726619533 -1.4623144087607203 -1.1574584498167355
Ni 2.0425083675576508 2.160231314074185 3.6474174159582278 0.057846478694822956 -0.001628279632042357 -0.4195724113529742
Ni 7.382783787156412 7.92530168431243 4.149426644868599 -2.9196858716938685 -0.38184250090236815 1.3847460261569375
Ni 4.8778471936149685 6.37418798472345 4.307066919188346 -0.2674536070361265 0.5582114360158322 -0.24157673926936463
Ni 0.6243510986639835 8.867602679331835 0.43376576994510363 0.8943502642334984 1.4035299916326602 -2.047656125334441
Ni 7.286977395787607 5.0103813702756055 7.070875726977678 -1.0335423331863491 -0.17856260033067312 -1.8574173742174203
Ni 0.34474223824491085 0.5360815260278947 11.357333507777739 -0.21559188516982872 0.14144229843960804 -0.13072028403641356
Ni 1.4356729575924658 4.61577250128352 12.212650171653907 -0.4300077477536852 1.5811338275944897 -0.6327803696716585
Ni 1.9170148380397503 6.792459711107329 3.071489707774101 -0.5477807276008114 -0.07713360905920909 -0.5809438446163414
Ni 8.71595157493062 5.558424604690621 13.193449277414683 -1.3157620427880565 -0.7956540985121653 -1.1166128765552834
Ni 4.822510663775276 8.92796560293222 11.583861247763343 0.7658424144673713 -1.1263897534363891 -0.0378306976945284
Ni 6.41924073468143 5.374702520981746 11.644106827244682 1.5378701318098482 0.5577105851200137 -1.9763362947435317
Ni 0.9281735022618671 4.244734092739099 3.221259610392821 0.7743111140600148 1.3272674723244948 -0.33384463286685084
Ni 1.8176973627939907 5.532969246582696 0.9534135754899666 0.752227394787098 1.3436047760319376 -0.0530706545727344
Ni 5.000263904893326 2.853051320247114 11.804059797076013 0.5703154183682178 0.672080709933178 -0.6280382270009829
Ni 6.396464887953289 1.6220098748202305 7.941108953514258 -0.07133191477576747 -0.032598759871627726 -0.302447349502492
Ni 4.028007820586849 0.6404272429732307 7.990577353432229 -1.271076526955224 0.03665518932918848 -0.007758303789180188
Ni 0.6432204025942924 5.597295999086277 10.142285049410386 -0.9421211038598742 0.3116994642283793 -1.367974977346186
Ni 8.714842811601056 7.268193097045898 1.115092520237653 -2.0230835782014 -2.075334565086316 1.9299867609447148
P 3.8172688704142477 0.9981364683574009 4.259018660301659 -0.1868994023311426 1.2317561320890464 0.2947965178254536
P 8.633302508405983 6.49393442431644 3.2433434040094262 0.5141720384074305 -0.5505145815922068 -0.8175737814033919
P 6.013202363700416 7.342748191264712 9.95034980133776 -0.01855616573563256 0.10223426078157875 0.8057605908185478
P 7.053305524081842 9.376811478128845 6.444805121183428 0.17815430914866093 0.29973792099112895 -0.11727547138541738
P 0.9260760916301071 7.075416112812245 12.667923178284244 0.8234320399563818 -0.23149595799459485 -0.5753136429137575
P 6.944757594117456 3.6084332972907323 3.584236385561865 0.1334505384833831 -0.25855296211238693 -1.3708808381390714
P 0.40249402420417196 2.344627895475211 5.212514469071901 -0.01283468987082306 0.3696719269781053 -1.4164983788678702
P 3.3692083692427306 1.102905363306854 12.51438070843668 0.8133139776857735 0.634842651517326 1.3145927050703037
Ni 6.46262109995065 3.640393400265435 9.59763647872272 0.21643880655115624 0.559810662182152 -0.029703440601703688
Ni 6.262840427351913 7.005416187939059 2.0531635831547677 1.2452328264192425 0.2649475527848211 0.1577510629019606
Ni 4.850543896624437 8.862659442820858 3.027282389854914 0.1185877624389377 -2.106342583432056 -0.6068086281982453
Ni 5.903139123852292 1.2154725603409122 13.155341081777543 -0.7324712952060933 -1.3838199147982426 -1.3364378259698533
Ni 1.6317947112036388 1.6000194021171965 6.826294548078437 -0.027588965361862162 -1.1654221847485027 -0.7879842406717333
Ni 8.565464672025447 4.7647440943049535 4.84032756651194 -0.7599304198583106 -0.3949358437512166 0.6530527467674495
Ni 5.533662223663675 4.844186986868266 2.3401263163571784 -2.037138256522253 -0.6989996458112091 1.1611356415580067
Ni 3.9292354873114586 3.9629234131413997 9.476468974129006 -0.735557647440901 -0.3486104783221157 -0.6114155308426374
Ni 7.877911291667951 1.8052422547252134 12.013223379351192 -1.5261374167539523 1.2316980251576013 -0.5865789314149318
Ni 5.050490883722608 8.338750290212701 0.5160175296099798 0.6237306007645645 0.7860937085172397 -0.2089844071556401
Ni 5.486160954686239 8.028518310600493 7.802022909545335 1.448501671247344 0.6759466206464875 -1.3515677396327563
Ni 2.672221260889521 6.207873485288742 10.940466214944642 0.1461867551031289 0.8551411981342047 -0.42100554425507486
Ni 4.000972474734295 1.3784884888701654 1.6333756229177099 -0.91679162395615 -0.4046224749113612 0.06650132615634352
Ni 7.48948377823819 5.803590656246206 9.132654401203164 1.7178272984952028 0.7896276898124271 2.433714978311002
Ni 8.71868652447688 2.415551789789701 2.962073246534889 -0.29683000331571463 -0.17420560891355805 0.8389594461680197
Ni 8.93112557842148 0.4200429758028576 7.900174335356169 -0.6395598544873372 -0.5875418095488333 -1.7061133524923844
Ni 7.793525162593663 7.487432566078496 7.457167023059144 0.8815034901778174 0.17306712443374067 -0.6598533146290507
Ni 8.728970304358592 3.099473970242873 7.029143723191744 0.5782860952785203 -0.1432029898844566 -0.4212289731197907
Ni 8.835688774829196 0.30451815258718534 5.081406901228639 -1.196534589882591 0.5044926063361376 0.9191698943803396
Ni 8.489052399229612 1.9060842795491248 9.318910009120092 -1.9541096221348475 1.1439424176081718 2.024280426722978
Ni 7.292225542214214 2.2756443369874595 5.317806330725133 0.9406692019046962 0.03672126668043353 1.2645760068325447
Ni 8.34832261362461 -0.04102239525501206 2.5751333239056273 1.481340829264552 -0.030531078709321615 0.6973153161302507
Ni 5.319975810973314 5.813449410184919 8.54323119535935 -1.5138290317002445 -1.0949482470976564 -0.07332991904240273
Ni 1.767285590076448 0.11197123674441727 4.6301097351042335 1.131798068936154 -1.0770410277999323 0.8428076162695162
P 1.2740522229195819 8.891219338251561 2.625142245946762 -0.039798362943860494 0.6870427305596489 -0.38416600682922225
P 0.31761357147878605 8.16752951304467 9.366714340074276 -0.48652316634191056 -0.7583669320259326 0.42738316564664464
P 4.33049693628093 4.96956964005321 11.375130083186693 -0.24638881594602724 -0.25911063438806986 0.14962843379482618
P 1.2431639244967911 2.596409568230533 12.278440491752514 -0.9864086129233399 -1.9072846913615091 0.8399202674193922
P 6.526661421927426 6.848941963054238 13.312318870007875 0.6890499907976649 0.5245736933567289 0.19878304114260603
P 8.772369149016637 4.015488034657181 8.890872849711075 -0.1319832099092372 1.6799806599610747 0.9757724733657324
P 6.231499383902884 1.6451460696304807 10.178296758385205 -0.24718251549191622 -1.3589848580324337 1.2602748083540296
P 7.298647129831276 3.700663926921691 13.488228792090524 0.9724840324224477 -0.7423003654813732 -0.5863475321304159
