# total energy = -340864.67341387534 ev
CRYSTAL
PRIMVEC
9.32988259401953 0.00000000000000 0.00000000000000
0.00000000000000 9.32988259401953 0.00000000000000
0.00000000000000 0.00000000000000 13.65522625533280
PRIMCOORD
 96 1
Ni 3.46764680096713 9.331002199749904 6.056556741973571 0.285423818361302 0.567082770363533 -1.0074762322269164
Ni 7.534281395625162 7.761538676332985 8.597344081446106 0.4230295166636392 -1.9769806131957504 0.376449612021571
Ni 4.390764046545316 1.2685094999424034 0.44918066752531627 0.44386702223428076 -0.22270844160995193 0.3279940876233448
Ni 7.564528875059219 3.4996296385673613 2.9767438313810004 0.732492635362332 1.274437730117973 -0.6380683575434754
Ni 2.5999397282325187 5.26574842771872 7.3425793645704065 -0.41592530151869017 0.7287498804904481 1.4684320916226838
Ni 6.166921789389163 6.970905763871274 0.43621586264512946 0.7140503694967444 -0.8689667911633874 0.2097110009090195
Ni 8.521606893351768 2.8466311544249625 13.133145818164815 -1.4159453345778774 -3.0726176588303145 -1.0947376737487469
Ni 2.3385910564537373 7.6815815823324085 3.3659585443824063 -0.6224409354188635 0.8684047480123301 0.33186359788108005
Ni 1.0376882040760946 2.2929586005894644 10.92562841657634 1.4552009376443906 1.051093711806551 0.3755235006628758
Ni 7.680583284892728 8.514301595265135 12.943256583301928 -1.1920919807302053 -0.5419396954390021 0.5744394678389204
Ni 9.02669874841702 6.23846332927206 12.396214777040084 -1.215839717969106 0.34164870229230193 -1.1343779138481882
Ni 3.918438739219856 7.115668222507557 1.7049782024063678 -0.462294632811849 0.05535507973153693 -2.3188915680105033
Ni 6.473949566445286 9.330255809140798 1.739061196582973 0.2764599242997948 -0.010332235163943495 0.04688175215320312
Ni 5.048698038590434 7.76682871977503 3.5089427273924927 0.21682678601819433 -0.8069733801797264 0.08728920943597225
Ni 7.376177204851093 8.947553354203848 6.5209171285116 0.41232395732067695 1.6654264162959835 -1.1849183457999013
Ni 2.386826549567271 7.161935110389571 5.913026760830576 -0.34451008300049696 -0.2119584021822995 -0.6425623887590869
Ni 6.079015635401599 0.3025951498262895 4.279807484572007 0.7295728906123757 0.5610517336781048 0.06036281735877347
Ni 8.759602868948118 0.6776228433250966 11.377861821692903 -1.6949611925303067 0.641852764286572 0.39104962132293297
Ni 0.7936557944285939 6.96194907656199 8.123917847972214 -1.516081318069531 -0.8866258990060473 0.8139878638243466
Ni 4.033784077974714 1.8098666087276374 10.395287100193261 0.21200339648762198 0.9067787198048383 0.0010094151011208422
Ni 5.2870485497261095 3.810622615734365 4.00660706290887 0.4643844254613422 -0.02218116408272954 -1.7512395554070612
Ni 8.864405440349339 7.0015264386098846 1.0454096149273056 -0.5281608964873549 -1.5934555823846364 -0.279371441519635
Ni 5.371036153015862 5.177347789952622 2.0210009192904903 -1.2147164029979403 0.23150084309060132 0.670911115105109
Ni 7.343783852415853 1.0577567815784565 8.35736737177084 -0.3750013096108186 0.32526409028669145 0.5701686083777083
P 0.17784808836146926 5.632758020099197 6.5970853571826975 0.8788575679145382 -1.9282607793925437 -0.707451376122988
P 1.2258999260450134 1.8857092244955123 8.72282167271959 0.15239391235510527 -0.29404189904761613 0.13783452648369166
P 3.1603111377847504 5.45077865971632 9.527046358173138 -0.46532184967394696 0.3068753033668586 -0.5044638099807311
P 6.879444924607838 1.5243722007442486 10.526104183286645 -0.3416911254944631 0.9616586596721697 0.8069304427569328
P 6.486526248208738 5.674723832096232 9.183904471495378 0.008528349185985312 -0.897712495837512 -0.38533585876760734
P 4.251189002642326 2.5728550790045515 2.3513757945994773 1.5465656027013173 -0.06312341082304612 -0.03522976973657158
P 5.065790383538983 3.4723490618045036 6.353025890875616 0.9709655388953924 2.5085351087456864 0.725498720543002
P 2.9622937091886903 2.6033078158561134 12.166137072818097 0.7348063710971732 -0.16050497149801388 0.7427413096735338
Ni 4.2230780663268375 7.069466643803841 12.20767650917968 0.15689205733577496 0.37132746030365726 0.1440663663260164
Ni 2.522986856433597 2.481226301854066 3.4678949758446587 -0.9830062721100102 1.4659653752497463 -0.7714386776082263
Ni 5.352824222153655 3.021043980008017 12.361557062094466 -0.8280034613771482 -0.9631475855128702 2.11698360808567
Ni 9.254077317598824 8.811113150859107 2.3318072988052174 0.8938681823907574 1.7558215183507888 -0.27500262302797795
Ni 0.17656522950206674 3.4684398409893062 7.303429311146227 0.007786071703322075 -0.7238724977934888 -1.0905627164354508
Ni 5.701146059658616 9.191641743147033 11.238524689796565 1.413036902681831 0.14542185191264634 1.8552417067223403
Ni 0.2739122917065727 2.388636546794355 2.092048908383115 -0.28134270631339287 -0.24641915496333044 -1.406826660106061
Ni 7.651931215385637 7.733465059547951 3.609827681084165 -0.5213551864194311 -0.5547738710891928 0.23822582051926067
Ni 1.5457003123994784 9.305298373148785 10.595035222014188 2.0827485981622003 -0.7637402805227039 -0.8012843002147492
Ni 4.225261258858475 2.1320554450312446 5.020480741613148 -0.6820241942991352 -2.4512838404327013 -0.023440233300811242
Ni 2.995834637185432 3.175229620084275 0.7769683663854864 -1.501125725200963 0.45035751505463084 -0.8735053024636893
Ni 1.0267722414179064 8.963880648778062 7.083976477244878 0.27739169208544484 1.094524015076044 -1.6883899670706923
Ni 8.51847205279352 5.003681354978674 9.049400218793007 -1.59443491557877 1.654758909279808 0.043574285046524955
Ni 5.998927923044428 3.014550381708787 1.2518603244180126 -0.10846147263821321 -1.1469428949973923 -0.5033188977430106
Ni 5.670842600928876 8.965727965535601 8.123412168334545 -3.0092875313131016 -1.8810247292237152 0.21035429091997318
Ni 2.8666250928664136 0.3013514764738651 12.453866920675761 0.8468162232082771 0.11085157013694456 0.3354268897523062
Ni 5.734593688829219 5.823199584012822 7.207788684471792 -0.15003543942525774 0.2994126764412263 -1.243945989287019
Ni 7.950384830319644 6.894176809255085 5.980538724412557 -0.054355434822428966 -0.5082240483541118 -0.33266578206740127
Ni 1.9059270801196955 4.464199552598822 5.090149774055447 -3.0300175647716014 -0.13872387106718045 -0.6035165877105348
Ni 9.228056274988836 5.802972398506025 3.993198155616265 -0.9738233200591615 1.3102830219513562 0.8298520845501127
Ni 6.899513502110199 2.4272249412851816 4.906650575794777 -0.7926736757276025 -2.1268098501474726 -0.8046866410280786
Ni 5.095963223912128 7.202632058351125 9.98070070441179 -1.84377561506427 -1.2408578372799985 -1.577928690393631
Ni 7.29486727787151 4.731071514884993 0.3102811071235678 1.3845994732767446 -0.3055892375655834 1.0175557279501055
Ni 7.669611342938857 4.30555422863315 5.683974410707851 1.2320042435441105 2.5653094374222527 -0.45825851506926235
P 7.331934901496281 5.81195707546315 2.2133345833982014 1.031672884077778 1.0851592860316923 1.6835020428507714
P 4.585460036930851 7.630845680678367 6.5692972348056475 0.3564657127004764 -1.3349496714601008 0.4199153965146897
P 1.9578478768656942 1.5379938293604494 5.497088465058359 0.6999514682015171 1.3499661994735912 1.7339005499079816
P 9.19375029661776 4.333795783305232 11.459957324788572 -0.6143733279193807 -1.5805399027642328 -0.9401207856003938
P 3.266093346860426 5.705857650378604 3.248154781558803 0.9481971348506252 -1.0532819777071216 1.2291042962884962
P 8.030575171385566 1.8803538718751704 6.487980776908235 1.0778051596594664 -0.3413167728741799 1.0892162297098855
P 3.8412153008251337 0.10593521915054226 3.887233080841358 -0.04805623207727852 0.26046020643742884 -0.3424010070772942
P 4.1269149662260265 9.042428930503949 9.994410033924561 -2.7467377893364953 -0.1300883068793695 -0.9863348222626109
Ni 3.176321216350094 0.47406253146815613 8.233760421961431 -1.0712251924491034 2.586719013446281 1.229638314415095
Ni 1.2278125519808496 4.261283935630496 9.202311396904216 2.4607670973327878 -0.34478287704590943 1.396019542188228
Ni 1.8667975524372662 5.5937497808907475 1.4929118365703926 0.44598381146696736 -0.404896040287722 1.0773914691608155
Ni 0.9550254441175056 0.967359548932997 3.8410510948911303 -2.161324596094891 -2.1975249572748474 -0.34679322260771883
Ni 5.111450829051097 1.7800016544807478 7.490410421598381 -0.3342344121061018 -0.3145230497201035 0.4097194298182944
Ni 6.659343663864826 1.2923193603729135 13.23256971223916 0.698149639106088 -0.4571115459490127 -0.4072429432533438
Ni 6.976820909448446 6.793199489725535 10.989657534978575 2.093267752525969 0.26060727353825447 1.1556306525793776
Ni 3.9330959848061933 5.043958458222606 5.38439187997757 1.5073012578840557 1.6771552746971374 0.6008830067424297
Ni 2.9213448543965628 7.601130004553299 8.492540577056623 1.6722269841575848 -1.1396741292501211 -0.04134873815011589
Ni 2.788095470905754 3.019485889611506 6.91472027778249 -0.06694304167945246 -1.4958503357346367 0.6751351804887857
Ni 6.3592666493560115 3.8370541731793626 10.591458145020045 2.0375673736398716 0.0010130146455466426 -1.7001298812154397
Ni 6.925525214837575 3.4964388187134294 7.664732747320081 -0.4553667953437641 -0.07021914132756293 1.0708798932945427
Ni 3.8588860984957396 5.224874211987505 0.04867493058464507 0.6685449288657777 -0.104202183141227 -0.6779245703084646
Ni 9.224986743608882 9.271337600434421 9.09037986219776 -0.11190572243307179 1.1799646013390517 -1.3454765391333539
Ni 1.6979173472442166 6.732909788274926 10.508051793417133 -0.35614072526088986 0.25651304886422277 0.5524223401378809
Ni 4.3255108475441455 4.663579144056502 11.182373724273454 -1.1401811507935267 1.2268152431440031 0.027063946096327583
Ni 0.4477513295088766 4.362018678212086 0.09671822811633343 1.5378094537752418 1.6919951679234473 1.2123216775135186
Ni 2.0652908050466325 0.8982503094475279 1.3991147947004514 -0.34779826683346554 -1.2329501523971476 -0.16194787459212756
Ni 1.943563826583911 4.5961240927584655 11.780035741644928 0.8194198334731952 -0.4980903023542195 -0.08570103901324594
Ni 5.985007738184584 5.942650071117767 4.498290943669779 1.563025033808921 0.39629081511721426 0.3175469241480918
Ni 1.867795849876947 6.616827388793574 13.001741885455022 1.6464928126162741 0.2958676394024453 0.6969193662434127
Ni 4.683563752615339 4.050764464331896 8.816278173874126 -0.15944079189955768 -0.20790711493106126 -0.8928212291834817
Ni 0.5846393672190819 8.525926629001974 12.68970582741179 1.6682335467274754 -0.41821024089812486 0.38787225203621584
Ni 8.413128348200694 2.710265590141132 9.557251853135433 1.136088468781392 0.30471197716695264 0.544576618841217
P 9.044556143739904 7.719292967857535 10.532603379515441 -0.3165539641072032 0.04989071418285602 0.586861238542041
P 6.157899792901584 5.390918132865948 12.433260941934844 -2.3506200094620358 0.03610471614235718 -1.1289534003985073
P 9.284436755624247 0.7966254960645779 0.27933668545825713 -0.722885194179555 1.123519888087762 -0.21377462945543185
P 0.6169702094408087 4.313195402493882 2.8080063733919416 0.926235028757237 -1.0425429940230626 -0.31142384196948947
P 4.7716098548421115 8.47686077633581 0.1269227900903669 -0.5427537066998653 1.8953987385572 -0.3393411372050478
P 1.643822687849194 7.775132315301344 1.1952811172829256 0.19577407911295316 1.0461885611954498 -0.5340898603772801
P 7.981192102710532 1.195046004241057 3.163669895525732 -1.1192477430749692 0.23805098550429327 0.30346293525119994
P 0.6549745532800092 8.202384959719362 4.719218832012375 -1.3193821560391472 -0.20368742042275886 0.6843782963536085
