# total energy = -381166.70763380144 ev
CRYSTAL
PRIMVEC
9.18017832835356 0.00000000000000 0.00000000000000
0.00000000000000 9.18017832835356 0.00000000000000
0.00000000000000 0.00000000000000 13.43611893018900
PRIMCOORD
 96 1
Ni 5.826686759332239 0.3983389561913793 8.09003495283237 -1.537269522111372 -1.4229523620233298 -1.2524105751146044
Ni 4.4616401348812635 2.747765092286517 13.242907635169738 -0.7522970716827689 1.9789431362387597 0.38047236002771895
Ni 6.876495238337691 2.0381281232109942 9.034378788536568 1.286180729586514 -0.24902805334108727 -0.09003643316380622
Ni 1.7389093890413512 8.632846966304069 12.539687610782948 -0.19256354259545547 0.21514528455071333 1.237731375835875
Ni 5.7004225858718085 7.736870736438971 1.6126966245798577 0.9019679286797564 -1.361220946451804 0.152729184207337
Ni 8.239393701047373 2.0692581081029764 1.0892391811900706 -1.8960425427887861 1.4112782681195113 1.0514122714882344
Ni 5.649041127470032 0.8477995717363359 5.429173101177366 0.4219427113573636 0.5735215840103413 1.8872719956850077
Ni 0.9301173132662424 8.366603432881108 3.5326786060732642 -1.1708330713514288 1.0468382789643067 2.1530266177521566
Ni 1.3845728638686237 1.8850945495898386 12.701687464629407 0.8573335777998331 0.02172736437476258 -0.3994625279769765
Ni 1.5073761100791936 4.386023005552082 12.09179496970557 0.45049172663965 -1.6765582645430868 0.8242951592876255
Ni 4.856360264754619 2.554090868970049 7.343134721688123 3.535122607880757 0.5340788046336866 3.3914403643670368
Ni 8.870769649419817 5.707840170004136 11.974484224220706 -1.1145763057412288 0.4501453990438247 0.9026934939918712
Ni 4.998542867528732 8.441109760626118 10.44325066656343 -0.21008612486025108 0.1735162961560173 -1.4820874776225894
Ni 5.815936770447394 3.9723366271423552 3.6317694515241796 -1.0968382650315174 -1.0501580873661591 -1.1409152007460737
Ni 7.669222001945013 2.434858712149919 4.830701666178066 0.34463092484907737 -0.22789332824500108 0.8187667732702286
Ni 3.8134552798921253 8.048032882683067 0.5457267201078554 -0.5614373991522976 0.07113085450855491 -1.6511722203698143
Ni 4.890069879771828 7.1222394334345545 4.387752551159174 -0.22570043435874035 1.1250026432808753 -0.18229892744465379
Ni 3.877000474649512 5.131884958521371 5.23890380602263 1.367111600904626 -0.020566254187125873 2.245624640995552
Ni 3.2384089060691377 4.418603458628356 1.3811660996712143 0.5026604382234053 0.65836438878835 -0.9073770155104696
Ni 0.028585239444604366 1.6331078331934916 3.299870200333903 -0.9623888529699749 0.32522912328369796 1.3555709472548783
Ni 1.3481000151585545 3.0562007255512795 1.4257735044452131 0.205863087917839 -0.7790717686734517 0.7030725303290021
Ni 3.245532724493254 2.6909581484612195 11.11270507684488 -0.5169115488257807 0.20371904499164273 -0.04624463278983649
Ni 1.379220819872155 6.138858725198309 8.515865789223106 -1.218714982634372 0.38332165655105593 -0.501828172130097
Ni 2.8911594786070003 6.617090937809017 6.769990480825802 -0.9034373141364312 -0.5772663957647542 -0.0006278633919860155
P 3.9557480448068167 1.3800103152129717 9.350813111225213 1.2291929993475605 1.9008744169597909 -1.1609404948280653
Ni 7.572371120019206 9.111400485158132 1.6823769325496631 0.2880365733938007 -0.3611186380914555 0.629446163092103
P 4.201629942579404 5.752015188376362 2.9938094792164587 0.9743475679937478 -0.6659000350437628 -1.8309666362250594
Ni 1.0442544710845885 5.351162699344101 1.882843569850672 -0.4680438765908004 0.3471971429143569 -0.9674066178995403
P 0.3379701031540236 3.6453019524764856 10.317233439901463 1.0850453861616474 0.08912677686534329 -0.36446364330428843
P 3.839940094523021 7.305191208401323 11.86510056276835 -0.699621338555608 -0.5929994902292948 0.1961342906658493
P 2.840365551621646 1.0729608888838298 0.6579736791974314 0.7172459936159067 -0.06708188125016189 0.007568556375877287
Ni 2.2467109562191694 4.107946222195248 7.491926134879145 1.4148119923043827 0.7864971146032455 -0.7638606081506522
Ni 8.560626502976078 2.815661691596779 11.96669117079257 -1.9098961608424267 0.048615447014858204 0.9616252353310729
Ni 3.243467184357396 3.8757795109247604 3.5713611237197824 1.2686758879335311 -1.479265434792762 -1.1536411329531746
Ni 6.162075396325358 6.530062846751515 10.957880450421476 0.3210091716650794 -0.41975033169173515 0.6521867992227284
Ni 2.3943006840600405 4.6050069806666025 10.01041902613889 -0.11911278170447229 0.09060053319739236 -0.7144861714825824
Ni 4.663044068395034 7.951604288962814 6.513091450977464 0.9411260869364566 0.9683939215134743 0.20490663754184066
Ni 1.7705810044578472 8.89240732986523 6.78526721567061 -0.3300846516037864 -0.8305979615772018 -0.7025955906925835
Ni -0.12556097179640047 0.2590637159107171 5.569365441278348 -1.2352196651576146 1.426495085069266 -0.6904445571523463
Ni 8.523676284990165 7.91320360279261 11.021205320897705 2.036438145131435 0.1445826438408026 3.1780290317882947
Ni 1.0115271351542094 2.588305393798246 6.151296948887531 -0.8530346933141632 -0.39133192845004217 -0.4412851204397174
Ni 7.318043458135553 3.819321413877963 10.170967493783218 0.34682407584565433 2.166107619305831 1.075864490993328
Ni 8.080998903251368 3.751323832605504 2.743131856257327 0.7220508712037178 0.6069634086085546 0.0793763823467988
Ni 1.4598044257057783 6.878817823468234 10.865816113503833 1.5123575893610406 -0.23550919291904604 -0.19302171317879663
Ni 1.1189719429323741 3.9642488899881725 3.7967785678441235 -2.3551284388553504 -0.42314675896779386 1.174116370088391
Ni 6.100623282238975 3.873750691502428 5.798169453207658 -0.14188195708018791 -1.8819181875722621 1.0546081527177127
Ni 9.164214051387436 1.0090852077047057 8.120279968528365 -0.23142139600291756 -0.040372747390091765 -0.9176123200852326
Ni 8.240550403523455 6.094114535766426 9.746963512890419 0.0794943959819018 -1.1009975386155295 -1.6888874755324013
Ni 5.5848533202259345 2.3549452593381512 11.026552774804983 0.21946499497198976 0.14575121022760704 0.13146204729844457
Ni 0.8261655633622738 0.6832549724425006 1.5658722067267041 2.3728022019860298 -1.6036934580625606 -1.8645118191703567
Ni 8.01249641216792 5.631002076950202 7.374709945231612 2.730505386638033 2.6348958302618235 -1.6432478233164152
Ni -0.032673172877927745 1.2659833195352048 10.526647997071011 0.6939235168398823 -1.4066469399950872 -0.6195109062562622
Ni 9.263442599514075 7.632638991094364 0.5425063135315926 -1.3644409960509984 -0.6970764606465673 -2.510787909335605
Ni 3.7676094690544497 6.448974331106904 9.114525417879227 0.8964169169545401 -0.42846405741564925 0.16708416737742837
Ni 2.932966010956775 9.594663435521953 10.846992157732377 -2.37615800583214 -1.1346298819579943 -0.9953992464577243
Ni 4.113445149045822 2.731497816194334 5.419377850844205 -0.9841879511229371 0.7476906832590091 -3.737002285670816
P 4.623991589559736 5.075794068609837 7.460660283347115 -0.7220827528829177 0.800780363995137 -0.4289217137783581
Ni 8.536106246518843 0.5607757865288009 13.081338331689377 0.39125556668615197 -1.8806110387250645 -2.9726266855569583
P 6.735496878574804 1.8228437599842562 2.9452105328821436 -0.031978866899441696 0.1814977716995971 -0.6746253307319027
Ni 6.302018035574363 3.778515520971782 1.2460090874125347 -1.017138695017345 -0.8204801564169095 -0.7181098842780987
P 0.9083070454672536 8.146150629225533 9.157158166283343 -0.32741867473584907 1.289499766657418 -0.11036948829420347
P 7.1311166659295555 7.573546182852049 12.822491267988466 0.27252305113923386 -0.19708637016647346 0.37426777387890386
P 2.8007989827969797 8.81000604871205 4.736594739570519 -0.4284882257853653 0.11837924597255742 1.4807746723484367
Ni 4.5482367575548315 1.4440145188894382 3.3564770162704822 0.3072193169698387 1.9966477526073743 2.1133436973402375
Ni 8.745359232548873 4.063000068838968 0.3088294629173329 1.5104408319543021 0.7153796298311292 0.4013839133694055
Ni 4.441214237982219 0.5831506352982576 12.477384494160592 0.7918702059897007 -0.6497380805719197 -0.13798390757736234
Ni 8.146903403852825 4.937641564145244 4.747746820268477 1.0352945399907652 -0.3433353459661055 0.598522219819737
Ni 2.2069424234701085 1.8558648616228464 3.951105628599245 0.3828380320464181 -1.6659208394338987 0.8162131536104394
Ni 6.668848783524439 4.566643015209925 12.308815304664266 -0.5565273634451899 -0.8818343911546749 0.10226819934330775
Ni 6.685308843362635 6.038803961017328 3.2387632609546673 0.9251608218564519 1.0407177678888657 -0.9108109808926829
Ni 6.213511935797425 7.134568413001034 8.472252597767833 -0.9768754766219241 -1.2502891578962274 -0.6594061997893031
Ni 3.0459372861206586 1.6646692864694084 6.949509787095692 -2.9170903430525503 -2.231388957012144 1.0317479602900876
Ni 2.1151314594757964 6.300338062930531 13.186113543594175 0.8265345901411056 -0.002699144098717932 0.11369341046111388
Ni 4.7350717479770115 3.9062852436867934 9.354091352925279 -1.0154268545325609 0.05673987589420551 0.7885629959933387
Ni 1.9677804162728472 7.736200583417115 1.7548241462836809 -0.000283078458057577 -1.4202722440880056 -0.810567782399204
Ni 3.41205198015697 8.727008055964069 8.422861402039187 -0.3923914800628081 -0.48163678478388666 0.2730699247816394
Ni 7.4882347851519055 5.726586094259349 0.7306210208201679 -0.9902395566336557 3.077745981195816 1.059029164603544
Ni 7.5944127283134115 8.670751922841667 9.301650501938266 -0.8203243475653357 1.915264624243192 -0.20557692413598788
Ni 6.886327209384377 0.24855700175298384 11.418900746584535 -0.9448906961852115 0.8427847334513807 0.5880611723874131
Ni 1.744959126594821 2.3871126043872533 8.956019539924803 0.37345607661088587 -0.5941310327305768 0.8929852655651718
Ni 5.1075299452750045 0.9835643118038769 1.312672788766149 0.9274056520265704 -0.5303010827588093 -0.911354769211295
Ni 4.775308469823535 5.6834851567577696 0.2317802257606226 0.862379881974489 0.8508911646085991 0.7630638232809698
Ni 4.306880687724369 4.761253616721316 11.677035428443034 -0.6244744209091245 0.4379668546997618 -0.8390196099819938
Ni 8.447563426028378 7.911037080694554 7.427499642997124 0.35626079577852193 0.3448281284615481 0.792212419820468
Ni 6.45551979829298 5.9811616209593055 5.8517523183853415 -1.805448694459613 3.440734582616474 -0.19119288750017394
Ni 6.490073989721296 8.785953981352279 3.740857511232649 0.49260099710487415 -0.2150876918399005 -0.763332246451008
Ni 6.59226773546519 4.268755406905613 8.002861814956438 -1.0479618510457889 -1.1208179157755664 0.9934194970235342
Ni 2.2303794188783157 6.131367699638931 3.8023004451406512 -0.3240525864770935 1.192529582488256 0.47081295469550527
P 7.054737581794702 8.20709783350093 5.762885437598006 -0.591146496180956 -0.5818252187800302 0.09151610303312625
Ni 3.724233126201422 8.602873683888168 2.8723465390496012 0.6071634404345028 -0.45870151614395194 -0.019292786791340968
P 7.34787903787573 1.8498334844261397 6.924935367586005 -0.27199880320464764 0.08763168037705554 -0.1792334011454526
Ni 8.990681139440184 3.9320356440471618 8.281043252346823 1.2161158544486284 -1.6015602137696416 0.04202956626722439
P 0.7851549524781831 4.812635075123092 5.990641073156138 0.031525324301790864 0.631945275364873 0.10044862963606571
P 8.847819203465834 6.921184346699286 2.4169692985377083 -1.3704985150989881 -0.5717845467145766 1.7859800442120404
P 6.42998972221377 1.7752812557892228 12.983536383283239 0.3863257334847024 0.31134568043338634 0.44598175458443834
Ni 0.0878267665767005 7.098646374993861 5.601236266565725 1.1846206120538245 -1.98434708086315 -1.5889474101016379
