# total energy = -340871.2285759754 ev
CRYSTAL
PRIMVEC
9.18600307615903 0.00000000000000 0.00000000000000

0.00000000000000 9.18600307615903 0.00000000000000

0.00000000000000 0.00000000000000 13.44464403737958

PRIMCOORD
 96 1
Ni 2.8790954432750646 6.212705130725098 8.500712511100165 0.03536089599779716 -0.6812760032792009 -0.30541851631567396
Ni 3.6175857852778996 7.463388629960454 11.497025946104948 2.488361976231921 -1.60172836391639 -2.5815163861994184
Ni 6.038474211157876 1.6353381903281947 2.4994269146296912 -1.1065331237217781 0.5701801783419341 0.8018967369877673
Ni 7.978273286082265 3.5822564176048073 5.864580417902041 1.6686896604282875 -0.6641707110574818 0.0894273388248976
Ni 7.69985472009065 6.591820661987757 0.7679011679203951 1.0503568336405265 -1.734243535069697 -0.4041686752033943
Ni 5.039624985130483 7.60968491429786 5.238477148632753 0.739990486401274 -0.6327204629680007 -0.16460922347437457
Ni 4.940700918445217 3.939849143756167 2.421541550695774 0.5142566277014369 0.5211271295690252 -0.757427965151431
Ni 3.88253767082002 4.200722443950693 9.01880124508063 -0.3161392451672878 -1.8427793125892715 -0.45783505437859856
Ni 2.5645207693371965 8.284350907212643 2.5527617668519325 0.020288317935390866 -0.12377110641209005 1.1732519652055664
Ni 2.598187470460931 4.372693606771276 3.669514260435463 -0.20913918756594946 -1.3447574015791421 1.2551441719956835
Ni 8.492257713906636 1.8858404930960637 3.0447282640014106 -1.2649297906275376 -1.0832720963113087 -0.585427848529624
Ni 7.05684369363491 6.081593309404754 11.386241830901032 -0.12354073556883886 -0.844760369120513 2.1719234546566595
Ni 6.870312716003654 8.915613035786459 3.6693121683686902 -0.9385675821806609 0.11907292960547236 0.5953111690816071
Ni 0.12433530688133247 1.4910628266585155 5.441235200625557 -0.9004900585826491 1.6206563111691445 0.5586449240088249
Ni 6.933291952812473 8.773248360748086 12.193579428451525 0.3225852579029477 0.23264112734263162 -0.3132464970005251
Ni 6.951223030737038 1.7539570475207686 0.3141879432100897 -0.1730506693735084 -0.17192246930633617 1.1559828937124736
Ni 6.469316125511326 5.2430490223433335 5.703016077919953 0.03509890058566213 1.5292391956077278 -1.3342906977198634
Ni 6.70152909623626 0.1822052888020153 8.761726357141127 -2.155765613949874 1.6050435443325517 -0.5048304492915305
Ni 7.209763086160642 4.054150579522233 3.5922204750970077 -0.32872556647273066 -0.7477086809811381 -0.2662127926504899
Ni 3.3333249213559446 2.252077248103477 2.8381102535332463 0.427375966557793 0.7480537230253828 0.5595149853186041
Ni 6.35497794573312 4.081203358460677 12.74649046273754 0.23200992151653593 -0.009357787065816142 0.2996633589994517
Ni 2.4262714236585596 4.115862147912205 10.874270056341658 0.5858559372059781 1.0758904591352567 -1.4783758330989574
Ni 6.196445905352926 2.8580135663094524 7.329522844930178 -1.2453495545027649 0.15988944940120203 0.3522503890675482
Ni 8.396355842219927 1.1022560621937991 10.133107506055905 -0.23080278858231218 -0.48674942342010363 0.0171158337446802
P 5.010211403412011 0.7166386779828781 12.765972137974435 0.060681119930140644 -0.3368793059281166 0.7454301693596065
P 6.9579747429678545 4.535478766556732 1.483118771233739 0.8578282580480645 -0.9287994470503036 -0.3530993673314048
P 4.580435065410636 5.524296877269768 4.434312396530593 -0.8528932826402923 -0.21497687729364912 -0.8333320726789133
P 8.455155447647764 0.3668329266043932 1.018498086519526 -0.13110132152491613 -0.020362622816752027 0.13882568675236737
P 5.735639249098897 2.0569941016465196 9.477317830778002 -0.6776895714795232 -0.10750167982810518 -0.7497151698882056
P 8.081450472172794 3.8640921767254888 11.363534031398201 0.2260588461394236 -0.32542169891047823 -0.14222519935221956
P 2.4578161580811804 1.6649263061043336 11.161769904933797 0.5856420214229591 -0.35877353489804664 0.24888150046089397
P 0.8472581295405397 6.445781585735334 2.4463602936960753 0.6914483158265123 0.14738668894850102 0.2611130095300794
Ni 3.3183058063935142 5.731569849754337 2.1231112770921383 0.2478468885487925 1.3697721784559247 -1.1868818972841753
Ni 6.080720639116417 7.717354055872565 10.236025646860844 0.5122030876065179 0.34884059205505086 0.8372974850845645
Ni 1.7233125413955903 0.7890510213084678 7.215578744682179 -0.19917821969849567 0.6383681481720813 0.28749329929582096
Ni 8.477330458974556 8.10764895282897 8.410673146550472 3.0382499799837226 -0.11006712656243624 -1.2939215498741976
Ni 1.36865933621547 5.317639366988552 0.5155726877491432 -0.10735101318285382 0.053366074325966156 0.9914096656823572
Ni 5.4149466971396345 5.826553121137533 9.07422040139154 0.04062394416894939 1.2627613222213092 -0.7227473830501101
Ni 4.674012878329458 2.798561754666121 0.18598257325005885 -0.5657823063845546 -1.5174802552995865 1.235080311366273
Ni 1.4512047594891067 1.2840562482619653 3.523007616628552 0.6329202376836325 -0.8993248346299545 -0.20337503138866264
Ni 4.080468478217867 0.523212686473457 4.554628827084058 -0.3494121482878047 -0.11932026972958805 -1.0405835563038468
Ni -0.03178908210335487 6.0216362675944906 6.28804689041859 -0.15851339498928185 -0.5023189957235865 -0.06276242793920159
Ni 1.2533106961034006 8.991278142786786 10.907760386207118 -1.0304341265746704 1.2842405751410075 0.3961512042155565
Ni 2.663095767907127 8.544893511297904 9.035728292873454 0.5951790143791169 1.0177932978822084 0.5810158355048575
Ni 1.544782572407929 3.0670778093858706 12.5605648427063 0.1326954054849134 -0.4422258870864319 1.6847971075131114
Ni 3.1419253621160723 8.09063647520792 6.83498794133208 1.3518078806680203 -0.5044064743802344 -2.0343776630579806
Ni 4.500819977105204 5.677675569947256 6.861003620527858 1.9239022453135315 -0.008948981663171684 0.43386054584087214
Ni 1.2513724494629894 1.5006989438423621 1.0354141111087092 0.4609324623569997 -0.21039157191581184 0.7758388635584509
Ni 2.423221670650898 2.539911467206096 5.377589059996388 1.013553291658932 -0.09491098764728817 0.42124671373160355
Ni 7.979798162586096 3.4088063082955697 8.975778599865619 2.2766550279387956 -0.9901140867993851 -0.5584094109592511
Ni 0.5317611808979447 5.318401805240468 11.708940605923164 -0.4866568637062974 -1.7503982904526885 -0.29342303451669466
Ni 6.646752960137808 7.141584571633941 7.474926249772571 -0.8871131230551109 0.5035562105647973 -1.2851841700011994
Ni 8.64127305514244 3.5909555624790706 0.12970268845475622 -0.803583637771887 0.6826893386869597 0.048271176301562024
Ni 2.2886375401832764 6.558815353082553 4.417385348737767 -0.6194774819151653 2.8007795495732473 -1.7561634750712403
Ni 0.9017871621573474 8.026591662047025 0.7813164067528922 0.623651667897513 -0.16318354677144156 -0.1814725748886165
Ni 1.134058004701403 2.333998023170725 9.608376373280741 -0.4579996049809209 0.7738442017259253 -0.6571873377611134
P 1.079180822569564 4.543066405063746 9.291915812919761 0.0618039206806742 1.1340917500663372 -0.5186447294668035
P 6.954419759793262 1.9827987551318118 4.628923382431545 -0.44299927491734675 -0.12551277169354513 0.1090605396747928
P 7.3426569920698 7.531392610429486 5.204179369100505 -0.3365790010788784 0.15789710156152162 2.1011684954302843
P 7.0672789930828115 5.0002445901189 7.767804503141776 0.06887779680832008 -0.40876246522166376 -0.22250892400463615
P 1.9819628288556157 8.98209213975166 5.034508381439918 0.7571626273051862 0.20962024096742607 -0.6422636265717455
P 8.951824259750923 1.639912819839687 7.963436972580235 -0.3077134829974378 -0.6626673870390781 -1.1014968468494515
P 1.2840195042498246 7.303258225052148 7.571982802040795 -1.0875398704487271 -0.013782912716705297 0.1873092361750516
P 0.8220811324218681 4.024259325645934 4.954673747661947 -0.465827585665772 0.43220784072879753 0.056349325324006175
Ni 6.087022237198513 6.227898779745196 2.4994269146296912 -1.467764633242014 0.9288824936824132 0.9470375673248851
Ni 8.34902955458296 5.799426854174808 9.493975728681898 0.6432195627271116 0.2019627244221683 -0.862951695317559
Ni 1.049510032766109 3.640073120707886 7.158882733949386 -0.5425526464326527 -0.60385494488656 1.2591532931550766
Ni 0.07365796533715281 8.516150507800997 5.98380738849554 -0.5077548220271771 -2.0166465643268046 0.1210274822286819
Ni 7.010922864462318 0.5563199600123524 6.397889440311404 0.0911360939858882 -0.2608008776062992 -0.9787526390399789
Ni 2.768477594726085 9.104899814328252 12.694257930879514 -0.8831531099660984 3.2563373778818954 0.05535019463553048
Ni 6.496295416425489 8.403144298462884 1.0287937587212945 -0.8571512865856981 1.6890329999713296 1.0792177237362768
Ni 3.639760796604692 4.811564087777425 12.964831650279132 -1.6349716993505519 0.230538479177332 0.1620754013089273
Ni 4.312332380827466 1.1863447339773368 6.815278453219913 0.43625012911897126 -0.07300416027186782 0.2925349754847865
Ni 9.072638571668891 8.5966474523978 2.8686564694259484 0.3409426773642128 -0.33762338318299273 0.534783286899879
Ni 6.522025410926875 1.9027427386806945 11.550844900687139 0.735293852256553 0.4052300265883731 -1.2978321977825131
Ni 4.38695028348179 2.9487988343055966 11.276117270715037 -0.5735470379316381 -0.5686480579681239 -0.5910189694641564
Ni 8.918919996879104 7.3182773400145775 12.346377565737193 0.5482239857858171 1.1114642424748085 -0.213591052689716
Ni 6.213715591058961 4.111976468628347 10.117444452280713 0.3146084103450582 -1.78297622438871 1.4218958957343575
Ni 1.5635679486147602 6.870377018024899 10.212659210940394 -1.6947727306685842 -1.487972989869089 0.68795650062317
Ni 3.970934578027032 7.769686715163673 0.5396877829169544 1.5515877385062569 -2.7263103747200788 0.836426909554153
Ni 9.001447048146671 1.3917529478457753 12.568792745624863 -0.04007758474717614 -0.7278687634370754 -0.9723423646382608
Ni 3.2766932126443966 1.6911339727635464 8.992934379134018 1.0577693240545138 0.902571109481394 -0.12762570427148986
Ni 4.631637846328425 0.3852021768737334 10.561883488326757 -0.49361169775757574 0.33843148090658487 0.3323191973612599
Ni 3.8581029027465865 0.7101809178491848 1.3591325324677415 0.283990171238569 1.168284593897962 -1.621177473779937
Ni 4.836173389908526 3.2023233320720217 4.649910643565895 0.6141928364774584 -0.09287853059829165 1.3909040753385336
Ni 0.3215477688418321 3.771359476085898 2.303686050355419 1.2762727264441827 1.0665329291797567 0.8709439694944162
Ni 2.5413995996977863 5.325318865525917 6.120795495957455 -2.02902282650397 -1.9513981367409554 1.0782309343429752
Ni 8.22916140097761 6.267655800881219 3.848058927027981 1.048869964682355 -0.7677928533255228 -0.9151553739043078
P 2.622300728428135 3.3550314465279456 1.129716699667003 -0.4201269983048635 0.8285955864351923 -0.08561464994702675
P 4.899419020805364 8.573664072803917 2.596805895604448 0.15636343852581455 -0.602015577684976 1.143892538206843
P 5.370468070443558 5.913709917934802 13.341066450989976 1.65953319074 2.5987052392738796 1.4658334776575723
P 2.0698269478865896 6.920211084490455 12.634174122227366 -2.144341945493965 -0.4975197745627302 0.4706152368624024
P 8.360493686370797 8.021107618235055 10.443274735737521 -0.5483926501531975 0.2089944344579691 1.2290549311077994
P 4.828438775352951 5.375061071961121 11.174596320971743 -0.991615096824944 0.0030701542848914866 -0.8946156020797432
P 3.826925608445371 3.319573474812362 7.048730615754287 -0.32817843572000904 -0.231980096719865 -0.8048367934526978
P 4.675923566960764 7.753041677664027 8.722925598921062 -0.9202926951308732 1.577397243370193 -1.591331594063098
