# total energy = -340864.8126383358 ev
CRYSTAL
PRIMVEC
9.33125828995460 0.00000000000000 0.00000000000000
0.00000000000000 9.33125828995460 0.00000000000000
0.00000000000000 0.00000000000000 13.65723972539008
PRIMCOORD
 96 1
Ni 7.577224494077645 3.434080412555707 2.580207742700044 0.7205169510576946 -1.6156375177983142 -1.9128207906883894
Ni 0.9798661211569574 6.842574514374121 10.969372097300292 -0.1627796264648035 -0.45122783347472617 0.9203132639561633
Ni 6.111489075407888 6.523212193081691 5.646490070599328 -0.17061274935597714 0.7566147252215163 1.1210364595442759
Ni 8.797949058980409 3.7685127162845817 4.843021126519946 -0.7520913834298659 1.3743456567592203 -0.6572572717671004
Ni 7.6859803115988505 7.108963281306373 9.98004221379842 1.0966009522097306 0.7011789128507151 0.8747155207217064
Ni 0.9623606802586491 0.25105377675513024 4.8768497378678335 1.0309941128431988 -1.6569425471946884 -0.927890819193105
Ni 2.3308923793987275 4.056260733865142 11.439085253890209 -0.6897609008217604 0.5254748650147596 2.3263945612557677
Ni 4.594441066386426 1.9644538591020508 6.81238136132793 -0.03235373374035719 0.15432995303555355 0.9533853639197839
Ni 6.013706817852785 7.068288325615688 0.3992322950797334 -0.30832026334350127 -0.4833676514320643 0.22055745670522017
Ni 4.495455076488103 4.493355543331323 5.7314110545989205 -1.55987980331172 -1.5087439038678532 -1.0440260063264923
Ni 2.007079047813923 5.330891978975543 4.56699503583515 -0.969159338924589 4.137590956832435 -0.6773954372778721
Ni 2.89232620803866 1.549866045076552 1.2701046516243828 0.1285034788907529 -1.0036805126299102 0.7317310746059591
Ni 7.0076818018233045 2.5121894003013026 0.22212314298054875 0.4825839791885044 0.5473827208314443 -0.2169910795102005
Ni 0.8121488807124353 7.315669319035225 3.136249037067518 -1.6654202456483964 -0.7177113632880995 0.9331654373284831
Ni 2.2775082496656673 0.1611228400805377 6.948502960577531 -0.36157012380657727 -0.55123294781547 -0.3842397974899512
Ni 1.2154617351231018 7.162757986412315 6.33090895280835 -0.6662715594505687 0.6840049721745898 -1.5985849331914015
Ni 0.7738617940653945 2.322923484661438 3.2045071928090554 0.8137412950311791 0.4882139237807721 -0.5308986071334922
Ni 9.22189612525591 3.329178404784502 12.057649712540746 -0.5935965003833454 -0.2696177045669808 0.18811064903042443
Ni 0.24124942347589118 1.1779874010891964 10.686052694991767 4.110569433938269 0.8601831314334863 1.9837714108653384
Ni 8.921457596149923 1.1269360859747806 13.158436812892216 -0.3031140365522134 -1.4536845009998642 0.9014765908656346
Ni 7.266194986603012 1.5736700854452004 6.89025537892752 0.20690592736005656 -0.8438489130498371 -0.5346385337918986
Ni 8.983706421433832 0.27614179828988056 2.288816801811008 0.6474348863600398 -0.5418391653053959 -1.0007720807338636
Ni 8.484110842704927 5.5362823092594775 12.375180307794615 -1.9892247206704257 1.2071542743799661 -0.15555739768475146
Ni 0.3314463010170093 4.905414586310211 2.741758887544565 0.19640374227715207 -1.126351443999286 -0.771452047344665
P 4.40763860298385 1.020466426779846 2.7687187595293152 -0.06953137123191896 -0.19455151955976172 0.17099250129289906
P 7.056232339666534 8.53923058651426 1.6729024205672525 0.9008212166698227 0.8115062350530733 -0.7271449978971736
P 3.9993400571702162 6.050714588962961 0.7199345850891136 1.9913217124087705 0.371450873255399 0.10461458808829724
P 5.351336766293343 1.3013839631570157 12.450404247987427 -0.6854455612758582 -0.36498352036350046 -0.18853076728697854
P 5.125464323657709 5.4429323994798 7.6095414415526506 0.3769856870306991 0.8261687221612545 0.5436505074825217
P 6.833401887293611 8.670166805429538 5.917053642573106 0.28719916509416993 -0.7061159451410162 1.4407017155869513
P 1.9027275842927178 8.918350287077887 2.4233128958343375 0.06579118746319637 1.6941649218812567 -1.1727868526436898
P 2.324360498466523 2.6514864268098024 7.0513017026885665 1.0162961445113916 -1.0255030078216403 0.5081073202705895
Ni 6.7644345559080055 4.08438514690752 11.38813098386393 2.5114347988909844 -2.3206504596831388 -2.2033729314151924
Ni 1.476419709623149 3.133287295627687 9.027982309769857 0.8287300551305276 -1.1201985370240128 -0.16646170330208104
Ni 6.579498344200346 1.1161211574027448 2.7633924771920264 0.8308180480078078 -0.06420121726825717 -0.27117347908987494
Ni 3.569952867204037 6.566779838899496 6.303936017061736 0.2980996140567576 1.4971207178066281 0.19220898746951415
Ni 5.146842236822967 2.9065283834369677 3.710576798667622 -1.565982573775348 0.5510539990354446 -0.3656432654346864
Ni 2.7794646367886395 5.46374110587811 9.883867732078485 2.320715508593119 1.0252818929497698 0.336326261638124
Ni 8.242795167293867 5.7394518000264645 6.4626196661770186 0.7592552481681569 0.3921685654187246 0.04333311556999634
Ni 2.33680839727161 5.893016320742594 1.887622143074071 -0.4681456922759873 0.925137167707368 0.985260872472142
Ni 7.830670805505657 6.2444781711875725 1.6406032024833483 0.326922708936037 -1.2155648670411645 2.4997794740402433
Ni 3.300279497288734 9.029186975238925 12.64641293100102 1.6270930679334237 0.27831780344414003 -0.6348454797308034
Ni 5.493423839085742 9.016589776298245 10.989489357445635 -0.7947935502840828 -1.2020642614515686 -1.5937558872338746
Ni 4.2813866758228105 8.285327043420994 1.446028733897296 -2.22519491238629 0.01030626702201451 0.5232038095923957
Ni 3.1346123343310768 1.0121242817035734 8.85088808768423 0.011033889216658417 0.9548997436817814 1.4424153558439483
Ni 7.549016099708996 5.061573196882274 8.780635842006676 -0.7812248104607127 0.3312665877270295 0.04997607480781071
Ni 1.6516887375511469 2.075533159983427 12.938077277763362 1.7733975795613395 -0.3313671178606358 -0.8768202257695351
Ni 3.198494129848038 6.322207554280807 12.446839707250138 -1.1149830542613441 -1.446344001474393 0.5194787953323247
Ni 8.327550988018459 1.2675301574112467 4.456247927755469 -1.5064427665385023 1.1127960739123546 0.1421290400939875
Ni 5.143165720983983 4.376322899543166 1.5979929437850355 0.2495656710121121 0.26001771958337155 0.3974760936745671
Ni 6.442020913094389 3.8655951294540905 6.734426161779611 0.6486656734433474 0.9183651390908572 1.0966024948716275
Ni 5.556027252191685 0.601149530959431 4.9208951441195365 -1.184005861287961 0.7825903233496715 -0.5001620972815837
Ni 7.831062718361589 8.369411013535416 4.04022123367319 0.1909602026640776 -1.3480155035051233 0.0034938720858714023
Ni 7.2321918807216505 1.2842704351146397 11.572462530022436 0.9892512245784576 3.0652653322303016 -2.248117582620735
Ni 5.4908577430052325 6.053635272865504 9.710338983855998 -0.5380781556010669 0.5943305503358925 0.04121735477857418
Ni 3.034711881102245 7.873062712755664 8.869721366663473 1.1697910032401595 0.5662199081426055 -0.5461038541190208
P 3.56889843499641 8.930350285476194 5.446725556049716 0.47308195323534 -0.2360336979639483 -0.11394435012965537
P 2.613442886008948 2.1249235110893685 10.940118601982492 -0.3622578939022213 -2.2261842728827532 -1.1575016443498451
P 6.7969913167258085 2.8528923097250933 4.95950415918395 0.8372632894125194 -1.0397471764454804 -0.5488621335904482
P 7.078907297759758 4.65969455689915 0.4833367939627995 0.6187118073937345 -0.5514702606372567 -0.06167228019881636
P 9.132148081247419 8.632104602111735 11.687674645282202 -0.19882109346939308 -0.2593772577858952 0.5827629001029513
P 9.021684643425365 6.975880872941942 8.132900003112915 -2.5871805264637313 0.11818332791166744 0.5175383837765023
P 0.26684506547165854 2.597579746602166 0.9276857237671173 -0.14341124924052076 0.2571645664052926 1.3933648781742005
P 5.332291667746729 0.7301345837276747 8.84614967463084 0.18388067010947687 -1.2489095039398814 -0.48116987244979714
Ni 8.705121699675308 3.642055501437101 7.4013498674746465 0.8760959460090009 -1.0331327564527562 1.2359992236361166
Ni 3.017421059148852 1.8351972667121972 5.00532343767167 -0.3001863213824572 0.37493600359052204 -0.6945462380255457
Ni 3.8306309039498467 3.5103727818438566 8.85900068380203 0.724224481816269 0.7783577733255628 -0.872763282091342
Ni 7.984776539213311 0.4942450351195811 9.411545555619078 -3.281294304937549 -0.8566542923446214 -2.2571398407240033
Ni 6.170779891755355 2.6849296571826904 8.824503021221515 2.09554163616181 0.6733554628805435 -0.45547606722811884
Ni 5.82256531925953 7.33810166440811 3.0049209052963075 -0.18401539591512822 -0.6037176479777473 0.5339913871262029
Ni 6.320667896632502 8.021672335221792 8.17552425869894 -0.11879345069184057 0.6047728287151392 -0.6475086770207688
Ni 5.39252494120013 0.8774788875446505 0.7439345818857281 -0.5031024108568303 -0.7369447575964148 1.480291047843799
Ni 0.4836923149106809 1.2056639137247946 7.944580277082373 -0.3009594521030559 1.5903843996584803 1.1680753061006335
Ni 4.380204703068591 3.0060742488437655 13.41826570511684 -0.29006800200153265 -0.11356074153799153 -0.793980310354168
Ni 3.1886496521573577 7.645268030874267 3.760493432751529 -0.13478057014871628 0.037129300752129606 0.02330782148800502
Ni 8.747877526005823 8.764673791260064 7.024860648675003 -0.5907091515332213 0.0018313967817839426 -0.8089341034505231
Ni 1.8720650689452545 4.704465935060175 6.5871733042956855 -0.5090989947598974 -1.1117884585834465 2.3690885005798683
Ni 4.872848494233934 2.1299997156995385 10.598537621136243 -1.2016801386392724 -0.04151251742148979 0.561084129577937
Ni 0.7333081447348786 8.674235234124454 9.378262822891953 0.6557413493432062 -1.4833290633391742 -0.5659134326457802
Ni 0.4822170429458501 2.3125191314622837 5.9414455522256535 2.4355687436902893 -1.9529233151362302 0.16688593532369325
Ni 6.928683367577527 8.95269864952281 12.89012673984005 0.6823561237172571 -1.5722828049617632 1.7702513206228736
Ni 2.3862733984453475 3.8898097451956204 0.7744431314683607 -1.0075199409806583 0.13564111837679865 -0.2133948775185099
Ni 0.2099439844195296 4.537408414589805 10.0346300758747 -1.1624430475155207 1.9760233914888032 0.532463894738083
Ni 6.97924012599279 5.034671178700065 3.9248308913765593 -2.4587742352724753 1.362613970144589 0.6291060061438649
Ni 5.496400510539131 5.195952650174671 12.69962163307476 -2.2447232122272047 1.527808376698472 1.8696072314153929
Ni 1.4723886059621312 9.078334713624526 0.1825362120279992 -0.8315693243515356 -0.14224576817750986 1.218828368283785
Ni 8.85200503932364 7.601289809683582 0.2559498880767413 0.6791378738902755 1.1118977304678013 -1.1331209015126356
Ni 1.5075207941189175 6.241632137352827 8.369730142575246 0.2120329641739768 -1.1283401922945406 -0.06342114456912304
P 4.529308882233872 6.0005777371790545 4.20201872374144 0.020264920896623163 -0.3768962126406864 -0.24150089172610661
P 2.5990167604072507 3.7498968556277985 3.6784408776070228 1.106826743702797 -3.6455270631779535 -2.3132608520872866
P 6.5440768870308474 7.027650694958901 11.875243205005543 0.07825255315500071 -0.2796882014291054 -0.36922121259393187
P 8.797473164798205 5.917734824441751 4.397767997769441 1.1404701427888553 2.067020388793666 -0.2936981425549523
P 8.366928898781177 2.652251590004718 9.939124645387395 -1.5528365233116934 2.294989564581925 -0.8304704348604021
P 1.0739252065807032 5.581044356162029 13.078228114422286 1.3540272569168423 -0.3607658827377271 0.5697708587186574
P 4.725461266627975 4.378403770182997 10.870630586374004 -1.9560592896620506 -0.5106259729273851 -0.732874444181783
P 3.086519028153102 7.653554188399692 10.938260748420202 0.29638674513070895 1.7580925737731528 -1.2602246718423846
