# total energy = -340889.10915644915 ev
CRYSTAL
PRIMVEC
9.12295484764866 0.00000000000000 0.00000000000000

0.00000000000000 9.12295484764866 0.00000000000000

0.00000000000000 0.00000000000000 13.35236658194051

PRIMCOORD
 96 1
Ni 6.414951596794554 1.5289251088055966 11.58169596378956 0.46217713339737826 1.0119154989451928 -0.03907922538964882
Ni 4.965824973150586 0.587486355288766 5.964061418323902 -2.1810783816830503 -0.9711928244148499 0.6541585782371185
Ni 2.583876226747209 1.6454526097738698 4.789680787509372 1.77928103492531 -1.683291212391546 -1.5543979542615423
Ni 3.358488068304725 4.493666450281019 5.302905378871744 0.7084978151096314 0.40346547848878256 -0.2995425171508712
Ni 5.190121938531152 4.763696787802347 2.6430477112285544 0.17947277084976831 -0.4513443044479324 0.2841354385671816
Ni 7.396982937452881 6.105692553866229 2.5597423622626345 0.43547776972932095 -0.36643053722267216 -0.3609594868057719
Ni 5.062592154139429 4.43579042537358 11.522785395813944 0.28147203280240557 0.5955695649493162 0.4831789324600259
Ni 5.8590261034489295 8.2858780331112 12.46596937057365 -0.4763698799579925 -0.07306740940963544 0.3578101425435128
Ni 1.8625241949957516 6.811553808459296 0.7631789546700624 0.39774066018986337 -1.2690700380481563 -1.6583520259477054
Ni 2.651176263907074 1.4827629577917814 0.09019135520805943 -0.925220985670426 0.5432373312045031 2.26467188743499
Ni 0.35181032845374743 0.1650534095567288 4.869848752338207 0.12295143872427212 -0.7752094575045682 -0.09997297555122782
Ni 8.763318746778593 2.6444982610331382 1.4871328531150259 -0.546348366029659 0.18839269904721748 0.049147151148612137
Ni 6.959081109653843 0.9095111487929077 5.06429905897237 0.38578168805577434 -0.7730533303935138 -1.8324290797031992
Ni 1.0017916606377584 7.748773195406187 2.8150664967337113 1.3548111862707184 -1.0835554318796823 0.5036107179518166
Ni 7.817633257827587 3.9361444398548766 3.855509379743057 -0.06052479685793448 0.4154301070498265 -0.423095079794252
Ni 7.470997469305664 3.735402943628001 12.782046909878996 2.0349499906216826 0.3128901421023708 -0.9348081151382288
Ni 7.902467614008905 8.809635988023087 7.023598645616234 -0.9023219695850653 0.2996566741312323 -0.9483094920587732
Ni 7.356239821558078 0.7102101671203959 1.0631043025979459 -0.0027587936920597652 -0.34066936909816814 -1.6891826381753166
Ni 1.92083812173099 6.31198080657856 9.420094855657284 0.7089755260769983 1.0181789633564013 -0.7142645423900795
Ni 0.48344453018561295 4.958280289575798 1.3784045661589484 -0.5383293523799245 0.2431556537207103 0.663584756647025
Ni 6.293972093910324 2.3426653032679057 7.024933333895547 0.566560836421792 -1.639388854581641 1.2644718771545127
Ni 3.8874004926479966 4.474252802581929 0.5033134133265197 -1.4679587515306913 -0.46218818914097176 0.16274671634433907
Ni 6.202532718493037 5.67256203139925 4.790801998647633 -1.4724764368953867 0.1704083466546549 0.367686006896328
Ni 5.102295253193208 2.83145497263909 9.668782040550784 1.4550168466580424 -0.3261601197383996 -0.9955771667964854
P 0.5352346319821204 5.552613422401298 12.52998058254765 -0.5215670453199212 0.7769182126655587 1.187229253321265
P 4.028632955067932 6.255956741484519 12.650659940220743 -0.17387110839227476 0.8156886485655371 2.6739472877373302e-05
P 2.6779338901765444 8.600848045710404 1.4883881716880498 -0.44070636511811195 1.41758955504952 0.25550106265994066
P 6.327900362610004 7.851406436296587 5.680430579867516 -0.3679922252828372 0.38273364525806985 0.9550460394516584
P 4.545922735065038 1.1217037778167283 12.616758128089824 1.5948534911734273 -0.27294214095452346 0.10005987883807929
P 3.953943324563959 6.010193463587056 8.200422403711693 -0.3273315143386814 1.0566868896236123 1.300862757078721
P 4.7180911370280265 1.3122823024567682 3.791818383480636 0.08323766507441795 -0.17249402553909002 0.3856024821654327
P 0.4149667195680637 5.822516038556184 3.8084020906175753 0.2708325508106884 -1.3806124636045383 -2.1131956017981475
Ni 1.2904784406142744 1.0871369022848418 2.4821917731503738 0.6210355704309046 -0.5992357009469939 -0.35212234813011617
Ni 2.0117939805467486 6.383422665193024 5.205473134481933 0.12811010010707613 0.6324276143179302 -1.6745813433223742
Ni 6.112790212658472 5.516559505245843 9.302406914845346 -0.43144216620736664 0.9461024571051255 1.1891102723940619
Ni 8.459433124195552 2.3403754416267066 9.975339776578874 0.06268658039594364 0.034749230555727255 0.6002206905680824
Ni 2.090442973410405 5.18095336901161 7.233671099957128 0.5912156588559947 0.20316908602544362 -0.6095458246237502
Ni 0.41187951168208053 0.07568220798031797 8.983632630117135 1.5704012716683342 0.6021454183946211 0.8112169859474287
Ni 1.2583747628637574 1.1267122799721798 11.294592928756916 0.03378995196625149 0.5848354663612638 0.14643512366850908
Ni 4.151756352317428 6.8112253820884465 1.7682676511529578 -0.2240248464285303 0.6467797692745442 -0.9872475638848673
Ni 5.5858027317665675 7.8462975816389315 8.28296689825181 -1.2409133731082822 -0.1396129585403531 -0.7337756158398137
Ni 5.167524379625773 3.220330041634128 4.935995648018201 0.6256460726197225 -1.0827324217577545 -0.857231247894014
Ni 0.6423417698798669 7.467174951267169 6.907059284806792 0.18575731830689945 -0.24714034940007115 0.22309976351109964
Ni 5.142408885210549 4.465841438306288 7.369905095471832 -0.08956000774801996 0.12087398736995311 -0.3674494654054898
Ni 8.168848769631907 7.471033961124648 9.029577654808001 -0.22410815017095598 -1.6975042706671346 1.7885616888962874
Ni 4.487645300148783 0.35588372774775306 10.272603046311929 -0.045657392827798786 -0.7100952415037384 0.5043239419687572
Ni 8.143970472040074 7.008217343914793 4.852329942339821 0.45493047913729395 1.451618876720087 0.40320219752506686
Ni 7.28770818550753 6.316770357820111 7.254220555522072 -0.3457781510796432 -1.0296278286232914 -1.8716360889199635
Ni 2.5794698396049816 4.77460784167834 3.0146174473662586 0.44377549096173896 2.1094577320222703 -0.8826275764799314
Ni 2.564863989056934 5.2310475135208705 11.484531021973801 -1.0381386943077797 -1.078698360897697 0.27439687112317906
Ni 1.1108565846239564 3.189293749588871 3.673128742237605 -1.5113324905306358 0.18095501182224966 0.9427667078636731
Ni 3.8033507105748185 2.7613359424627695 2.3791781050470737 0.44059760745438953 -0.7439263311205704 0.33476611623985575
Ni 0.9729631236409884 3.307664087415799 8.210903766419158 -0.8163399089962908 -0.4335376152838146 -0.4923701120409908
Ni 3.5844454114490283 2.654652109665229 6.982740580491635 0.6475408158102848 -0.4400803014983389 0.3696801545082214
Ni 4.213144714802006 7.092513445766108 6.319955181321875 0.1245213543145533 -0.12541198444962273 -1.5657776568533937
Ni 0.6609790541300888 7.341460634869861 11.299373357043724 0.5434605029589028 -0.031319893159204124 -0.09884297571184267
P 9.352944434955251 5.674578204398076 8.147427159593263 -1.186905294322943 -0.22633626817052632 0.1535020578176195
P 8.554777124244048 1.580223483341305 7.779422674170222 -0.6455713507887397 1.1943640645938334 0.9627626913696259
P 1.6635434290348177 3.1679095436646847 10.383227083264185 -0.7488996159654457 0.42903741342061597 0.7014277956367274
P 4.0148299245375165 6.353371652260315 3.918786193860018 -0.480001820283625 -1.5999746144500768 0.8212998241047276
P 6.986577695257724 4.008471225079685 10.659261237303733 0.30120396401369415 -0.23956459393534227 -1.309254837797158
P 6.338756678757522 7.767493498544597 10.35422612242272 0.28777714908482693 -0.33906242962236444 0.10178251795614084
P 2.2521017315062166 8.445967642990732 5.694263716148591 0.6867681367420236 1.4184902124869183 0.8160558020969687
P 7.02707449137439 4.158516461784076 1.524252331384791 0.03464252977453389 0.3726513213214034 1.0614017786007783
Ni 5.642018378910269 2.818181073483932 0.317166820101996 -1.4936229890660149 -0.940568928881406 0.579893034754324
Ni 1.500853777052729 1.1086761984397069 6.87114129967705 -0.2858609058987206 -0.475791124636387 0.8108524035191583
Ni 6.892884950018221 0.44328163421264444 9.124019394632136 -0.1946782749456131 1.7915498249903339 0.394056783580373
Ni 2.5615341105747125 1.6312025544609094 9.141003599482417 0.6438803362395621 -1.502652960478767 -0.16690753259024801
Ni 6.402498763566519 2.2448489824832953 2.7770921976042633 0.19003254864348562 0.11448942399984799 -0.25213471729086895
Ni 4.1899997786118774 6.765628854268871 10.401693768260662 0.3737746362925692 0.9607621159998291 0.11600431798247765
Ni 8.31768977630985 7.360582348017086 0.4242256063395896 -0.339219524025519 -1.7442597816551186 0.001183735895456026
Ni 7.727087931975389 4.076127057474636 8.326589218664392 0.1925252331583523 -0.30840099598276566 -0.42770763886559887
Ni 3.1466713050164317 8.558006650224064 12.469401426149025 0.35411829551422236 -1.8266818928067767 -0.3175497523615693
Ni 0.18589388737806467 5.0506137145581755 10.396659721831922 -0.9352349182630022 -1.8341892569274152 -0.3325146012015176
Ni 8.638525848810612 2.3666404283399025 5.709926004856205 0.9598444892815663 1.3796639836483402 0.7252860903115639
Ni 3.571855733899806 2.6282594015855905 11.454688012409298 -0.9126115244365316 0.40934456297737887 -0.029441445189568653
Ni 1.0947545694975958 3.3972241341554477 12.803784174151845 0.042470253349068794 -0.10674808949153229 -0.7718713942702706
Ni 2.8189656475920724 8.242589612842316 8.058927200195077 0.3855734286997102 0.5688635164130397 0.33364434393058673
Ni 5.620269254796249 7.69108875254841 3.4658734563222184 1.7977703519787487 0.9157780950899712 0.24729307292785155
Ni 3.4677628202500763 8.610582238424188 3.757582671206022 -1.2541021038844145 -0.11965117070644557 0.012072872004134046
Ni 3.17722408046016 4.019601229869577 9.03825723395317 0.6736046027768723 0.897052750766326 0.8031732897073458
Ni 7.4913507813435745 6.23296689552507 11.615637916921358 -0.3148084421710063 -0.2720119158307702 -0.35636723944939913
Ni 0.6926950063039089 8.796909466152679 13.217561260421055 1.1654283553960896 2.2146701015955665 0.48063971097794
Ni 4.93596554226754 0.4642635178325405 1.5492884560937266 -0.6687233634251709 -0.5558123396560363 -0.15050620841408918
Ni 5.931809036411027 5.799544438506226 0.1680183698491181 1.0321176849246805 0.38136556126594967 0.7505338091347591
Ni 8.123005922034194 -0.13237863483912388 11.289145612478192 0.005035505541378424 0.077949162981969 0.20710390230347556
Ni 9.126147779974334 4.885114192514377 5.760144221550008 -0.05720704533861115 -0.48551863633679615 0.9643040677148166
Ni 8.097315681469984 8.559375093435936 2.8992531231280765 -1.6099546084809242 0.772829901528798 0.2616071755576785
P 8.471448055595788 1.6559348847768094 3.551021642146792 -0.3854433308797491 -0.25449241888976815 -0.5329148662325726
P 1.8742198229798843 3.1504664541906897 1.5915487193627575 0.05884355250076963 0.10588959814597892 -0.9978549070870686
P 4.641786743534044 1.1130552167176975 8.204601629280749 0.45529223335208685 -0.21713917505229058 -0.05818817830495786
P 8.590429631390686 1.6682417507289116 12.710144342049867 -0.33820445249744335 -0.8359761951699797 -0.20781584076883564
P 6.436700720908573 7.722398733236042 1.300113193121328 -0.5839273527246976 0.6946251708925973 0.9069566401435993
P 1.7933721980224868 3.127111690041408 5.958012899327428 -2.210300254662645 1.802660847301831 0.3991056588581901
P 6.833549252351451 4.1199811009377605 6.068570338710041 2.1016243520207807 0.5528478577110737 -0.26200261122388424
P 2.322959721016949 8.467981332792379 10.360781877703062 -0.02045852496466799 0.06450846409603084 -1.109848047027624
