# total energy = -340854.91214924835 ev
CRYSTAL
PRIMVEC
9.35899771326566 0.00000000000000 0.00000000000000
0.00000000000000 9.35899771326566 0.00000000000000
0.00000000000000 0.00000000000000 13.69783917534681
PRIMCOORD
 96 1
Ni 7.5678818484419255 6.988662857445868 5.083432099848422 4.828361786975949 2.1240400007118194 -0.6838316798215192
Ni 3.8596224568146322 5.423417334830614 8.131530275439207 0.23291752093246984 0.34371484079271125 0.8136675043704503
Ni 1.7875778651979803 0.3813847600459517 5.76826924846843 2.5600728716136616 1.6494015016226367 1.644155936952981
Ni 7.23790231759575 3.3079469952099276 5.923657618443815 0.5890608172965209 -0.940217201968942 1.056653979503148
Ni 6.531007883868865 5.05022731292094 4.857102529469894 -1.0079143482055997 0.2724574880086211 -0.9103934337392903
Ni 3.469005981718857 4.666077905038698 13.09377739726387 1.7227172795976524 -2.045196350940039 -0.1417112358302785
Ni 5.22920877947895 8.946050371735488 6.865603272239952 0.3761323378914683 0.8627750605303787 0.9425291379315702
Ni 7.8783104336888705 8.361075597329414 10.386344855767321 -1.2320636360271362 -1.3671799922487164 -0.564329633098428
Ni 1.8836386146620778 6.814435761574508 9.068860071710432 1.840244719092876 -0.003486415886703673 -1.9301297142804825
Ni 9.413934729486718 8.262590867534918 12.631516861059112 0.28198085411802404 0.6746968073997864 1.1542255447017347
Ni 8.225089364894366 8.340663623968034 7.3233986307781755 -0.32466939412548607 0.45204544428001503 -1.4383648399236584
Ni 4.249976879982796 7.944282006464827 8.781670812943835 -0.02342763489532094 -0.542737251639633 1.369646708621654
Ni 1.5021565210430137 6.051415420351892 12.8995145597272 -1.3831138898701536 0.36876946976849395 -0.5235272543700854
Ni 8.328740261261753 2.0371823262470334 12.652337822607512 2.5195471435854735 -1.5262592870437972 1.6733479851359052
Ni 5.70771559929582 7.710082455160308 5.234368394753653 -3.0143330641568085 0.17493605932167935 0.024794433335860525
Ni 6.455340389771317 7.520955835404806 0.7200503763926757 1.4086485438061482 -0.6987070542714547 1.1605949385631884
Ni 0.9302824712179842 1.3343122614084537 4.00212535914951 -1.1664776225962106 0.7243697491448816 -2.8273668131434726
Ni 3.937199186384771 7.125631784609456 4.162759447175813 -1.4955536304298243 -0.7144902852476405 0.19731674100972468
Ni 6.870926669969412 6.108308765635626 6.987363828604713 -0.19529199727021204 -0.5142800247402045 2.5348734895298985
Ni 5.424587209507447 3.3536844155753838 3.9150071317151225 0.016892919100596714 -0.7130149862536945 -0.7901354826867811
Ni 8.202805592050053 4.093007775344074 11.802811332381427 -0.1229295843474012 2.088545150239319 0.5173103269260962
Ni 6.8053762520771155 3.094430828191814 0.5086774197825199 2.4734611478606885 -0.6080371012887077 -1.6617014020359124
Ni 9.005152440409082 5.325756196808609 4.851883952511478 0.9355604199232209 -2.6589438723499628 1.6611815249767004
Ni 1.5885307081829352 7.738093934422395 11.089482587931961 2.8544083906422975 1.9745321516552579 -0.03618827699509897
P 8.065499740979538 3.042450956550778 8.48913943845295 0.741454215430994 1.613065386195764 -0.21887466968615857
P 5.289695979769914 1.8082331724921408 10.497051500285625 -0.35156364741316876 1.0991031498062942 -0.18931598219243526
P 3.770655827390849 7.880687619032194 11.534703197543845 0.23857291944603431 0.14699331016482428 -0.09805698947543758
P 9.00689321392821 0.6832592216558955 11.04660808487565 1.0022021283121707 0.6076249534519536 2.5204632276418395
P 8.810129652282342 3.2043896888166854 4.256575909059875 0.17976716216173558 -0.47355246511385535 0.14496368132930518
P 6.036871538369506 4.680181914142594 12.76001589556243 0.3774806243892466 -0.23735447365790088 -1.2194757720597966
P 8.794088330713612 7.001231990973761 0.6750045859361629 -0.00983035582686049 0.6569533673734363 0.6247567280362337
P 3.7466967940093125 3.060972412434395 6.41401292898765 0.013992714734666225 -1.0858334292805816 0.44904728088363954
Ni 7.646094989836261 4.267702821086168 2.520922697418184 0.04260935003009436 -0.6589477720956458 1.5116741901407709
Ni 4.7665373832876865 1.14438076787529 3.4065842766622816 0.0670667117415103 -1.513444394667316 -0.2997577184854708
Ni 2.8717802796969893 4.90666965157743 6.063649501772339 -0.9824827955063725 1.161811841689425 -1.1406380358252872
Ni 1.6680541092153236 1.4803313390720203 12.715306093113101 -2.6958204336613383 -0.5817144042337788 0.6514136685021297
Ni 5.750439422493756 4.087383017897862 10.249750288500321 -2.730125891811427 -1.7437640729656225 1.1180452381264359
Ni 1.5577021706990364 6.568247334581807 4.459098997714726 0.5110440343014102 1.0150239626671873 -0.1028667521592551
Ni 5.786265664597084 3.798891922590886 7.8509166482561525 -0.22231943370164936 0.2595729187364691 -0.7432735280279199
Ni 8.92130518257112 4.857282222220256 0.34181304717727506 -1.1497574816280522 -0.018782165703509587 0.6661327198798593
Ni 0.8322619476952565 2.5382256118384126 9.814706652677144 -0.6925186660725557 -4.770997904344499 0.7154912157083291
Ni 0.41055488318797223 4.49430286648998 9.78869519116257 0.6666659666755099 4.267915805202644 0.6951854142714414
Ni 2.3829224087395007 1.9421978614856221 1.8687278599810373 -0.5870543283894535 -0.4862516578480787 -1.096799698484098
Ni 3.662091457380762 3.9938211207434797 2.2170360513640883 -0.46370205468233694 0.9872218528532546 -0.2527371267615583
Ni 4.577307814560623 7.135009500018948 1.9211766173925484 -0.8511737288460244 -0.47725665343831997 -0.017215335437021962
Ni 0.5568266537817348 5.149713455438805 7.600327620679078 -0.17307715173606966 -0.8783569741290357 -1.4629312164091128
Ni 4.9983878262411245 6.529604034256666 13.083914885788298 -1.8554962459353075 0.514752593501249 -0.9302526345570625
Ni 4.405018031154097 1.0430134668770787 8.437827799227321 -2.652976341912618 0.35691822685686275 0.9209308429355042
Ni 3.0105929293512657 7.756428210357719 6.633123904660249 -0.33279305167388495 -0.5990135576338587 -0.3215097654505818
Ni 3.0415056978118966 2.1726725318191042 10.728352570090824 1.1431641446812506 -1.7602628419515944 -1.557510531748595
Ni 7.5137026124084425 2.275022527545855 10.58603216820553 -0.5512434893384313 -0.42392066101934095 -1.150491017359967
Ni 7.526477643879458 6.407806041902246 12.599819808615132 1.0861373336742455 -1.0204986126285134 -0.6634317760089284
Ni 6.150255792048144 1.5702338682372698 12.782960413624215 -1.8932698651396556 -1.587638461482227 -1.7010230824536707
Ni 4.691197454099652 1.986943228125124 1.1373671352127417 -0.42482671777337805 -0.21651131166030455 0.660705635327017
Ni 2.604580903508371 8.606917741417773 2.763224332784576 0.2641407406128096 1.8914821771116135 1.6989731419031773
Ni 9.163431804685857 0.4115338343175459 8.988521502003227 0.06040601189188306 -0.22776940107262708 -0.34907661932525685
P 6.452850896459017 2.0005512103660434 2.2299533395958053 1.4943058740656523 -0.07926196825612156 1.9473072545010335
P 6.385016883197542 6.298446157111913 3.1340792848392907 -0.7320570904868102 -1.2614685715518146 -1.5840281184231493
P 4.89671167832823 5.7048611050843485 6.125618231354045 -0.22466222290221308 0.5854736141658949 0.4188748710653173
P 4.795952712161971 9.107942309014323 0.5067915818034653 1.7475695627546417 0.8808098065449023 0.1568231517710525
P 0.6168075323125662 1.1970906413146698 7.27597659087808 1.1779532273359778 1.4222278251524798 0.9368755391902187
P 0.8454646853481211 6.943000309059729 6.5847013879365255 0.41376763174573905 -0.12368754555934829 0.599270153729355
P 1.0177535328549043 3.377007037132723 0.13340876454705017 0.9202507861493442 -1.41468266581537 -0.6993793977481311
P 1.2533662927690365 0.1964359967363543 1.1417911332906527 -1.3925464960379628 0.8737675549861402 0.2702221709201992
Ni 2.9466522590142907 2.4805648287666764 4.022521422215284 1.092732213282944 1.0805271865763195 1.1637586810031506
Ni 3.6894946018108943 5.854820320659488 10.767734295311982 -0.19655389470177115 0.3852880362488074 0.20580318121418104
Ni 5.766022153189169 4.718563162540126 1.2568890193959157 -2.5673148978880556 3.5906692347978093 1.1058201568151538
Ni 6.654518572750168 8.351782112896654 3.084876227731185 0.17445963390589309 1.5333233929794303 0.30979736210966
Ni 5.220205423966044 1.609560375373682 5.760804512130496 0.19545757631379884 0.5407793565823138 0.19581007455721114
Ni 2.056883015804898 3.288236946654648 8.055465959851277 1.224887172883355 -0.37007559017442715 -1.046956549709726
Ni 9.160530515487313 8.870429672625013 2.697049669764721 0.10587699974048864 0.20681979540415352 -0.42559496339797026
Ni 7.21500085092207 0.16183391149486356 1.154005560816529 0.6182006720852707 2.7382984003198905 0.04547664427556039
Ni 8.825291228094095 2.164857768977861 1.4767365481650485 -0.3685198156515331 -1.91865642353356 -0.24373620881452862
Ni 2.8529967718857616 8.328627953292777 0.4686012569531929 -0.09930063207455157 -1.0791087089622382 -2.168702890836833
Ni 6.537353284116006 1.6197336055634204 8.516233735968399 0.6104945616902646 -1.2015348713106597 -0.74645269708685
Ni 7.606103993883408 4.959491832985786 9.6349502611332 0.45329165798229026 0.5889836842016825 -1.778821835900704
Ni 1.8332310545867048 3.8596973287939496 11.701679878118066 -1.058526256825196 0.17677285542010202 0.6420682227314877
Ni 8.597577461997938 1.3969613901022055 5.7218607879883425 -0.09400801621704455 0.6159437577302941 -0.39251129347012403
Ni 6.0123790421353345 6.30825438640248 10.773446091434149 0.05560833339292359 1.6887581490433883 -0.13786383705973032
Ni 9.040922528527924 6.892003132147232 8.919827396879343 -1.285467248459257 -0.29120340115755655 -0.6744792920723416
Ni 7.206428009290239 8.681274975877267 12.552781487609037 -0.8067985451647589 1.670302256331046 0.7257496602115436
Ni 0.18342231083126592 8.55621069342513 5.394784418140195 -2.611982673109076 -1.8669582238283202 -2.0412941876721553
Ni 1.320601330195973 3.0921659508174653 5.647797426047668 -1.0940614736173286 -0.03339400207941346 0.7956386718931975
Ni 8.61349711660028 6.524625047632066 3.010757647705764 -0.1493564110803621 0.6586276697520657 -1.7781728894627955
Ni 0.7142215928028238 3.78338406387479 2.313510468513914 0.7451432342468071 1.0352731998345266 0.7832166440797608
Ni 1.354499618831881 6.88946684384786 1.979871569678605 -0.5969337922866945 -1.0049562940185404 -0.928432293518872
Ni 3.765068505934295 1.9436485060848947 12.892967005135903 0.979708575195345 0.046553165169190794 -0.9147704797610632
Ni 5.522248347529451 9.181962619566889 11.084976230676801 -0.5552202145979922 -1.0999071337648283 -0.7615844105219658
P 9.341730064432594 6.4760237740577224 10.968462328262701 -1.5411197490953974 -1.7606035131204645 0.7078221291988455
P 3.5468447632166065 9.289226088936338 4.847555416207197 2.1812323907624114 -0.7920162446492618 -0.658482659533769
P 2.9314251702206344 6.065425839481643 0.7389050125842551 1.3292222820580204 0.5138619633661796 2.0434798824695646
P 2.451542577783807 9.349030082416032 9.180222781947503 -0.02224364188954879 -0.7287807337283836 0.24522667731712605
P 3.0985955820413387 4.064444115234524 9.845458446382242 -0.5355836713139873 0.19357038659341502 -0.7937939053749747
P 7.138874765951203 0.007796044846413985 5.148127105377019 -0.5687596438453236 -0.5522310500626813 -0.29518732550596904
P 6.492673430458407 8.27084550325465 8.48152402225664 -0.44087657214738907 -0.40015749716147214 1.624746422078118
P 2.1183529108244024 4.716410593134753 3.591203603262883 0.9728267604738472 -0.24224805430477633 1.04129395210731
