# total energy = -340895.9846029319 ev
CRYSTAL
PRIMVEC
9.04036597362186 0.00000000000000 0.00000000000000
0.00000000000000 9.04036597362186 0.00000000000000
0.00000000000000 0.00000000000000 13.23148941659845
PRIMCOORD
 96 1
Ni 6.30672208928158 1.9370521143435182 11.348542376662666 0.789429457758692 0.4701151572975323 0.08845211939582186
Ni 4.716883314162448 0.6446368623793494 6.119233033549332 -0.6516880052094388 -1.2912635434260602 -0.25369203447565986
Ni 2.7635042987165463 1.7638025391906518 4.9198250675991835 0.30768597219361205 -1.2662793626768967 -0.4624404143610939
Ni 3.3216655395594348 4.399105406825859 4.755899725999473 -0.010223734610537232 -0.09870927834745581 0.18546704075999026
Ni 5.196845388595804 4.35621791024241 2.909922067406581 0.6792528022015851 1.2907950884300738 -0.705745706285791
Ni 7.258690716016454 6.041152295935171 2.6735418079911657 0.3567678173219275 -0.014005827360788784 -0.4189345206586591
Ni 5.226127134260599 4.359237392506085 11.926547221004851 0.44700273964978504 0.604083001736966 -0.7914989386932111
Ni 5.514415367513037 7.841595438762567 12.361770331885895 0.319043049077644 0.11963240165336815 0.9215988155368063
Ni 1.7729785107404408 6.7052575866223725 0.30396603607179346 0.7257645726098791 -1.2918731519856008 0.4113055433584916
Ni 2.8131901505762915 1.4106135180013295 0.4032862097047477 -0.4363318901995002 0.4215858422385772 0.49744058458536267
Ni 0.4570917563775359 9.143697442958853 4.774556329435237 -0.40406865929042024 0.19358324210922143 -0.13796308164175594
Ni 8.61315452042592 2.1670480672481345 1.332755173392217 0.4219730503746668 0.8774645442217534 0.29540072706835574
Ni 6.871582241374117 0.7451015463553611 4.817876859552905 -0.32696384658661753 0.05821980287384166 -0.6095013445390599
Ni 0.8922335039640491 7.3998921934904995 2.6799848768813477 -0.031642823716261634 -0.18767279016205743 -0.13200660694800492
Ni 7.4962715360444925 3.7274785315776464 3.7523178413610956 0.8679506911940471 0.7388124069327727 0.43666999026520925
Ni 7.722136041660189 3.781747849029257 12.364483345740172 0.3233853852067399 -0.15107879308810754 0.8960153106407471
Ni 7.818171850303942 8.964526428037404 6.817366262082255 1.323294603719676 0.1463515628157673 1.4220547899097251
Ni 6.854893725629378 0.7219744819034688 0.23663700581148842 0.7312888448622179 -0.24336391307677444 -0.1667391253331838
Ni 1.8504815689634384 6.536654759623785 9.162184991549314 0.33604524006259545 0.28582928132983676 -0.2352680234425174
Ni 0.08299327253057073 4.827446991062863 1.3596285655389198 -0.32573588771678746 -0.547943478430921 0.1149769051592278
Ni 6.331962791318045 2.146336588607182 6.987126255936383 0.11898319810514346 -0.16350082090154422 1.4971986222324152
Ni 3.1781949302046035 4.183863331329376 0.42988296665004777 1.0638402128389421 -0.10059363985436225 -0.47767780013613853
Ni 6.209836486228289 5.660986822426074 4.834561759151222 -0.8075889022765381 0.5499047159223497 0.184680797413269
Ni 5.178113750121751 3.1246940438680006 9.541399418549014 -0.09914867987771957 -0.6458711414173457 -0.863597556431674
P 0.1326013772422091 5.580690291090875 12.408742265854755 0.6123429277529131 -0.5500947204459687 0.6114103886363147
P 3.8895813353798827 5.970854409461121 12.71752591299934 0.4787108693863432 1.222445910431714 -0.31470739781676765
P 2.415784698992862 8.544447738378238 1.4825088371579875 0.40241826817119075 -0.1948803636540902 -0.3502001914067388
P 6.426958957865025 7.785011787599877 5.7940167130194755 -1.5837764074236595 -0.14257126983772864 -0.6189362646997147
P 4.785373127424717 1.1316730232537984 12.575551484227258 -0.5894161437534107 -2.2713032767085783 -0.8692395852087996
P 4.059377490698246 6.370375306702335 8.100079393192006 -1.0362188515772475 -0.8061925361496438 0.36412297213541805
P 4.7247665133658145 1.0589884801401974 3.7661848588588507 -0.25107336590589013 0.48816147327628184 0.2868872902807059
P 0.34893281684878974 5.466998647534079 3.676184398596022 -1.0128066433008946 0.4738406857782355 -1.1920989227087404
Ni 1.569073054281826 1.0860462957545018 2.8055655058422104 -0.5193764654265056 0.619936423829455 -0.9664619945980839
Ni 1.8648015088007446 6.451096735242302 4.832788039330465 0.8219896510829006 0.5699017278695668 -0.8759748470501043
Ni 5.967663160242327 5.686471614346129 9.139942074897982 -0.5378912364012414 -0.375241964866715 0.1585481048819592
Ni 8.917814856611038 2.241829975287401 10.219711644497787 -1.170697831325145 0.22712482551009272 -0.13649986683266815
Ni 2.225123378810544 5.384857881522862 6.903926863059669 0.7944189405534835 -0.648626849785612 0.5484461290989522
Ni 0.3980581660128826 -0.1414283906621245 9.119725104280452 0.722157314874595 0.5025961606443732 -0.22823219964165856
Ni 1.664231947417866 0.9778692754936379 11.382667046425215 -0.31113459286384476 1.2773597888607744 0.1986675986106643
Ni 4.165258257980148 6.824255925055747 1.6387860290718645 0.03182820025419035 0.40029685095281387 -0.7325831381936093
Ni 5.754536530403629 7.787344202043074 7.992335406465364 -0.587319409125382 1.072859642728733 -0.18002812913260607
Ni 5.2848804732774255 2.9101028747277593 4.92661257443621 -0.4097256004658814 -0.08273012931038011 -0.22169362719219238
Ni 0.6793952618026295 7.325697909245062 6.733650664303577 -0.5843276734869098 0.7407967843526532 0.6320203515771825
Ni 4.764309074507467 4.663454750754316 6.8609109932781855 1.030674524720251 -0.17995562402345783 0.16173035926468277
Ni 8.09457200218892 6.960837775473692 9.24345245819924 0.3642970358194371 0.29929954790212965 -0.014333900124168865
Ni 4.479862996830062 0.13197307180111517 10.358510192673375 0.7609766017346379 1.0416343661658642 -0.09881392224612015
Ni 8.115934387186115 7.2135792893825155 4.584658016148289 0.7404548276322023 -0.057341256923630284 0.11584362403489727
Ni 7.421498668371284 6.218334430323661 7.007211237209454 -0.6180371499242131 -0.5879413589800971 -0.22566701001764358
Ni 2.3837546820461597 5.239072938456951 2.3732524887955293 -0.30949371482631216 0.0032012805461170677 1.7203773186105662
Ni 2.3196584866885193 5.135081607681361 11.32172232267571 0.35801223125198983 0.359740012576374 0.7740190367408928
Ni 1.0209194986661463 3.368078778905856 3.835372588380867 0.16759890223031781 0.21309842932401366 -0.28131802372304454
Ni 3.6240386631316492 2.806247149443052 2.794451279809392 -1.0323118032133576 -1.2827580770582103 -0.47524810764872355
Ni 1.1017313308667032 3.368485595378507 8.2620990256265 -0.22792469570356877 -0.2132272415923941 -0.4660520429717522
Ni 3.491696744395331 2.6650366316029475 7.218822701696681 0.31992802278575866 0.8099450612135405 -0.9040371525039591
Ni 4.252018651047465 6.951544279165137 5.930499119410773 -0.22135604134711556 0.8625814564623339 -0.4856127387124992
Ni 0.7699055987111804 7.2662575024077585 11.214441202691283 -0.166457589537023 0.26355735730551383 0.23980833451503214
P 0.253152850564503 5.512788101622435 7.9507090409471335 0.22201578641830153 0.2381569149545382 0.9262573973547402
P 8.377924195573199 1.6698912165707407 8.056640434278965 0.24289468674983977 0.08199427958562008 0.6188804717611148
P 1.874447579385597 3.0951230064893203 10.452969361476457 0.29770752082466145 0.565353189266936 -1.3704339804096397
P 4.242707074006792 6.164716019228292 3.7947117339577274 -0.8424564035776846 -0.02939593666361389 -0.39917482153322864
P 6.90039388800385 4.168413345734707 10.404674821953177 0.10920323590024418 -0.5230243465917379 0.0028071304314919395
P 6.2911636192942035 7.675984972929476 10.28140943074 -0.38932723931518753 1.1236795535940778 -0.45719022170574813
P 2.2868057964304564 8.553262095285671 5.66310407615707 0.89080239898124 0.11043839385892593 -0.17504970208140821
P 6.832473617803291 3.78634939535324 1.5171361512734136 0.913472072664614 0.6571695971493003 -0.2733298633112454
Ni 5.122226207145596 2.68864102738275 0.6469692768225471 0.269078287123743 1.3574082575739332 0.6365503782370522
Ni 1.2994350962089087 1.0604168579775046 7.003691822702723 -0.3355289625478093 0.5773535561619219 -0.3076389210057605
Ni 6.752620064404979 0.6939755641824324 9.340849745971466 -0.22277709006435825 -0.009215347950680903 -1.0528160938142965
Ni 2.685440737797897 1.4579669554178767 9.003367456772885 -0.6159892662562488 -0.4597803510304275 1.9606098851472102
Ni 6.463174664297 1.8560865959199597 2.6342044631590498 -0.13382103444892435 0.002641037167272871 -0.291916110953865
Ni 4.103856091708062 6.726954465163747 10.50258741059076 -0.08422856823277752 -0.2823189541837331 -0.12031117288794763
Ni 8.27291130343295 7.142178478249279 0.5914831260994082 0.6077285689093533 -0.7625729996874803 -0.9253436272912191
Ni 7.602730886754164 3.944185146375672 8.272433068068436 0.4374888866220788 -0.37462541432863866 -0.08230281196497438
Ni 3.1466530930250824 8.320318983045851 12.324325135669907 0.1408118639444607 -0.2872385029725376 0.6182600645682965
Ni 0.23223253946758965 4.857325400887547 10.208252980518123 -1.1078981223901048 -0.5514234665597213 -0.1988347203161479
Ni 8.486065054369826 2.4485289048582177 5.8941921052816015 0.8798204460484396 -0.3735398945739438 -0.20899520578891748
Ni 3.6027124395986907 2.77256274550757 11.649863201625623 -0.17611645278302573 -0.5173118695879929 -0.5657661084346386
Ni 1.1628622861570224 3.308611250970375 12.573792228992195 -0.647329471130427 0.049955763092836544 0.38133779335180773
Ni 2.8345977374037803 8.3075268650725 7.714169671089081 1.0612788798696688 -0.18116172851641701 0.7194219182213029
Ni 5.545722155175028 8.07410461343156 3.5152758271501687 1.535608589469181 -1.127007075305414 0.48279918052310405
Ni 3.2014015498778146 8.315654154159457 3.5386424613026217 -0.639699465388995 -0.05802902701927425 0.8322604368812893
Ni 3.284301706637978 4.460480451999769 9.068691333841324 0.08261057301338032 0.018503972341458456 0.14660841602157978
Ni 7.22609115600804 6.226271871723379 11.535490818504591 0.49943833174168184 -0.9562616570263145 -0.016848696126222598
Ni 0.7169579827773821 -0.20552910620279438 0.11645076327797432 -0.2511934364235222 1.095937607594119 0.2515510768732571
Ni 4.837319070799188 0.3471554808816089 1.5155748800550406 -0.9831083449055134 -0.7437808066816417 0.20193855605245223
Ni 6.184821793343298 5.659468040928178 0.4912670521900166 -0.5503160924281554 -0.14158962265074967 0.12087424448026923
Ni 8.105366199263255 -0.07319803590574656 11.245918853271787 -0.48472082302584907 -0.48280637961195555 0.291798097318762
Ni 0.00557519374852706 4.80690727937703 5.8173571301103575 0.12691839379182013 0.15520592788260365 -0.4128289219815535
Ni 8.064214452963116 8.822583640546528 2.344633401962852 -0.1025196532324815 0.8708295554037389 0.9366767929158514
P 8.492773005985535 1.7655834913042563 3.6774012318675515 0.16443721667288452 -1.3709029496262584 -0.4733236369325009
P 1.7363740685679323 3.1300640213069904 1.622286456977756 -0.28576603219206914 -0.40768440166613656 0.27175043463926746
P 4.706975072961887 1.1985898128218173 8.278969252729024 0.951770196913864 -0.5530792569955895 0.5003670142035384
P 8.785843592883134 1.6014827666030025 12.433406192536664 -1.2403515870675412 -0.23095036990377002 -0.03638728037978249
P 6.4345528653545045 7.758912250787817 1.356373129721108 -1.4346724786737357 -0.0015146368723135202 0.34716089035978276
P 1.7519958211177211 3.2878093686688334 6.025725815292254 -0.4244094277303014 0.2687378730651888 0.26648892913001204
P 6.901822265841157 4.0162911060615025 6.026255580743306 -0.522910446721693 0.45180401769317025 0.4170884685888559
P 2.3999369372916006 8.459820871700824 10.21579535792107 -0.11272461878994135 -1.0096891807178354 -1.4333349908092348
