# total energy = -340857.84026231867 ev
CRYSTAL
PRIMVEC
9.48550448835858 0.00000000000000 0.00000000000000

0.00000000000000 9.48550448835858 0.00000000000000

0.00000000000000 0.00000000000000 13.88299462820227

PRIMCOORD
 96 1
Ni 1.7891274277021618 4.3575839161995304 8.290091067548357 0.860004439763777 0.2998412793382127 -0.4869630820928066
Ni 1.8424739057682795 4.383185293208857 12.943560124023072 0.5629317243096369 -0.23565137492386515 1.7912641754291152
Ni 3.1355663540981853 2.079042391360203 3.4057211145010107 -0.7210717951199 -1.1465533728684576 -0.5680703310877829
Ni 2.8240528963867026 1.4817022224882783 5.716240172565176 0.7492665123865612 -0.3012934384037069 -1.536741931742676
Ni 7.84665605702746 8.53296077386918 1.1572562277577088 -1.0867675110590767 -0.40974822617370077 -0.3579042449192159
Ni 8.505746861071936 0.14065580547713888 2.91967721716059 0.3747128318361224 1.9959067606762915 1.5583505111513871
Ni 8.317288854987721 5.352091649635187 1.2667844012252862 0.9196964563077709 1.2069832960197409 -1.2933582211715597
Ni 2.1038185294663023 8.748765489815524 6.867389632439001 -0.4244125130540949 -0.32876490435109834 0.3316165148672805
Ni 8.483342099124538 1.4607297717407344 9.428496751945326 -1.7379834617281034 0.2848525192388643 1.2817036676517668
Ni 4.529053383482819 0.037299849875425915 7.02061657720864 -0.28992684843797806 0.8503481476209354 -0.47141562127651077
Ni 0.7766048238640925 4.097851828289424 1.5135099651801545 2.2425709417708926 0.37351624042486 -1.1753456145098016
Ni 3.8662063196029615 5.610495766896421 11.890160686511793 -0.7615964947068239 0.8250428360869275 0.17918763550918174
Ni 9.12914371117566 8.361794842734204 5.649990562544341 0.6280145728518991 -0.19157778164341843 -0.6841193862652669
Ni 9.206972276704198 8.809093299292856 13.363298446865311 0.9996320535921492 0.5021572733347416 -1.641409998776728
Ni 1.543367488119116 4.761457732540065 10.883865316466471 0.14195729040281357 -0.15926210022984827 -2.7287326110083265
Ni 7.410588437956412 2.4223702316168065 7.0243235124199215 -1.3802306547850876 0.34603680405766857 0.22070915179173603
Ni 3.2104354421806653 0.1370370854589625 -0.03313286768935807 0.691663517161112 -0.852418656996719 -0.15984445509587955
Ni 7.048801805680488 8.604528906338748 9.227582381174692 0.7700343410615319 -0.46211902646593317 -0.3820049946221615
Ni 7.282657436946858 7.0212369292117565 6.524076968989814 1.1155790359741304 -0.821898634030991 2.958202539711828
Ni 7.832854647783826 1.636259035007717 13.230355305206729 -0.891714112162232 0.1417678000998268 0.02922830073749805
Ni 6.995265617521674 0.09888923146918542 5.610840090714665 -1.1411139470204412 -0.5245304988236192 0.5039061377050483
Ni 5.459448591091858 5.589931192848174 5.637426063105083 0.9963888640645033 0.3572915510358814 -0.06475477577888203
Ni 3.290227507168607 6.474293246464526 6.541722853261932 0.5363074368538893 -0.4768108241501531 1.0573389213853144
Ni 8.573852784349803 3.005197578397487 2.3656345827446748 -2.6324072595120147 -0.44270154117126986 1.4225111607208534
P 2.8928417759982756 -0.2870930260291886 8.808316436463265 1.0730643025403712 0.03706142362867166 0.13412596728385287
P 1.2079410732233016 0.6353258207324473 2.5562761519958213 0.4261546925561822 0.3051218110108616 -0.26865045555770506
P 6.742220810379101 3.3467421437827483 4.34408604310421 -0.6295628911756255 -1.0039106263628452 0.7177339889959188
P 8.91017083668129 5.23954613714328 10.50448497019392 -0.7036875382051816 -0.42313673166546484 0.4467384302448048
P 5.442346226235313 7.8125082403421775 5.85440318742429 -1.2642615609159193 0.6500656391146675 -0.0014079360911201557
P 3.754400676472568 7.274291221858965 3.460197316169133 0.4486898975442208 -0.5666492823705402 -0.09867971066110102
P 3.979482215951749 7.519937335386392 12.970104360193098 -0.95590067414247 -0.1839441763575606 1.3001076240802514
P 0.3734462145730218 6.933733148955723 0.7862553762795386 0.22856464328041282 0.28327874699384115 -0.36219207366129236
Ni 0.8433030982541555 3.488227930915432 3.888182336740867 0.6119600904921977 0.3769692319704669 0.7011747990856569
Ni 5.899414752567809 9.41196351736687 13.642791686581099 0.38880247715996913 0.516492201900175 -0.9006222132851391
Ni 7.1877454775710445 7.4099908511644195 4.415514738655648 -0.07382974149695672 -0.03194929921308691 -3.3423767740711665
Ni 4.978248940968431 7.723553177877019 1.2035682555866587 -1.6976024868078958 0.11599583334204538 0.5091036227455877
Ni 6.031272752496171 1.7249864453616408 11.091360730352733 -0.45025492803849554 -0.29834335463644746 -0.32522115286389797
Ni 5.242619440644955 3.122637611280952 2.645932193253492 0.034906582069197944 -1.0489671523818516 -0.009700258006899424
Ni 6.271597497923476 1.2136418615088167 3.5875876434145035 1.8256485664462556 0.7402275421127446 0.0665190667681564
Ni 6.008365258803128 6.48957439443119 13.238087888585019 0.37670080880042867 0.9196596895325646 -0.26429063592711255
Ni 0.7018040314149829 9.175689082418625 9.33603679551761 -0.9987303677134863 -0.2636987679793845 -2.9070103331087287
Ni 0.8264625333255308 6.817943593878714 8.882700815258907 1.1925835756546428 -1.475144470645853 -2.1829732847129177
Ni 0.5763942775373588 7.0084789254779505 10.921988508144198 0.07351143892558953 1.1845553060335277 2.1314486344710644
Ni 5.015024242437551 8.51318349670562 11.410183717935793 1.023493433590779 -1.7043218078096003 -1.6439798163864334
Ni 1.684748934700817 7.550774710954129 12.843561088511617 1.2408038441136113 -0.770794102045692 1.2657013786862394
Ni 0.6289876065354737 6.2117534491825195 6.652619785048312 -0.2060024417091807 -0.36870622063072633 -1.1999973516202107
Ni 4.121252568223476 2.8587698433500726 8.423202102638976 -0.5068330815438562 1.4609658651526258 2.001843952096333
Ni 4.704449849684915 5.240874107792151 2.1722583425073148 0.388830245074111 3.203551344429115 1.5304707540219835
Ni 8.158710188503125 4.904783707571901 5.026393568292824 0.5181307659448625 0.04820818427411052 1.4008768702805292
Ni 6.9775656658731355 4.9956643274779235 2.9808871785689575 -0.8368089754839202 0.25307496971695126 0.6267601316195076
Ni 7.790549297112615 3.881060619861059 12.103167178590873 -0.2277724863964206 0.3498322665443588 -0.40930162555458544
Ni 4.792987549946142 0.670617589276686 1.7531033782001164 -0.3714755558457473 0.40906919782880513 0.7162064966077988
Ni 0.08418005943200031 1.5482620085106733 0.8638619809996221 1.2639661411626877 -0.503115780593269 0.006997257253439562
Ni 8.565287373664578 6.353362547875455 12.643048903137496 -0.5367452957222563 0.05715588038570157 0.31859953378232225
Ni 0.2513127539962578 3.3006141347437135 6.456939515735159 0.3591376031056847 0.2534215544230926 0.1377890179577369
Ni 2.795311817343257 5.077524232476252 4.221651892030523 -0.7887488867518996 1.7364019761735967 0.5324788071364184
P 4.316843673793063 5.238047427410981 8.84349532750235 -0.4188895263533367 0.11783982852931964 0.904452642774823
P 6.783520697559022 6.9489573838945775 1.9875869498733112 0.1586388648235526 -1.1658111926568053 0.8735914344195923
P 0.8017679705592913 0.6555147687971566 5.844101929390897 0.8631509558125586 1.5863012307280422 -1.320861311687835
P 0.46027462689905835 5.999145348298101 4.316653015149903 0.50682485401374 -2.0192613762418326 1.7788480611529494
P 2.6345135427741195 3.645175090602841 6.17186595364272 -1.8933593395296684 0.49805764934407126 1.1767046996408574
P 6.165502128583232 1.0013657532866167 8.516745303695988 -0.1148707185986667 1.2877015371064147 -0.18022764673792188
P 5.7470965191421834 4.4536436216361555 12.78430893525987 -1.6720860877043462 -0.7890643611097894 -3.111039453141623
P 8.916203617629023 7.943446146320964 7.821123924201968 -1.09433966697938 0.11876131190232452 -0.27902922768886784
Ni 4.935953075801855 7.9031137806137925 8.462740531608215 -0.7904764109659677 -1.2516754967207926 0.5024516646467088
Ni 6.474463985547953 3.9154835161807497 0.6693342004995975 2.556861563765216 0.45008292123700555 2.5147615492713724
Ni 9.458376091544949 7.517357278125727 3.0846348855120875 0.040506958975110884 0.8235806497191043 -1.7791085139031875
Ni 5.0698030317035245 2.3015438735787184 6.667335596938742 1.74884945790833 -1.4778821812919902 -1.1418719082323883
Ni 4.383318090273744 3.6378712520340444 5.100015312515827 1.2419191886649774 -0.755662388610576 -1.7829348296278134
Ni 2.5692342998774227 8.322325657948799 2.0696631243773127 -0.7953170268877205 1.5158288357390926 -0.016500825868500615
Ni 1.7085480658295318 1.4333546053647002 12.54560431402419 -0.9433637180177238 0.4816581249401253 -0.3009900482306752
Ni 2.6753486402269355 2.271370483335418 10.248773787698504 -0.49397730862711053 -0.03411468229552189 0.30058252837961136
Ni 7.698169967474293 9.53615722955031 11.347668551089676 -2.504940706526208 -0.4284630289743846 1.2439130791665545
Ni 8.430289671702099 1.7821555817955832 4.8736114936905555 0.9018152051519759 0.7390972851630432 -0.5907238068212407
Ni 6.396464680935988 6.075958964830716 8.62038203023489 -0.0627526577471887 -0.041576795000521936 -1.7730558799512046
Ni 3.0443442560253087 7.208158283545135 9.934754259662506 0.22084439181801965 -1.2270512704142094 -0.4052189708447795
Ni 6.32250620129845 5.417930537305337 10.646049487015071 0.764162198551471 1.466748276162358 3.5090539358181627
Ni 2.23134165377656 9.201252517409412 10.93184489601022 2.0560559193623624 0.05129916449460842 1.480829179735456
Ni 2.482650613570964 6.112573012721045 1.3452333187569403 -0.5790743955077704 -0.4229392709426781 -0.3383780019608302
Ni 4.780523596856015 3.774747083914215 10.802788914150979 -1.045225683061548 -1.0830188426499219 -0.778688417192104
Ni 2.6262896102557476 2.360335031305212 0.6531889230607035 -0.10764103361944687 0.6229281594679272 1.2513157993885287
Ni 8.831934394453455 0.7786309276540859 7.289294444539828 0.49698729909802797 -1.938624639125371 0.35943482263112936
Ni 1.89141910968385 1.8660264137764893 7.728357585974546 -0.6523935159168958 -0.6195193908966944 1.7066309155587511
Ni 2.0290632674394398 7.440240125444799 4.8650868706752615 -0.23515360935184015 0.17514714689122096 -1.2749663489279335
Ni 6.940534255778875 3.642813199948775 9.410255177982142 0.48393509389976014 -1.185829544760261 -0.5407467035721655
Ni 5.009778758374507 2.4509879990999996 13.88660425206262 -0.7782382170285629 -2.6307188160659982 -1.3829781356232376
Ni 3.9618676338449244 4.521920283997449 0.22575785595964182 -0.7355861866859912 -0.2219535657217984 -0.97161654221583
Ni 4.611349621694348 9.594587938100684 4.479375898609442 -1.1673553972154735 -1.4809592775554172 0.3663492903627755
P 4.075010733128824 0.755785089741169 11.868627642440336 -1.0166301308120427 3.467153438929635 0.6165921899475704
P 6.916848950705778 1.701120915700483 1.539319074740983 -0.6007012297489267 -0.6558326235054317 -1.2577399577473176
P 9.483702388919866 3.468052262557211 13.36654723220273 -0.03512126918316532 -0.9402483123171935 0.8863968137143767
P 3.0049414697723478 3.977442832455267 2.425206397502612 -1.099404740207113 -0.5556979255653591 -1.4328223128388742
P 7.249903989442893 4.448426594087015 7.4084655820191445 0.1727112837562187 1.5520024574461722 -1.2210868253006584
P 0.509142998227087 2.8478330565061474 9.252946620568148 1.7742049059539833 0.774411387083305 0.016345788347875076
P 0.1447952796997658 0.3155713565942501 11.240019456090252 2.4687609141715416 1.019534191832715 1.7509112255333652
P 7.000378304519831 7.5132785111327625 11.26550890414489 0.6324019032863174 -0.9110701480913406 0.22979440192245587
