# total energy = -381165.8209134426 ev
CRYSTAL
PRIMVEC
9.28638311468549 0.00000000000000 0.00000000000000

0.00000000000000 9.28638311468549 0.00000000000000

0.00000000000000 0.00000000000000 13.59156037032956

PRIMCOORD
 96 1
Ni 1.0371775656080247 7.512962591360399 7.276079028508298 0.38660546950865027 0.8038420336395962 0.9239557458047571
Ni 2.8587294872711473 0.679613738662176 8.519598171298268 -0.8328759589781011 1.1347365827391878 -1.4392354154540696
Ni 5.224184872311374 1.1092770446870726 7.664919394034548 1.4587683432806748 0.9200181013132477 -1.2399859761980063
Ni 6.5254486030469065 1.2960633561497168 10.25283473155779 -1.0983930111131468 -0.3866772032868502 1.7673973961138463
Ni 8.84560501089141 3.679051432650691 6.2773303738128075 -1.464371034179433 -0.8852871255899657 -0.5814351824304631
Ni 6.920964949447695 8.183235157172804 9.019509251594336 0.06733513491154855 1.5794659529737638 -0.38589455948455476
Ni 5.271740440622014 2.8270350614472433 4.081301335501792 -0.7206560477387203 -0.31970150859724944 -0.383855674677655
Ni 1.3954369426547262 6.627970273452971 5.308795895460902 1.4230336088832265 -1.8506890543546513 -1.8881929648373803
Ni 1.964877959801457 2.9987681457605917 11.460077547058425 -0.6214508035914522 2.1112976134444863 0.5987466771257172
Ni 6.107310627197822 2.6207844908205495 12.43101812729459 -0.3256924360733617 0.0381536282515859 0.30001894256665745
Ni 0.9956302872206393 3.2643308458151425 8.581072170732513 -0.07283266769101004 -0.7359463982388874 0.4152254472381881
Ni 6.198735069693085 7.378997227476531 5.966939516190213 -0.6475449295753429 -1.87810292759123 1.4172514549838109
Ni 2.991979799649465 5.750499925928597 3.6466698144708043 -0.39683640320803915 0.4477087645778741 0.12518624159206182
Ni 2.622530330860073 7.613134806819658 9.263912927552852 -1.1617190248653024 -0.03677628828808505 0.05520929818229201
Ni 0.7059601364075608 8.812443336523652 5.126545982186062 0.43975145740401045 1.0189346105755033 -0.8002170352924993
Ni 7.268925727537845 0.688351296604664 12.791384584686865 -1.0212884555196604 0.12593546105326053 1.4222725623474861
Ni 0.44354180570079005 4.940513725038361 11.225473791279214 -0.8245795232972638 -0.4745022306216345 -1.768960112615276
Ni 8.18008707327175 6.678488198000887 7.884573001517861 -0.005195942378642665 -1.0892162297098855 -0.7638287264714522
Ni 4.476287429422492 0.64747542372184 12.30692697465554 0.6402661365257425 -1.2771209333770908 -0.8152016816267896
Ni 0.5765283847965414 0.027756070713468098 8.733352139541639 -0.14983386493741294 2.1866535617779825 0.011216694651425843
Ni 8.65594920702338 1.5919182381666395 4.852540102536113 0.08412469566506157 -0.8855974577415328 -1.3126612923755459
Ni 4.501657828294718 8.249363491861354 0.8512205281641542 -0.05613978041636138 -2.394645523113366 0.2983562101522539
Ni 4.16878742288662 2.675472001420306 10.772154352718774 1.3173185886418992 -0.9768165983595305 1.1004277821549886
Ni 6.472683373767262 1.0259689010989557 2.962008926545431 0.8878988521811998 1.4424228120431157 0.4423246174478253
P 2.5298150811015443 8.928365257871379 6.204656067614364 0.8093830180624835 0.9035262743058116 1.4196695775070003
Ni 8.062521462099577 6.4064157433308795 1.0435155221344865 0.716486746852379 -0.05504346202838908 0.5529036506496736
P 7.288102108823038 1.9471038223777968 6.321855795288891 -1.4186323944917376 -0.19608518259546875 1.4652755482715734
Ni 2.278906293719165 0.9036746636069675 11.173757923299924 0.3285077940349697 -2.2293115056578254 -0.7248685431581711
P 9.139231160942984 5.349170303651522 4.248164640470852 -0.2150784358685199 -0.1488128798720663 0.4571634822328708
P 6.519811768451211 7.358093578918193 13.594278774735697 -0.6554983800944647 1.4351995548217993 0.9214908292040324
P 5.862437988888264 3.168634667052959 1.8282826921984774 0.23261233098722522 -1.023268976284799 0.6988818892864221
Ni 7.568272289633816 3.8312459667344774 0.6773515757173466 -0.5781192306833528 0.17835691207777024 1.1492491745330657
Ni 5.895451081124999 3.2570781805445685 9.04936961673842 -0.9302873444497398 -0.6139863768936071 -0.009629809780280189
Ni 8.006988890629625 4.191585493615505 8.611422856908975 1.3438063505197824 0.20708641880197884 0.06129304248252669
Ni 7.837818848076428 1.6555206766277932 8.529478883011317 0.6365071837039425 -0.010921274898194094 -2.301942084640358
Ni 5.758727661434011 5.4251143453707975 1.297856556743504 1.805962657981554 2.8361867254279476 1.60777122767636
Ni 4.798608503527936 4.295945867892983 -0.1893409954779258 -0.10776341812992409 -0.4321589897687332 -1.4744577289914738
Ni 3.081519106357371 5.467980290171015 12.570222868573666 -1.82350580907164 -0.550519209577897 0.4397434869842104
Ni 3.292784323906101 3.9175443257094376 5.183182704617181 1.055830198050272 0.9502110799568602 -0.1002920494535434
Ni 1.4075649590995016 1.0214835780186904 3.1231638917682405 0.0317567235863066 -0.7616139782083206 -1.1564351507585438
Ni 5.30439136391438 4.769458546697806 11.002544876445157 -0.48489205849639067 0.15831336316333383 -0.6413282592416697
Ni 1.2502907734113569 7.0452167565159165 12.078793042044072 1.5202832719660204 0.4633806667871761 -0.5697968268605864
Ni 9.062674217933237 2.337308357594504 10.356905370679772 0.2678454431579064 -0.25822386090774235 0.995458124720118
Ni 0.9240889197712476 1.5318631980836663 6.879259802546097 0.40721311845667285 -0.2601796990825326 -0.06014581625196093
Ni 4.152564111455515 0.5832201525225026 3.1286279996366217 -0.7161072520257732 0.38611130348105116 0.40717686590209873
Ni 6.471178979690652 8.302574467534068 11.507281161446203 -1.5913107681274916 -0.25923636133265676 -1.4988374433874185
Ni 3.842946809552561 1.4392779576897834 5.549501733633576 -0.5346845565384856 -1.0517218323088533 -0.21393866583712184
Ni 1.881384088549561 3.5874226897252703 0.968525191968717 -0.12598714022680235 -1.0314360854766236 0.25409801166482693
Ni 4.9624481621306735 7.007170444590766 9.763089454938672 0.002775505862608123 -2.280218319810021 0.9317888686959308
Ni -0.05329269584477591 7.560007408595646 9.784197403927166 0.007542845344264428 -0.04380337033819553 2.1140201545819717
Ni 7.289272193104847 3.8655405798512885 10.918902423062237 2.0193570212794323 -1.35111985346206 -0.8028868688151786
Ni 5.891838678064495 3.609932882575298 6.671743497890749 0.8693599128367479 -1.8960232595150766 -0.5249045943335863
Ni 3.693473185743138 2.407318400456037 13.524948495123596 -0.982031824011883 0.6373990993905926 -0.9817310049420124
Ni 5.032876092235709 6.525745767308952 12.398493498813593 -1.2054362632475948 1.5561982406950747 -0.32725463835415897
Ni 0.9795834170701248 5.779315572963926 8.91762648435167 0.4148405530949436 -1.2884088475860842 0.19048609124113644
Ni 1.368320703742977 4.724651747811098 6.89177784708481 1.0994098824134355 0.7260229684775884 -1.076520379409772
P 8.337166244912925 0.13282406738994465 10.706275821738007 0.07905319467942515 -0.2986565150014921 -0.5789584387551965
Ni 3.0786960458679284 5.144609854765218 10.317108575523505 -0.7445009726771178 0.720837824732223 -0.6573919975727517
P 2.9100924726892585 2.6356334175396885 3.170271856409172 0.4787594632360916 -0.16724331866311198 0.48943494067206667
Ni 2.5721702748263686 0.4918179973468924 0.7172430919821413 -0.01612415925537223 -0.01316584795799668 0.27163190678353216
P -0.16169543272440626 1.6619282810281726 1.1398756772946799 0.07128640624981272 -1.0556710467645884 1.0427710508734687
P 8.20167791418607 9.028751060143984 3.7851817915639843 0.46561187011054006 1.1655065169321928 -0.21515274074988108
P 3.4861825401992816 8.240272122719366 11.065732213577764 0.5771931193246576 0.08011326051282332 1.0550956338770925
Ni -0.04587008976184405 2.903907741485414 13.092776936999362 0.4320857133286365 2.1648549778456525 -1.4838656525689347
Ni 0.34921443982065903 8.797306531925654 0.8778705906398176 2.217535081848187 -0.32355867755981055 -0.7796230131912315
Ni 4.726815475094125 -0.14655491357313374 9.406827578915914 0.5082908970363054 1.613993554436988 3.146960592518264
Ni 8.377905607962871 7.54982953262055 12.512811661784587 0.8851863383460432 0.8267572476748729 -0.5525609225982742
Ni 6.129588660468126 5.450819054037825 8.184389454603192 -1.0836551906823402 1.5656488445850132 0.10419549827300766
Ni 0.2646145603309586 7.478472964196619 2.9420831341368903 -0.07214181227157251 -0.5057087381314258 0.25779834333454954
Ni 4.495603106455519 8.005373059954746 7.532606077719995 -0.5823893188136163 -0.31927084881773404 -0.6323630796285818
Ni 3.715611923265608 2.947730183754094 7.309119979894601 -0.9205947997523242 0.42251066804569176 0.7108436896339887
Ni 2.449144270339091 5.825441038263466 1.245303985638888 -0.028317101777138327 0.504025436891732 0.7688279794582565
Ni 0.2830192431731488 5.1033597406398785 2.146066439477799 0.4875390092009345 0.29492892963825984 -0.052822543117670324
Ni 7.09006070093538 5.243138380400032 5.437847833999492 0.6232261503243203 0.20243246496973522 1.475542220304904
Ni 2.5714366505544413 8.09103065848967 3.2275066219176596 -0.04350229415800896 -0.08804614220665481 -0.24433733273363725
Ni 7.594190585114189 8.883586318134236 1.5572391687858054 -1.737658474288517 -0.5661885406840378 -0.4212788525211196
Ni 7.556896470227345 3.5522180110559414 3.9792829870645683 -2.056438242402445 0.5843395005614517 0.501168169948595
Ni 7.139120663322631 5.452472030245459 12.522556792303078 0.34288566002319654 -0.3734036261063956 0.5068616207889464
Ni -0.0467922276125073 2.9711132966238827 2.9238706794267113 2.089464062509163 -1.177181896387592 -2.108295336283053
Ni 4.013472664051345 4.325541571116183 2.204360781308146 -0.9950552328547444 -2.0332890579794918 -0.09145233967472637
Ni 1.4259427114304437 2.621406678494209 4.825479581923498 0.5395246582396064 0.8995711463128055 0.595177214606904
Ni 8.43097728788775 7.035744645663182 5.5825157545086315 0.7943950292940835 0.5582916544344643 -0.35958034707005815
Ni 5.516297341903148 5.235328532138121 3.887200140001208 -1.2916546082168916 0.9842702264240984 -0.5124316586775561
Ni 7.091834400124472 7.3457334028936945 3.616605148896562 -2.148267505800616 -1.7498455032730125 -0.9750883028145142
Ni 6.385493522006163 0.05725333827486529 5.138113101086224 -0.7184083893551241 2.306839007721343 -0.5461948711709304
Ni 8.199653482650877 9.215741672036785 6.646340596677362 -0.09308216196866549 -0.3687820681739842 1.8111670850006292
Ni 7.487452896740338 6.210231612081012 10.237244751460173 -0.9459793012636998 -1.0154196554437092 0.140356521574597
Ni 5.081388158014811 1.0519243421120854 1.051973559942987 1.539043326182343 1.8499190089578461 -0.3769401785047444
P 4.659665638254791 7.276717003033379 3.037985470605868 0.1704903648454999 -0.47611251253154774 0.12319595063491043
Ni 3.808457182388781 7.4373807185854925 5.343671836165341 0.45247661828016267 -0.6528848537310176 -0.9786181703446437
P 0.5451227654898139 5.05668637873219 -0.339287296191666 0.01346975235166067 0.6130666932928152 2.0372395579868074
Ni 0.13916388119304435 0.8906950858237648 12.389495922141815 2.359925860243994 -1.9965256252072132 -0.6800159056198547
P 2.3661054318634536 7.646927955244266 0.25449611720827303 -0.3949862373731778 1.2834070234961186 -0.030260341546438203
P 3.0188081606823567 3.340042727954694 9.23770768283194 -0.7667518136555181 0.059640080260136 -0.43910456784863083
P 4.846424090567868 5.3845885691341975 6.324003735720496 -0.5824921629400678 1.5027277795807603 -0.8578382853503936
Ni 3.316056000177623 5.76967630721379 7.872530419798423 0.5887198890173345 -0.336716040877375 -0.16371396535361482
