# total energy = -340888.702909672 ev
CRYSTAL
PRIMVEC
9.12769678929805 0.00000000000000 0.00000000000000

0.00000000000000 9.12769678929805 0.00000000000000

0.00000000000000 0.00000000000000 13.35930689286872

PRIMCOORD
 96 1
Ni 6.326817331046611 2.04369129175185 11.52107918290931 1.0876884802114495 0.3774664833218596 -0.3414167887871539
Ni 5.036763445256276 0.1931986539503261 5.84051555719472 -0.600435634792366 0.3121455506268624 0.11553406321427845
Ni 3.1343962815535273 1.6194450767034614 4.598326400144079 -0.47969045969079316 0.455782542724944 0.7005315090747033
Ni 3.436641702472594 4.211793089562556 4.710411777345175 -1.090764805143928 1.2401279010925093 -0.03437230683228274
Ni 3.8070618900647046 3.0998479495335154 2.4478392314303936 -0.4853381448948738 -1.0668584308399756 0.7639187150820972
Ni 5.335503830641476 4.811893509286652 2.4434570242433904 0.6087140727510741 -0.3142194024367556 1.4609157286409806
Ni 5.3553018047898 4.8036877099508555 11.626724970086597 -0.7365349237525057 0.2970405766646239 -0.46705683008718274
Ni 5.8365048472635195 8.511513281462966 12.14656190162449 -0.523800048415498 0.06130384111580411 0.7885527115806935
Ni 1.837323196998757 6.45554523764588 0.19512368518494183 1.351379277771034 0.9073582464573922 -0.04419134980523357
Ni 2.7086074857623696 1.628271559415047 0.3515532385074699 0.9351426156595121 0.7719989209870705 -1.618467531047942
Ni 8.187553070087992 9.04866910472471 6.804095463938136 -0.479422036520755 -1.4856808514008026 -0.9336534327084952
Ni 8.920315433690256 2.4850610658146493 1.3035199767359424 0.7098381311876097 1.2405192229936572 -0.2829902692191449
Ni 7.006100519667302 0.9763258224191744 4.563138216585202 0.24832665639868845 -0.23562823499541352 1.0536743280495338
Ni 0.8036015049428482 7.512998028359339 2.405396354532149 0.7652963121559142 -1.180453110939696 -0.39965381805217626
Ni 7.601299366262007 3.7830651754331033 3.9829170075100837 2.0017408508595653 0.07123369863500637 -2.7296890613843248
Ni 7.529382243940825 4.310189660018496 12.506756330600481 1.4683829835523035 -1.1631832681156549 -0.0507746594497061
Ni 8.327626703688813 7.281501384583501 9.272440978780988 0.22104750896776124 0.7363539180899512 0.17371375687880405
Ni 7.32123424833069 0.6350375916236479 0.24170232145921466 -0.6586888620073043 0.04719594095951226 0.7140035754192091
Ni 1.7805489235074816 6.306900696841151 9.416748038112559 1.9903914872850172 1.5271375758836927 -1.0012737029606305
Ni 0.05139258351531763 5.188958660078386 0.9984011568948414 0.09001123635282562 -1.164762953897949 0.7364631899743058
Ni 6.552755207530459 2.217948149504573 6.926106298533831 0.8446223008807517 -0.6550402095111235 -0.3021542437421054
Ni 3.628022119239727 4.3393982894673835 0.17958378154846338 -1.2016464571878593 0.490810995083987 0.09655906477367242
Ni 6.242979436831601 5.919000970063221 4.636574187637727 0.48513862728955803 -0.12550788659753867 0.46509430704417326
Ni 5.423786913150738 3.122648935897053 8.903377166918911 0.7831279410206964 -0.6392410376953378 0.2035300689092882
P 0.22107920352895954 6.0423709186979595 12.260650808251846 -0.9167052348899308 -2.5535422695839958 -0.04211389845091457
P 3.964989298416159 6.408993984461715 12.706904812820301 0.4123864351274962 -0.6499260282130097 -0.49852019080278653
P 2.328210725674123 8.657100043872264 1.3967018940655855 0.35404296219159676 0.13338368980118964 -0.37563945741544985
P 6.777123120181429 7.887799510368783 5.622545247162726 -1.549174501079074 1.0552429580882343 -1.0173415550567704
P 4.644117316192902 1.6537743440026071 12.72520767024871 -1.0574435652839789 -1.8914438676745102 -1.1042299295098983
P 4.052231823501304 6.204871303097505 8.063663755510865 -0.56953226034529 0.6989988744802607 0.9701098757633162
P 4.957872762654171 1.0752152884970643 3.5909682344748024 1.0813594526696282 1.2123779846727507 -0.26253842912269626
P 0.12339002956748485 5.434740149194072 3.4180850950758477 0.9815502563897741 0.4495357904842838 0.3012121915438103
Ni 0.9984969977102206 9.16238195024791 4.319157622028975 -1.226466858665649 0.01754057998692463 -0.1581074178001148
Ni 1.8907110950133015 6.6895976364984975 4.640448894888056 0.4431440280253271 -0.39139312070528076 -0.13897352518414127
Ni 6.015581128875309 5.674752933993602 9.02920794258472 -0.32635860890245083 0.981504233643187 0.695594476784402
Ni 8.727292031516622 2.3962850876834367 10.076685073571714 0.0983927755483015 0.8606824396674081 -0.027605420422094393
Ni 2.364831044845666 5.104691764118345 6.923821636049126 0.38151288547709133 0.7585157988989711 0.23494483577514375
Ni 0.8269328104848174 0.2649368734161344 9.393717033792111 -0.8507718654219155 -0.5728538685193553 -1.0902472420775613
Ni 1.673544935060823 1.215197645130858 11.386056816663805 0.5229495274897445 0.8727547974509098 0.01633550393522993
Ni 4.1468860383091055 7.155940788740095 1.5457790876940265 -0.0847564157117895 -0.46213496730553316 -0.2037910358801587
Ni 5.780360384844736 8.035640813863667 7.993394182444534 0.33991115077590495 -0.580934845755277 -0.36117314547847473
Ni 5.500915950289207 3.513277843989113 4.868559163187165 -0.12190371418604812 -2.029549902652034 -0.8061675964489794
Ni 1.125901388287587 7.649064603107642 6.899948145323012 -0.2218602346770437 -1.1893537558634355 0.33987361266975014
Ni 5.098676611991215 4.850850518814107 6.828502924921363 0.8274815274354073 -0.2265905502731775 -0.28528575012154095
Ni 0.9942891295302402 7.711808390242533 11.43034348829601 0.3271096281358625 1.6949113131289777 -0.8880518328192964
Ni 4.486226418628259 0.25155932112854396 10.250823271267299 2.1598868352070997 1.379002438804941 0.452123348705802
Ni 8.576256034175765 7.174506523833544 4.530261165831468 -0.10471691799411643 0.13882465831110286 0.849143328679557
Ni 7.5730491449669115 6.582328944847457 7.0228270238751405 -0.07406936831158856 -1.5167120096749944 0.025222779122530757
Ni 2.406060850852111 5.465765190286811 2.312976599877188 -0.046575019546061726 -0.6052119731350868 1.1868525867081365
Ni 2.7212584733924188 5.135725932907787 11.390131420471926 -0.680954358273724 -0.16356432714962799 -0.5352741104933685
Ni 1.299154199403004 3.5424408349544865 3.884325104344704 -0.9043737099077714 0.07358728646884745 -0.80277785404114
Ni 1.8220251773249019 1.5001369531014586 2.410553503169218 -0.7727455693451079 -0.39409869256190194 1.5947154229336664
Ni 0.8171387919227373 3.2654608785087076 8.000835080796637 1.037597477092329 0.8817570009495203 -0.19150450520332182
Ni 4.094082312883539 2.695545751780695 6.748587201979536 -1.1463656823376838 -0.7382346800524319 0.247837889687728
Ni 4.179125063063315 6.982277231273053 5.811071433170901 -0.4534474668338643 0.1991172845535732 0.24571955779314456
Ni 0.7037682350258911 0.27619314898999947 0.10087747841975479 -0.2702663938945733 -0.9414166215936819 0.17122415768773094
P 0.2377536798655932 5.7808441527699825 8.020660438035069 0.6163111683720418 -0.42561836043673795 -0.138127118023446
P 8.744908486152983 1.5285788560273128 7.850383256044758 -2.053150572790109 1.5599327680368424 2.369523274124442
P 1.8457298056620148 3.2483738302811083 10.085956075112724 -1.4575889782605929 0.06632263448663417 2.22061912009015
P 4.2219795990828555 6.086831929337189 3.7764621996383143 -1.1160976274817618 0.8516452691658042 -0.43563614968405623
P 6.874123153041844 3.98182077113608 10.316791873647283 0.787909678680056 -0.03272448681621461 -0.14560748556089115
P 6.443843530472919 8.123148042153195 10.098447328050474 0.569526089697703 -0.8683250438143304 0.5749917407979647
P 2.6039310599749186 8.762862665567345 5.591724666476128 1.3590000275410852 -1.097379225136652 0.9062776117987038
P 7.243174186128537 4.1621840579829605 1.3517078259389148 -0.36514370009044855 -0.8293203804163589 0.8382575350049886
Ni 5.401259757688284 3.0354703046888267 0.6579471975779487 1.8580100134960968 0.14576740817752315 0.525683638591456
Ni 1.4009554007290799 0.8792491169064561 7.015011889958223 1.8958952185776448 1.146663930304393 -0.880785123954554
Ni 6.806532558957777 1.0065932646855842 9.208863832937134 0.7849809350690351 -0.3117850819636501 -0.25159427140636664
Ni 3.0425168865433707 1.7801929433360735 9.093546338333585 -0.41788679612043517 -1.9566817537373982 -1.0753736673998384
Ni 6.861307866871145 1.8491983304090702 2.3693401270168377 -1.078794005935297 0.8476999113648109 -0.24331454789607773
Ni 4.386113841192198 6.93323411688903 10.47611490682459 -0.3545057607606282 0.04062497261021391 -0.047614002333537346
Ni 8.29156317401614 7.3974596434955835 0.3240423606452989 -0.2511705536053868 0.5693612819850646 -0.21174911438497082
Ni 7.661925527761855 4.2372776187567105 8.205646903261908 0.67021306059682 -0.3623057164210212 -0.6050476796430805
Ni 3.151483329781127 8.434356861234388 12.704887591848987 0.3412692074656961 0.6414074492190374 -0.6144247499826063
Ni 9.28040306861482 4.895713148108258 10.245559328578807 -0.8974458724396867 -0.7444924880366856 0.5396835524149738
Ni 8.869647589293137 2.3205617158371954 5.595091873789783 0.25121734768292214 -0.014646546268581228 0.20713938352710132
Ni 4.0310099286673475 2.9453981936258193 11.004568384049906 -0.7479863601225569 -0.5670089797028041 0.8454735931374536
Ni 1.0664435719656953 3.5531293677934386 12.524937789662742 -0.024254501671990485 0.17445474880988665 -0.08477004255854433
Ni 3.399336806048343 8.499245657094432 8.045415664262672 -0.8407985562592875 -0.602695120250504 -0.9302174104437528
Ni 5.890860281128559 8.12474538907618 3.4698528269256497 -1.1372819748688607 -0.37597267238515253 0.062002924065357734
Ni 3.3469164438842927 8.639748292440284 3.326507826826553 -0.21670028774265906 -0.7153107242664068 0.8565825585664215
Ni 3.3761524564232883 4.046253182160986 8.93511873220282 -0.18461857671676593 3.070155313332751 -0.7816870948091118
Ni 7.399997143178956 6.395192907047116 11.415848705932001 -0.7712872396320265 1.017452626713338 -0.6095422250793244
Ni 8.039191487881048 8.691620992802168 2.70969459443967 -0.37857128635026416 1.172944718377793 -0.9457972671598808
Ni 4.81714193489075 0.4552666922927776 1.4024998070111896 -0.648143225280974 1.1715249552121307 -0.29548865879647174
Ni 5.880144365199499 5.665935578978719 0.42840661920551465 0.04497347938689674 1.8872403711161239 -1.168396436885478
Ni 8.196516468250119 9.508139101349116 11.217034692970126 -0.04683727206851289 -2.003212036088453 0.02482554368411208
Ni 0.13750966359701114 4.9672103963811125 5.943074357347126 -0.2221250583026562 -0.3642011336715211 -0.580071212203401
Ni 7.448310041826756 6.320199750937098 2.3554596386409243 -0.38293496263559856 -0.6680345648882624 0.40192255948169486
P 8.853628481579763 1.532540276396318 3.280203934223034 -0.19344054588377008 0.564353544357828 1.1157250746336913
P 1.913858933851545 3.508221100015774 1.415538721751107 -0.3217704753111362 0.02645562308836734 -0.6309587430818875
P 4.956941737590489 0.9731585116633107 8.052536180460509 -0.3297018143430709 1.4112792965607759 -0.6273175467848745
P 8.64795409177608 1.94874499064956 12.562223517923918 0.2982389678480993 0.7662797591151062 -1.3668938284668655
P 6.1809110992527145 8.010366221693678 1.053204760667987 1.8964945427245403 -1.6870051709080236 0.5364989840394051
P 1.8963155007888068 3.149995515218574 5.996805456757695 0.3178338592608913 -0.3947828631131201 0.023611468771352884
P 7.212048740372068 4.075270129979115 5.9652245389357565 -0.2723749555971438 0.88611167837379 1.8660079440999089
P 2.6502815038316223 8.562016827319432 10.089175413739794 -1.9046274562443195 -1.0028508176397632 1.1472249450141854
