# total energy = -381167.8364869045 ev
CRYSTAL
PRIMVEC
9.27970768178386 0.00000000000000 0.00000000000000

0.00000000000000 9.27970768178386 0.00000000000000

0.00000000000000 0.00000000000000 13.58179019951525

PRIMCOORD
 96 1
Ni 8.642971200522727 2.860729705207245 7.806812937881945 1.0203631154919137 0.015025526874554766 0.11613672979528386
Ni 2.083962499295446 7.269258962929873 7.518159280672524 -1.354496740354093 -0.3387042749519973 0.9763692264094668
Ni 2.4653584824146364 0.907437552799786 2.7457355683991427 -2.0110623853708076 -0.9639011758494432 -0.37732867219241467
Ni 8.537080456888345 1.727631006453748 10.361792052563496 0.7919630228138232 -1.6010596199841396 -0.6448596694336959
Ni 4.466481031799985 2.0471777382958236 8.685038899069543 0.6102901589889425 0.3316597094003901 -0.919324674790649
Ni 3.0552230971827954 1.9128725299336817 10.672774542244486 1.0577071033580108 -0.40897226723962465 -0.0013675697714879674
Ni 3.0917944249071923 1.5069502795788703 0.5957108305677963 -1.0041271132490255 -0.2995535728944647 1.5594332026926045
Ni 8.504972668528433 7.3536671834274925 8.14186234927144 0.8822794491118934 -1.111362941010254 0.41561111271238105
Ni 9.27233953062272 1.8533988838068958 2.2171727021586083 0.1029593118730614 0.436145742330623 -0.3363054357025176
Ni 7.012925599384828 2.036459675996489 12.18294766427925 0.4308816657182063 1.294714478089138 1.9820634270352964
Ni 4.046295870835582 7.652334573128007 11.681711681033592 -1.6807332218563829 0.8748494751964093 2.056349796453697
Ni 1.7728510216785607 5.991768013632955 5.598821578441053 0.3551778471269883 1.0188788176369035 -0.7087155875473924
Ni 1.2609730697360386 6.368245751714355 12.348807590427244 1.5962146331870124 -1.5426976351054786 -1.6677265251840698
Ni 7.530371375898432 3.240594536569388 3.114549195958447 -1.2658831556797425 -0.9449575448674048 0.580276900456304
Ni 2.419331132627016 9.029907169090144 12.959241605102507 0.30802947157595983 -1.514801680026159 -0.18274655650503366
Ni 1.2009148020292892 3.10346829709123 10.228229220810832 0.21180696420609976 0.3991416543024481 -0.4982998472618644
Ni 6.387696018882672 7.675097695916119 12.02429807095081 -0.2330735868943599 1.0662647631200346 -0.9871112954173192
Ni 2.9780530486275842 4.012638371303385 4.605109655941573 -0.24920520234889984 2.321054637100093 -1.3090419504554036
Ni 2.935199358845481 7.932423988176341 1.5271225079999042 -1.284321307780272 1.20533830421715 1.083693243009127
Ni 6.766038978195386 4.862947260091573 11.899345879897325 -0.00422715070747014 -0.22733077087331172 0.04844729686811011
Ni 6.1224077374858 3.880810844875375 9.699163394417377 -1.4518669881751514 -0.7220369872466468 0.4945450082051225
Ni 7.330208082567997 9.122314497554886 0.003050239894191676 0.3682822457194303 0.11168512178183346 0.3802859550485257
Ni 6.209507073192777 1.1903544947594684 10.283968712591944 -0.8726429544633938 -0.9929520704688124 -0.5233346787433052
Ni 4.684127294283622 0.698108692254585 2.333093881757796 -1.2788793108290943 -2.5714062943486105 1.7389190861684956
P 6.413122417757285 6.823304053908974 7.652781855035217 -1.1018413746730638 1.8809293412964314 -0.19561775604074697
Ni 1.7683410837759836 6.092991064335245 2.9223126288757095 1.3919032060270093 0.11587499149346496 0.6825276162981149
P 1.3892279087309372 5.401467252606728 10.436913141676548 0.06314783630307834 -0.7072585433858917 -0.7938018757947748
Ni 8.275930925089312 6.238051453827196 6.002988108114449 1.4247189670054494 -0.9596048624669343 1.0302703473032966
P 0.2761770903163862 1.6560844607153304 6.157522151114098 0.12647616404807893 -0.8228879945274538 0.3006475772895919
P 3.9022655288892816 6.113935364430136 4.177595381900101 -0.0462906555364235 0.43904928913066316 0.0793306167105279
P 7.582068627040939 4.864543369801951 4.592641440785394 -0.1491710345424334 -1.318522379142013 0.35812458846013806
Ni 1.156752673472982 2.243619868871253 4.223366611757451 0.10031107561693693 -0.4209132416515848 0.7738089776126157
Ni 6.198408542881085 4.103161919121577 0.6425139639123205 -0.33881791771172615 0.3241346046679385 0.14106280361300222
Ni 8.4393465762506 3.9382151162032413 10.2371247485339 -1.6577529589111257 1.448225534767822 -0.9497133143848354
Ni 1.1053616526818852 3.789275808926769 6.034905662468183 -1.5403553601255473 -0.7582270640139587 0.5594764187711848
Ni 9.177528757884794 4.167822921807089 12.351727914414777 0.423468918193903 0.18632193256111781 0.38993607654378004
Ni 8.619771931476548 6.365795908903079 10.647416813206249 0.15448961854186943 -1.6683194215730621 -0.04432556139025269
Ni 5.771569831554237 6.406905013652908 0.2857463248125543 -0.16507870691162538 -0.3701663501160206 0.2174865310893803
Ni 2.3616670294858326 4.201239148941206 12.122630492729947 0.6030581600168775 -0.495547738438024 -0.30177732001866087
Ni 0.28194164468898086 8.997233318565504 1.5127668003141284 0.24767411041635407 -0.9096745532953947 -1.3017014509299323
Ni 8.375567145788843 3.6831252334790703 0.8802275941209031 0.4068770752734928 -0.27756755554167684 -0.44208576196414184
Ni 5.1218418229393174 2.963836536556085 2.6682787768785206 -1.7657385203541849 2.5069333114762054 0.04498067847574834
Ni 1.3455668843860273 1.6835431155583884 12.384541888524454 -1.1827575907031564 0.5371057643854685 0.23106786931824075
Ni 8.791390844172565 6.394952750240317 3.6659020961391864 0.84588625519484 -0.23746117443909429 0.02314584198884401
Ni 6.910329151955003 9.109573458994724 8.168604610686353 0.4542951595461402 -0.34371895455776935 4.473482959146619
Ni 4.467594596714202 8.434753120979456 4.658554276028637 1.6409777963353158 -0.6859381846415606 -1.1225552101816474
Ni 2.4070262403249227 8.83950612817434 5.288653847088966 -0.4801977383445149 0.7645524920113542 -0.27363531036680616
Ni 4.431849162967848 5.413001929176488 11.479125456043974 0.3230508846854565 -0.801254218307762 0.4522588458424017
Ni 8.528617363540299 0.4447466910889736 4.190634299074817 0.7887203475068094 0.8459345919342721 1.140547790104326
Ni 0.29728285732383847 8.244212884449375 12.206145077383907 -1.5908752232519698 2.464170723697698 0.571799459112912
Ni 4.350011421480545 5.34023974174005 2.06983785632937 -0.47718311988790724 -0.42018561945694083 1.0352420894862753
Ni 2.053552897429714 2.196525352707509 7.954161703272611 -0.37016917832949797 -0.3215041090236269 -0.412843834379889
Ni 5.527958947154117 4.3055616219880655 4.855571748476412 -0.8317156201214129 -1.1729123224779605 -1.5423063132043309
Ni 0.24204168584183774 0.12436664150275888 7.9948931239223695 0.21125134881294588 1.4538565078013543 0.3452217643555409
Ni 0.3592880076889432 4.956570230254335 8.293366567733658 2.076843545531675 0.8469653471916316 0.5248009788761865
Ni 6.080983122676942 6.68718930256123 9.941150329984264 2.177464953300179 -1.1761352002906325 -1.0340123308442322
P 6.54273209406448 8.544142314386002 3.97131583327833 -0.02995103783613551 -0.5700002011206441 0.35670225419131474
Ni 1.4204912436975685 7.778612834400171 10.092886541136945 -0.08438257731213855 -0.04065942539257514 -0.40046088733450386
P 4.760944713949331 3.2701318459189834 11.477875479427764 0.28300158207305454 -0.0015562887435263519 -0.1722878230655549
Ni 3.4627507369556025 9.139825305830941 8.986079110008102 -0.16267189724234563 -0.2500696072317241 -0.7078681519454325
P 2.7229631659034133 3.182271574187293 2.7682128761926053 -0.4557167224840152 -0.7503031811811917 -2.710033491936926
P 2.448534372502347 4.619429172767637 7.413769065760049 -0.3062207005019952 0.9168517877701242 0.1313805433282318
P 3.639788998900807 0.8944357544555454 6.7139677548358545 0.06559501229199026 0.4266529723488394 -0.24253576074852426
Ni 3.306118552063417 4.318014989612054 9.404656097642224 -0.24987317495020192 -0.19673541458495794 0.5875968311564849
Ni 6.651248994954889 5.536236446349794 2.7881243448295603 -0.8684559129652397 -0.9348227704262481 -0.485884504316647
Ni 4.46426318167917 1.3765239890012493 12.498710131354512 1.4270039063848845 -0.31368564142047267 -1.168782616580303
Ni 4.082820800021887 8.06765716730033 6.968585300442245 1.8661848359974054 -0.36705762928370983 -0.11263488728961246
Ni 3.368570984335732 6.286667842040369 0.12333102613253744 -0.38074438274218303 -1.1175474725544108 -1.0042672383713156
Ni 7.961339557115499 6.525787347953151 13.065206586397839 2.010149129527919 -0.6333534685663093 1.177939857599539
Ni 7.643472452352366 7.309245223057869 1.9285329645106146 0.1091520709473346 2.034882884829173 -1.5469612954778391
Ni 4.3858682117183205 5.508842749460064 7.481597232655744 0.5028645838144113 0.4117027787969103 -0.04084763014398127
Ni 5.906107032606842 0.7037284831883316 6.577212703662435 -2.6973268430035353 2.881908652945095 -2.0536411392732825
Ni 5.75589640538664 3.5456834839418847 6.971886092442136 3.410008357177211 -0.35981740278152874 2.055397459842757
Ni 7.446724091425528 8.40271957028049 6.169786212702671 -1.358019665905687 -0.6433206070813502 -2.1906318296994405
Ni 5.7539012682486685 1.7643600892076592 0.9467454663008706 2.2347609588081707 0.5826857670081127 -3.735859944536256
Ni 8.112125526208048 8.457497684352331 10.254889820798702 -0.26140380129762075 1.882933259100338 0.19325208402204783
Ni 0.31720824552222104 8.484937779780152 5.837222834984163 0.8572111932893559 -1.2036840564431786 0.22254131990446835
Ni 5.111207278008549 7.6331626971882445 2.277326550853828 0.9656734372585175 -0.7581946681141265 1.7621271488538426
Ni 0.8818942296091806 6.607615809732835 0.822930039430649 -1.2460501801142154 0.9242570790952599 1.94707636943715
Ni 5.867614805405421 6.42882368304774 5.625156460691514 -0.5852244742695664 0.9781890532270251 -0.7352719978796821
Ni 3.7991586975404417 3.1743467038811177 6.399875635131917 -1.853433706979324 -1.210039052126929 1.3123872127785527
Ni 7.541005920829201 2.389134964036509 5.591052607222868 0.30889207668657126 0.6493956096308364 -0.008031869165541005
Ni 7.213070333300027 0.5547158662216735 2.443961332587964 -0.48715077262358036 0.13749154132197614 -2.695725045734054
Ni 3.9121205783800987 6.775819790025255 9.566972103450723 -2.3716344069301734 -0.2374999980968297 -1.6213517945742724
Ni 7.375520894868994 5.140197084608655 8.200291100320385 0.09958833851829946 -1.4071611606273444 0.3806669925370283
Ni 1.5388075158330838 4.31615904808836 0.8543761846373644 0.791496881810682 -0.18021684810464447 -0.12472318591271422
Ni 3.9166861945283866 3.5644470527464347 0.3891241236238537 0.11940794434738791 0.8212843974857598 -0.4561553526833305
Ni 0.3456904521155965 4.067277289760947 2.8296983629310755 1.0501879121628301 1.1726382428809676 1.0928594828894276
P 5.085641683519659 8.592359675171581 10.184414153319457 1.7131003253331787 0.8029233784800688 0.05541755753835617
Ni 3.7566205178173666 1.7087189623273022 4.451268807101024 -1.2355356537361366 0.008915043101442711 1.218208475311599
P 6.824992960695536 2.1178612712257237 8.410536795978292 -1.1538051693348645 -0.3687239612425392 -0.19537452968168934
Ni 5.891992597319146 1.4761323705779255 4.153610121618637 2.021151394175693 -0.7457333024223222 1.5025675998538122
P 0.6992120494904214 8.21758940329198 3.4230317324070194 1.5446347042271913 -0.3036976769698253 0.7172390516373711
P 1.649254595908135 0.6693991328245571 9.567230079322515 -2.304953617773172 0.8166846939302193 1.273698023738471
P 8.752657344573063 1.5110519103462348 0.10521982077356604 0.043864305483118 0.37716952090673106 -0.7786231111718075
Ni 4.873164218179511 8.623242542125855 0.2663888547204222 -0.13948028961723075 0.9860381169577986 -1.0359162327351643
