# total energy = -381167.2765759461 ev
CRYSTAL
PRIMVEC
9.31673346580560 0.00000000000000 0.00000000000000

0.00000000000000 9.31673346580560 0.00000000000000

0.00000000000000 0.00000000000000 13.63598117705522

PRIMCOORD
 96 1
Ni 5.487192748722527 4.616264490059251 0.48874652889620035 -0.9355974438087435 0.7485147218222012 0.8165715653911227
Ni 0.9653626706210316 8.048549155137888 3.1697791736620893 1.2802134562594853 1.1418243428239045 -0.9917382526663695
Ni 2.4442077978955488 2.216218009515692 8.396873874935105 -0.24276073227513673 1.228522198532781 1.2616896864236853
Ni 9.337137265187728 0.9067147641655389 6.839672222908389 -0.7477109949739832 -0.6541626920021767 1.8279898129849228
Ni 0.21019575884176342 7.100385174776724 5.172822864598163 0.03340762892616827 -0.01792495990953687 1.4710085941006086
Ni 3.9301150092529364 8.660304517999977 7.235415390130645 -0.3760780876147652 0.4143749263124348 0.8007873059736724
Ni 3.62327770425918 4.554718147775024 9.062936478059799 -0.514734852889436 -0.3838299636460422 0.769972634585661
Ni 2.1769852442479225 9.14190511221074 9.008870541197915 1.8458522950876404 -0.5433602299356125 -0.4171257495846945
Ni 6.457838007305284 6.359481250494115 5.047004103772916 1.777461465218068 0.43181086240069505 0.38631082108636694
Ni 8.387100621369234 8.557429145383804 0.9329273942013662 -0.7569998764750769 -0.2697837978311999 -0.8951827874371228
Ni 1.6635773214633855 4.786304195331645 5.070144075061341 -1.1308184786317041 2.2751933557916044 0.3245675784402991
Ni 7.951170655356667 4.95018553968217 1.0726634917060225 -0.46927903454948205 0.79923873053963 -0.36533267617280313
Ni 6.945093858822514 1.1406476969206774 13.629013587462575 0.5736930765911992 -0.1834788066853679 -0.38233023917206416
Ni 3.97872040854098 7.785286213278152 2.304985052413275 -1.5357533425771617 1.6350814854555389 -1.2589488904537545
Ni 2.3400467160400136 3.5253588339280824 3.458330525582692 0.5713029790924677 -0.5350925906101817 0.2670216617050305
Ni 0.19935573927656525 3.1424783491396138 9.100176394006558 -1.8137736693855409 -1.1188705622412085 -0.9590852425180386
Ni 7.6253365305146605 5.365227388921919 7.138886576455436 0.5334547978964426 0.6203452292320993 -0.01968745112659835
Ni 1.9996505365521928 0.9708874936568395 3.726631956983348 1.5117171275635644 0.598394178882305 -0.10202008788824364
Ni 1.2660881983610104 4.644186740714084 1.6283274598175523 -0.7148898346789043 -1.0551077180619506 -0.559230621308966
Ni 2.9286313623927356 8.14099910283489 13.722979367719315 -0.8657757950299153 -0.3752265382477473 -0.42113924161946176
Ni 6.823156449222761 4.851847416338237 3.1148672773876407 -0.38393126511059683 -0.0248607677974217 0.8702392301179077
Ni 5.858930420103194 0.3512054538320774 1.8697389346483113 1.5980041209872673 -0.910803010472883 0.6373749310208765
Ni 8.99797089453756 5.435028357192193 9.281644004735481 -1.5110082744219977 -0.5998964744594443 0.07051996039743338
Ni 8.076983826141742 2.863209258923186 12.36926728967572 -0.2886376973129094 -0.6571881090920618 0.5139470668808181
P 8.703748446863337 4.991700904686487 11.724707707742672 0.5635745000999585 0.7987119115018825 -0.6812891159053234
Ni 3.214906636290323 4.253610633956684 11.834463488136153 1.0326401330870538 -0.09984904837885385 1.0881155404465388
P 5.635105211650835 7.614883155394633 6.950941972514887 1.5048419977102856 -0.8575953161016521 -0.5113602799902484
Ni 5.42512466935566 0.6557079853810218 5.929415236621071 0.3663554610103626 0.11588270480294881 -0.567650469941545
P 4.898505618300001 5.443310933379095 10.957833388498315 -0.6373543621955863 0.6974443855089473 -0.7250053258463514
P 1.6408538081677102 9.39639169100179 1.480212823769722 0.30801070252288243 -2.3622365106550416 -0.4307137726817743
P 2.1128488500177345 6.21207189118121 2.897468751785366 1.0467701447305326 -0.6685171609516357 0.12378550458979326
Ni 5.150206493739101 5.569701741648522 7.6913893768501875 -1.105108989680742 0.28149131607611516 -1.4968834049848414
Ni 3.2438444109095803 8.372389498985521 4.750516758156021 -1.8331358759622363 -0.5084027400238212 0.8891759191214106
Ni 3.833901101174036 7.176698539846375 9.14120728886271 0.4427907584509664 -0.2122047138651507 -0.18717553881066473
Ni 7.486722167737679 6.781883319292527 13.04276185120794 0.4201313691802377 -0.5347560332063693 -0.26266801272202506
Ni 7.101726784417798 2.1007184628463653 10.165215070919148 -0.30355600918563846 0.24833719792164977 -0.07398195080410484
Ni 1.3044265572013976 5.934442546081648 12.608468835292156 0.3749707134831993 -1.147110016702876 -0.26142359879196264
Ni 0.21207494401262758 6.635088864398448 0.8606323363414022 0.8665160156300497 0.5220941214679847 0.1928473923844614
Ni 4.297697417439724 2.894252615340238 2.3023950004673144 0.24887558692362297 -0.06774316898324462 -0.3776950543928979
Ni 8.37058205266352 0.9287618826005066 2.3469709124653293 -0.4921803646276879 1.9084491439832554 -0.489247507251609
Ni 4.234418162702443 0.6093889125229736 3.4472035506220418 0.5268642891631184 1.719745084343206 0.05635446753032875
Ni 1.4381030511605406 2.170854833526908 10.610239100616793 0.3957513976739765 -1.0020632887414613 0.7305542806890387
Ni 0.2452471740615214 7.46979366275275 8.18873431920296 0.10234121867308826 0.15421399628297958 -1.5433985178272451
Ni 3.9700092626076233 0.8614130786186379 0.7151040255460851 -0.5582746851535998 0.42044607220717906 0.7292376187601441
Ni 7.744208734753907 8.032216921104547 6.740674474824261 -0.18881538840693288 0.08469213813275737 -0.6830570064390236
Ni 2.5367974965968285 6.934277131091363 6.558293824200717 -1.354542505990364 -1.013291296246797 0.718208357529176
Ni 8.293784217445705 4.272803105210924 5.059385111078625 0.33542920374515134 0.8716407384511247 0.06500314434426224
Ni 6.576123257326562 3.0608637626410014 1.6457404349506468 1.3882021030263383 -2.0476334996266217 0.2973568223534621
Ni 1.2886440104515517 6.959888831808793 10.21543599181665 -0.12768638230609622 1.8666831157900625 1.0943594644737218
Ni 5.121240768918988 0.8311840047198481 12.114928846949205 0.6018880509681763 -3.704929830616303 -1.4287687115947911
Ni 6.389238897671804 6.964398130880178 2.0428745905021546 0.20697766113825644 0.3555802247717295 -1.0720852264565537
Ni 8.260747080034282 7.12446893118071 10.645338031178007 -0.6842661962557764 1.306257188621415 0.5873898573520013
Ni 1.6623940962938282 2.0789825233142576 1.723738265458533 0.5709131998532168 2.54598091229697 -0.5849095141323087
Ni 5.624297800653302 7.677789740787171 10.989510282801431 0.6847601051730593 0.24594915730544742 -0.1258552426346284
Ni 7.597786949204569 2.162712008344284 5.85380435326626 -0.17086111792135733 -0.11068110599735131 0.5637927867583516
Ni 4.132111110837003 5.762996014032851 5.2974835554346225 -0.4227150707470139 0.666278244318788 -0.7688616609096693
P 7.195713993161862 9.256323917780312 9.909894644469235 -0.22233460321030096 -1.19395783029435 1.0545690719496612
Ni 3.214049496797416 4.004620928000586 6.661463605599238 0.47696766144299146 -0.7573824566254762 0.07700736789398996
P 7.414834251136846 3.3768594167818056 8.027638678204385 2.1555820371841588 -3.1924434074414116 -2.711094843321905
Ni 6.545415303319777 4.441762069383564 11.949101236945763 0.6332251705185611 2.5616368736666724 -0.9291198065041998
P 8.89467626890855 3.1150871523010384 0.9786213142336088 0.4277204943814053 -2.0931643941788853 -0.03692258405796222
P 3.4124866061391907 3.116866648422184 0.29249605693470215 -0.042346583287010936 1.0011523468914179 0.09073474478241148
P 6.007420520515852 8.341057323826295 -0.12743241908798203 1.65489029265135 3.545801427750842 0.9283284209511561
Ni 4.912993139076867 0.3702786708959997 9.496629496330549 -0.21112947852310088 -0.050801141812267345 -0.02288667479018639
Ni 3.2297481929446943 7.048323267316193 11.415689355408809 0.5970176102497525 0.02854310174501536 1.1605658850974656
Ni 5.910945743895632 2.7058682615728924 4.214090913293463 0.558272885381387 -0.18917045775350644 -0.8337028257547706
Ni 9.378224060445591 0.2675355958972099 9.321815896752003 -2.001647262704495 1.0270523545866312 0.5313668050191623
Ni 0.5391565794861597 4.4947463334723325 7.28027732585075 1.1929640989225132 0.36862420243988125 -1.1325220915863723
Ni 5.376351568862483 8.029747986695629 4.145297083927355 1.4547427670610493 0.5093190811905035 -0.23469492454786675
Ni 6.420841258105971 4.429920500954371 9.285952994034067 -2.0163693994060177 1.5104503450359987 3.2390760196982864
Ni 7.948999856423542 8.162306472620543 3.496565468679913 -0.9729902826349051 -0.36414379807102454 0.33273648740433664
Ni 3.171444073959727 1.341264921929196 6.550438886086907 0.40907922513113415 -0.002977080350452937 -1.794019369576749
Ni 0.6970845310544224 1.2664236007712788 13.391515140751611 -0.7507312698575458 -1.2659811147101874 0.4262251407828014
Ni 4.5521001456282075 2.719489326123232 10.31312473882737 -0.16805090216607188 -0.663441289090625 -0.3375637335896509
Ni 1.2794577111036487 2.4552108602990717 5.833786419413416 -0.38505843673650453 1.410413606126371 -1.0834158209780245
Ni 3.1393292931765395 5.592024635398599 0.6923656054766201 0.3318684829770865 0.043931668385943694 -0.6239262617151383
Ni 5.036710044797766 6.687933377482937 13.153035641990614 -1.957914854813551 -1.9739341130599426 -0.41643566549620536
Ni 6.6814302974171795 6.763091467583885 8.836060971020721 0.5947444979448596 1.9074327869035987 0.49684511709320883
Ni 1.4795159320950535 4.6539879444808125 10.474806402370552 -0.12137638092766838 -0.7049188395091215 0.0503663682676939
Ni 6.773349191297923 0.6543878042272715 7.923854924060402 1.1912957100811548 -0.16573793776217907 -0.0672716286634648
Ni 4.463283724042446 5.74231286539964 2.7317641226656884 0.11884872940980822 -2.2632613802407087 1.1542774809855927
Ni 0.3483796885255672 7.944947077299467 12.568051913181467 0.76119694527556 1.746050040786322 -0.6778767477896648
Ni 5.238510494975842 2.408366323664936 7.837921099856223 -0.5075738163646225 0.9875522396094798 0.01018542517343407
Ni 9.343658978720724 0.6950907500600498 4.36630957050027 -2.421759348611023 -0.2862997932083521 2.4132685375311924
Ni 8.648649284243154 0.6765774686866032 11.701853760176336 -0.856415436860938 -0.7897544451982786 -1.4829074024207234
Ni 5.906091725680361 4.395541753901873 5.882917282477546 -0.10318428339967389 -2.647539487167763 -0.3103316373465752
Ni 2.935693446475607 1.6113570295313395 12.342240377121632 -0.31221651307411386 0.25531234368790223 -0.20919369495296877
Ni 5.218842870307055 2.8550757504741804 12.542143940334967 -0.5051315254717171 1.0526402303580646 1.7640757879397815
P 2.0118368241252735 5.972007616031694 8.507202634446129 -0.28015459954256267 -0.7961179255224613 -0.8284685739390248
Ni -0.0585435590389648 3.0609569299771873 3.2144920416442972 -0.3065654854359236 0.36958502369125384 0.28514511077861865
P 6.738150571686991 0.5868601189599263 4.159683052307778 0.4266432021568265 0.018756454671896728 -0.7109174802947177
Ni 0.9076660026679942 3.4719925837609527 12.694334647340918 1.6163697679786484 1.11394664257703 0.49944218839642374
P 3.844680561970713 2.4811579634267695 4.668645961482898 -0.898220288711866 0.06677103487796242 0.5431843664793806
P 1.4866339165796358 8.902315990475772 6.268678501300875 0.755284436445867 -0.9980809070549457 -0.5850997757662441
P 1.9661382457262215 9.32325533209607 11.145491968716774 -0.8372121244596097 -0.7716009142177034 0.5286915721798443
Ni 9.132579061858559 6.023948405955183 3.057364397493869 -1.025796370692343 -1.3908408262007659 0.9319487913125628
