# total energy = -381164.3500644018 ev
CRYSTAL
PRIMVEC
9.30717033199257 0.00000000000000 0.00000000000000
0.00000000000000 9.30717033199257 0.00000000000000
0.00000000000000 0.00000000000000 13.62198456406697
PRIMCOORD
 96 1
Ni 9.133470608221243 0.30381023815052605 5.058346555857648 -0.09340432119477461 0.6029555730007423 1.185389629009365
Ni 8.870394131728478 6.8674166197686946 8.800428409504367 0.9691027746550407 -2.8593662488682043 1.3277043027515971
Ni 4.497336388559489 0.8878491369913883 11.8710146768886 0.46831178554020636 1.123646129252981 0.6043812497036752
Ni 8.28381902897322 2.6966036878283135 4.598972549975901 -0.1577477204678509 0.6179975549355292 -0.5781858222552301
Ni 5.97472868492375 5.039823425470756 3.7358153358648396 1.710729768218473 0.8401668362125595 -1.4996645672744044
Ni 5.062337470494318 8.909754155045817 5.054450574358325 -1.464869056861774 2.015392637315045 -0.44021682707620313
Ni 4.515736664298051 3.6805018918881838 9.21126738355938 -0.8650715698740391 0.9052088042145572 -2.5829078672303063
Ni 0.8908572144414154 7.877709958878924 12.82674659138468 1.0837953158046303 -0.5470309939189805 -0.7553595126581766
Ni 1.772383059911924 2.344196990526888 12.459552661866043 -0.16458454088402624 -0.44348007120850724 -0.038585573582681935
Ni 2.2784976751811565 8.908358079496608 3.755921615924534 -0.07153040393981874 0.36903583605600315 0.38439612056215733
Ni 6.123689946024251 3.824614117247767 10.789197595241342 0.9436357407321877 -0.8007173719676856 1.5370586916521465
Ni 7.175120977984479 6.22545454639119 10.850223780365358 -0.11363273242650752 -1.1736633417113722 0.90181160560755
Ni 5.068396438377881 3.679366417108161 13.558941681092666 0.33088400757663017 0.010970125858258526 -0.8967143935903008
Ni 2.1298156291904986 5.43283730691348 8.564822976951884 1.2121998072236735 -2.360813147944954 1.2642739022110936
Ni 7.232816126848083 6.96575618145491 4.131861493400443 1.130508660700769 -0.09147907914760375 -0.5365241808503857
Ni 6.780887857228779 1.9362357935373096 13.004064008323661 -0.5586477522223025 -0.03260595896047933 0.3019076749489381
Ni 1.5749407485725928 0.23606613748372152 9.058578600742495 -0.8118481917735244 1.735509032045682 -0.2405506119976954
Ni 5.241184055518198 1.41886880934146 9.419248203861164 1.054168494077133 -0.071476924994064 -0.21567596024320276
Ni 4.162343406941852 3.9670231304373167 3.2383954791160745 -1.7065969769970222 -1.11212295910473 -0.9720379460239646
Ni 4.996331018527761 0.3014155032251178 2.8971238803951325 -1.6573441535084812 0.027208184983675724 0.3359781342700859
Ni 3.375840978369673 7.787467635378116 6.468099922579812 -0.9146282977562442 -0.5392420940021809 -0.5508606520777158
Ni 4.853438032481152 -0.011150920770041149 7.38137159532228 -0.10883608236881258 0.7477238504897897 0.6975454298631858
Ni 7.470204813235421 6.1232152803375195 6.897097185944858 1.7496557558597094 -2.4545979924075985 -2.856020215214107
Ni 9.137081790308528 2.4248250070788173 0.5263353735239622 0.2315887748187173 0.6179882989641485 -1.5372990897977266
P 3.972570203952837 3.7330594827307024 11.2390903867099 -0.25035577101357526 0.12810727189359875 1.7985028592693995
Ni 0.3218708021721142 1.6979256972874945 10.509838224259646 0.7367940909511632 -1.5707547983530108 -0.456034253724434
P 3.513205505241418 1.8156520947670458 8.066435174489001 -0.21248984920573727 -1.2857181881277986 -0.8564907701835636
Ni 6.713243343284485 7.657018336060115 8.056627278397297 -3.724018214706322 1.2417592660483452 0.8111851042682288
P 8.83030814912555 3.6046112250332336 2.286110009792472 0.009433891719390203 1.4811346267910168 0.47763717670619027
P 4.792727360431258 5.157763887867852 7.293823697631443 0.7555813988609955 -1.6211921290679563 -1.169691758658134
P 8.449077145318142 2.6233004143245626 11.842436079679278 -0.9509106771270462 2.0210783748459127 1.4539151289534316
Ni 1.080450789043099 6.8788458249315445 4.942409927232182 -0.3990285257633515 -0.2454321084597128 0.04091704992933598
Ni 1.1438977691694412 2.609711945645604 8.624609446988202 1.0933292234369945 0.050048322806642835 -1.5324160506738125
Ni 2.302063430451789 6.341738332469893 0.768109598569879 -0.8054793121327031 0.43366077112524026 0.5149397698113906
Ni 0.5059275411456389 1.8070894980652363 2.6705901467614033 0.9327088094070388 -0.3563075898560573 2.4900149384543115
Ni 4.998713654131742 4.015159815374011 5.355360698234629 -1.6089752752867903 0.060315766170921936 1.3168578469553966
Ni 3.5365385812538483 5.532433336593983 12.713112556698375 0.905160467475125 0.18097583775785606 -1.3736308900803826
Ni 8.94675015709983 3.8448665198816117 9.92744390241575 -0.7944076276995737 1.412219548986858 1.6041012350239405
Ni 8.790976047319194 0.5877757277275759 12.70331769064513 0.9393363420258855 -0.25304257381711903 0.02490319099958292
Ni 6.923762228934732 8.52956555431515 13.266832417478568 -0.9022085839356527 2.8229504292433316 0.5228214865523124
Ni 0.8007368148719041 0.07318414172355193 1.234342058266369 0.5846354345353157 0.596202827657941 -1.188509148474953
Ni 9.201803852769814 4.41541467533196 7.7363749931452315 -0.7342949786783934 -0.036888131275600984 -1.6585510293323886
Ni 2.918356328064521 3.707418228476915 0.35395261829291536 -1.2632099797229535 -0.5421335566173631 1.3358801536941702
Ni 3.9024779042122644 8.928089280592081 9.747511170614587 0.059772234962626083 -2.161994882689038 0.6506935025066535
Ni 6.938765387503554 0.10455395931425696 3.855825712942895 2.006674540715757 -0.006774599719672204 0.0030454716945431423
Ni 6.411542109930296 1.4026743329706466 5.907309404501395 1.7598365530474531 0.010111891623021296 0.5367036438510434
Ni 4.33082180422028 5.559228679968449 1.522352444067991 0.8279335273711612 -0.545976327402221 -0.1415906510920142
Ni 0.8980255970280824 2.3622622081336404 6.080990509993206 -0.6270231554729072 0.5221501715169007 0.33261487422480784
Ni 8.212944926925092 8.089448083842147 11.28883814283038 1.5686683481376276 2.4285609449138885 -1.4182145902280285
Ni 6.8867289981994055 3.7627865847585062 6.419905533187085 1.6132836728541573 0.045356573757928335 0.8201945068556906
Ni 6.039022617549946 2.4653949625388036 3.427005285814083 -0.041714606129966865 -0.18042690723292154 0.7166685238458819
Ni 2.1001536773549914 7.140312160957557 10.460989540792857 0.12360475603755489 -0.4776374338165064 1.6886542764756725
Ni 7.1923113215803935 1.104379523956525 10.700382060951823 0.0049545157917979185 -0.0006756859107859331 0.06293392052005936
Ni 7.578000459974939 1.0966173439029283 1.749103965487396 -0.22879064324828985 -1.3204311661289516 -0.06519726263293933
Ni 4.407410508849835 6.7145091184491 8.516587636009712 -0.8090174071929485 1.8441042020482818 -0.7002260620191424
Ni 5.060075828104601 0.9678991782659456 0.8459743162514092 0.9131260021791049 0.9345283791142808 -1.6366586001346717
P 3.0806082283934813 1.1407984814501992 13.90177967657982 -1.4026535025649778 0.11667563301788937 -1.771533272659091
Ni 1.9217445293365298 4.405716603850129 2.477947543160249 -0.08185184047048484 0.07277327520798435 -1.092988295157808
P 6.279715349403744 8.448099892433696 10.271930197768004 -0.8733605493557088 -0.18330859965609075 -0.7048255084643668
Ni 3.113481153992167 8.46386623896942 1.427079595004869 -0.983717696354738 1.1349286441453357 -0.1709045695647831
P 0.9035140353705357 6.227688267269922 7.168432845386739 -0.6375857614801019 0.6173169839287368 -1.7415565237913426
P 2.4301673228471197 1.739249533544053 4.372017201526312 -1.2798843550548409 0.7871997970972249 0.8799325461462717
P 2.500538837697534 6.8834249527329465 2.968516391830534 0.22990573068933956 -1.330464639105554 0.3455264400801533
Ni 9.234946686308014 5.757880923450428 2.790096075207679 -0.36912968132139007 -1.681229701876827 2.6869614406088114
Ni 3.7260791049846627 8.120459575375222 12.322310989642629 -0.3483402553798646 -1.1142613456039714 0.43322291225687326
Ni 5.3120953862476386 6.941278323492129 5.669620096512461 0.9442193811497996 -4.215851994627868 1.4303131732637753
Ni 2.115854873698418 7.668903592569039 8.3211659113486 1.1328931017725459 -0.8184811237090096 -0.7341538251148388
Ni 1.9843445569630194 4.592250911564981 11.071690690472495 -0.8379865407317891 -0.033551867813516406 -0.2284224612755937
Ni 0.09539942657958334 7.176079616528268 1.233092105291311 -0.48625705716471745 0.6521310062841285 -1.181880587414842
Ni 3.000575870742548 1.858362699402484 2.328242639150538 0.38038494252023525 0.2136913257130062 -0.25309116766686734
Ni 0.5972141291572552 4.800154482353045 13.914721296920979 -0.7315698664377465 -0.09242061712526663 -0.1619717858515275
Ni 7.011240322848108 2.7736856724852545 8.724417680152184 0.694398656704088 0.27227185436037626 -0.24220331710976997
Ni 3.273853005914861 5.940385226413233 4.977023293682214 0.5309011782366534 -0.39822094226039156 -0.9936295561518113
Ni 2.2454758348572224 0.4653101191169796 6.304907998047719 0.07251282245774608 0.040121550611234125 0.2511777526942384
Ni 4.178835712763163 1.8015703460607004 5.619777407254635 -0.1394538072546695 -0.1454640180044914 -0.16524480017584445
Ni 4.875151660856502 7.187853186993255 3.224514765288815 -0.7975050356779748 -0.39477643535521684 1.6075503699148055
Ni 5.676042974755851 6.608593520115848 13.055827697537197 0.0041088799620509885 -2.2334638372633018 -1.723923641200928
Ni -0.11041654590389799 8.353241212450174 3.2171583778615216 -0.3415090913906441 -0.013231668198925598 -0.48398368774950834
Ni 7.195438530810619 4.403482882971396 12.861741551818161 1.2373588229878043 0.14308831868346325 -0.03776847699802528
Ni 3.055571940211017 1.800611707516911 10.123749808258026 -1.1817718297511197 1.6979141045110435 1.57510356224001
Ni 5.220270843791061 7.8196611375428535 1.143679050666732 1.0650501739866431 0.8257709725022037 0.026592148666231618
Ni 3.1862259972762352 3.528413421557458 6.925525937711898 -0.7626753295932994 1.4497607404654258 0.2280535079719492
Ni 1.8650452476980268 0.1472394345898097 11.38139981317694 0.4914152043268892 -0.419637974483587 0.7404527707496732
Ni 1.9062480907403205 4.0865178902791985 4.715386636439197 -0.5962215967110184 -0.8109089677887066 0.6458071209486297
Ni 8.18243602258973 -0.44390083521135765 8.898738188245531 1.519786791945576 5.013627253248095 1.2197058857927316
Ni 8.07484513359743 6.695085053974451 13.006297729202394 1.2579991249459754 -2.610283688140098 0.6735513809414336
Ni 4.801746008479142 6.053020601723339 10.55950407728124 -0.8503643455708516 -0.17516694438556285 2.2341976301055326
Ni 7.0964009313498 5.849128421346665 1.4628237826497592 -0.3226171395821476 0.2605329686568933 0.15535428053500988
P 8.319288655093434 1.817625214876593 7.284873922643986 0.4138229104637066 0.27732870005799337 -0.5351188158624268
Ni 0.3853466345264734 8.30978603418849 7.010840114524002 -0.8858429980934357 0.7247348457937841 -0.7822067147580076
P 8.98839974431787 4.927597565655085 5.152052077437526 -0.267894551228287 -0.4415679417874589 0.051020456911925034
Ni 6.484538246813221 5.348905244895091 9.023774437300737 0.07122572821520637 -1.3995627794547962 -3.0229624576970324
P 9.551390477461839 6.190515428979676 11.307677717008428 -0.2302551436089583 -0.3246706796770667 -0.18677573226908478
P 7.340434937351368 8.106805956503967 1.8477674167010278 0.21243508470840186 0.13421107079849143 0.7081334897916772
P 7.050898175615945 8.240345236370882 5.925645460764694 1.0116568459671673 1.084202578545378 0.016390011322249192
Ni 6.890879996165718 3.339422020875999 1.4130080841858845 -0.5403764647169403 0.5831593642104215 0.4602796592643492
