# total energy = -340891.41191286984 ev
CRYSTAL
PRIMVEC
9.07977513994480 0.00000000000000 0.00000000000000

0.00000000000000 9.07977513994480 0.00000000000000

0.00000000000000 0.00000000000000 13.28916871504344

PRIMCOORD
 96 1
Ni 6.58629622862905 2.078260607149449 11.625324352651742 -1.1908429388144521 -0.8440054932323594 -0.48806068603235947
Ni 4.563286052013634 0.5511677624685833 6.1474098710950456 0.9912088625254607 -0.5920726075396513 -1.3268982619105343
Ni 2.4027082052221886 1.5355715385235411 4.771728629447274 0.9499280014988026 -1.0248239794767446 0.6133927091736662
Ni 3.63644986505841 4.498556336438099 4.807356758349902 -0.9637965319507789 -1.48090528438903 1.4326626473325583
Ni 5.088124283099704 4.526186091592589 2.8478160245477984 0.6587006890818463 -0.32388237944781645 -1.039086660043346
Ni 7.022779169735386 6.1330429432012075 2.770658821006458 0.5250043531362443 -0.20792536976350642 -0.8339501658788864
Ni 5.232519944033597 4.908635292007383 11.539835547621816 -0.516544138184033 -1.2150524461811203 -0.5074262350431649
Ni 5.638721835701807 7.874253224655692 12.485307064672035 -0.4106108312843122 0.26430477699449967 0.34480653119499327
Ni 1.7675961074416502 6.245895465979761 0.5928466533938709 0.6660321897462529 0.2910367936727052 -0.6467622857730474
Ni 2.7657266872568957 1.470605748799464 0.37948828580556737 -0.807102706668739 -0.29877298597469837 0.708161000595503
Ni 0.3228250422902527 8.94415942540299 4.659674218886294 0.6448540130067411 0.8544354303164317 -0.4057031095700497
Ni 8.92891448327207 2.0447562376062143 1.374857706060353 -0.5449530283440293 0.6952489205195251 -0.6694077910867052
Ni 6.80490996995492 0.6464554606180353 4.923384478426361 -0.5460087233020532 0.3195500706210497 -1.139416247603044
Ni 0.7287200375653565 7.463774758988874 2.5878266567797685 -1.1035545007094285 -0.1679442013848785 0.9059773069494655
Ni 7.728241363781774 3.978067317550189 3.867307682896219 -0.8590775570741334 -0.21760145940068976 -0.41687506702646915
Ni 7.9128059490677725 3.6744941220736274 12.665082068675094 -0.2894956744378305 1.5194816020003317 0.3748683835773802
Ni 8.17763574485843 9.034466866995675 6.716810729628606 -0.8059004588305217 -0.14593144455921317 1.210794956456347
Ni 7.017485660943054 0.6721693832593472 0.2451548314645782 -0.0502691805681973 -0.44072307728866034 0.5702040896013342
Ni 1.95438523758892 6.1809115167057955 9.160051050200659 -0.556305477242371 1.1901397420998405 -0.23998548352284474
Ni -0.0166159881474579 4.633145840432509 1.6549397078018855 -0.2555005484393084 0.6536073337193389 -0.4877058737961021
Ni 6.629143686589625 2.0923705774123724 7.032229399497066 -0.35049946781471253 0.096512270696137 -0.38697416570197873
Ni 3.7143815734024703 4.435860490450014 0.6142867259690579 -0.6198443783362809 0.49284679456709307 -0.5697166084419543
Ni 5.787929777356002 5.653331193586648 4.957869463663545 0.7497349673825474 1.4839975501611087 -0.0840259653036682
Ni 5.333577839159939 2.860583096096509 9.661065767788752 -0.7928580238242667 -0.39320420577209053 -0.272235344695486
P 0.21279178963179995 5.562406327297772 12.566875222881155 0.11730966705746247 -0.26324779648489505 -0.4967209328105187
P 4.019380293545234 6.260868014862362 12.6343579262197 -0.7282623993310683 -0.2914569119292593 0.7219966209270147
P 2.258839171235046 8.246950746780668 1.4825792480180722 0.7459914411797153 2.02145581278999 -1.3745230628773488
P 6.116744747176789 7.96525072914412 5.963846784985366 0.9252834634772452 -1.3250231563750083 0.3856323069621036
P 4.629976998977065 0.9444055514717985 12.641879611783283 0.8990456128266388 0.5833388272110792 0.09312407095019445
P 3.9935210945048194 6.130255452293409 8.032305775082802 0.39352610788788356 -0.8785932585095579 0.9261751220535792
P 4.659840378767769 1.0727663298546468 3.8883709448112316 -0.7648905920770632 -1.7873260167169733 -0.6004168657392885
P 0.13896323158491744 5.682486350931723 3.6451392096797854 -0.39847419592177824 -0.49559067586081745 0.1281422388965922
Ni 1.5122819157922682 1.0014446976697935 2.6774485753641857 -0.13745400321582135 -0.3732814987062345 -0.7443739601809504
Ni 1.782105587802108 6.53654814171106 4.811250165845876 0.4335494423583566 0.3575327205124101 -0.44520142477498814
Ni 5.997300307788914 5.678091739858844 9.18740024030938 0.11072275786856414 0.06627069820277619 1.15345215687082
Ni 8.685177004676245 2.5376881395391884 10.116312971794288 0.35520972880618823 -0.1805696034583729 0.6480642924139226
Ni 2.2418963111896053 5.481687128045913 6.910620341762551 0.21023242063012826 -1.2661227824943742 -0.3746588386697354
Ni 0.5882631830021566 0.20572500079291117 9.291600645543829 0.3197282480701268 0.08035725820282935 0.25695656415954454
Ni 1.7669968422953484 1.1901224210054082 11.350969872944862 -0.4205232053020177 -0.6673789335821345 -0.4827500724527234
Ni 4.064960763763944 6.971187888503771 1.5484003525418708 0.24248716689877595 -1.0654723491257263 -0.39026466352779243
Ni 5.5084997034554455 7.895917567671995 8.215642774796379 -0.23968466445297434 0.8947948079700848 -0.8642027941158407
Ni 5.383453042927145 2.753759543880749 4.8881286202964365 -0.7236238721177926 0.8397855416137407 0.09876198596226217
Ni 0.8172541991114864 7.508301975314084 7.2335597892170975 0.27467506448523016 1.3891521256444335 -0.5254234429515338
Ni 5.171068027212835 4.169060383496515 7.550732671604732 -0.15656552723429165 0.20372727252175882 -1.2812105300654322
Ni 8.094047336724278 7.611330181603267 9.045525124899934 -0.7857607506578532 -0.6333167017911028 0.36469761369196546
Ni 4.8676764272351525 0.29387054797143936 10.53566600949134 -0.33376467155853484 0.3603187678979794 -0.5157193282898925
Ni 7.914304111933526 7.165195439731494 4.776817843303367 -0.5142735969823014 0.1420058842525619 0.3880229186814672
Ni 7.146345826947821 6.172667081056676 7.1422372287856755 -0.41570058710239377 0.45885578233362906 -1.4182325879501576
Ni 2.5529240018951636 4.979085265797616 2.7038670885411493 -0.5125391307896979 1.0845429926039323 -0.11257009548994806
Ni 2.3908954180200888 5.3640768031967205 11.346704194676187 -0.37352549639624055 -1.4120904796081615 1.3617547074680871
Ni 1.0755810600872762 3.405387752284361 3.790270332384139 -0.5469335491091677 -0.283946205374511 -0.41022053782442897
Ni 3.641870490699957 2.5211811086910574 2.6605184270036664 -0.6059146556290662 0.5706830861202816 -0.162088771045366
Ni 1.3543573901918664 3.4658681331861194 7.992796950369124 -1.006453447389357 0.4657098291409851 0.6469803153211244
Ni 3.47420336658468 2.390913577569976 6.99628166251641 0.0844486546633836 1.060089230436942 0.20203522953131653
Ni 3.963612315839395 6.930256263056372 6.057269497361327 0.546623988288549 1.5638698983077195 -0.650880421706479
Ni 0.994580387812155 7.344639031949095 11.274743346335278 -0.45938517247453786 -0.32800925713199636 -0.6971656779262638
P 0.0036482535724855656 5.883149377193373 8.13190818228563 -0.2125060471556534 -2.252520596784437 0.3941945947098179
P 8.616325071276151 1.7996749523186821 7.990219202262532 -1.137128737120448 0.6351573545442675 0.29753011470653273
P 1.7482471070360583 3.2007023857225345 10.324381462500238 1.4095890533425466 0.5608421887704599 -0.5155041269552928
P 4.041734699457279 6.308600391742791 3.841167918810035 -1.0591957720883953 -0.13281547600254545 -1.0759814761871662
P 6.8639285070907 4.0149221240477475 10.472090333311183 2.3338641301599354 0.5566949993713058 -0.05388235184075236
P 6.131853492683548 7.644725593847173 10.270839845610658 1.8106456652795206 -0.17160288118338834 0.511215526882268
P 2.1139622822291235 8.548653508618772 5.84893496924952 0.8365310392321852 0.533179689858185 -1.065904037346506
P 6.934514677505092 3.9343118820952165 1.468226847764145 -0.3656594633846025 -0.18946947705116401 0.840577441387417
Ni 5.250425260223097 2.685370679002796 0.7257318836312974 0.06351087606945191 -0.4106817937315637 -1.3200724972379523
Ni 1.2514472209769552 1.2573944735652527 7.0970272133846795 1.8895749327865714 -1.3519618897473815 -1.3190391708774316
Ni 7.065499510846746 0.9982758562143492 9.232889004801155 -0.9212031227602846 -1.2659782864967102 0.35202875997504535
Ni 3.0483982408124475 1.5287798668654544 9.228264675422192 -0.40571647930648835 0.5781552261276107 0.3235977583278621
Ni 6.320749130617817 1.9545395937629675 2.6375810995402196 0.6530810289022236 0.20286929539683773 0.24992588256500828
Ni 4.015076480221794 6.7237186224059755 10.22834105100793 0.4773119321562877 1.3442465233809946 0.1961450892991267
Ni 8.220510442143837 7.104279229632426 0.6468586026255474 0.39417351166389536 0.12487796632302366 -0.3576643609942679
Ni 7.719016312438704 4.0520584035685685 8.171655805080334 0.42782205295627607 -0.4804779885890951 0.11721890711586909
Ni 3.094514417752851 8.271647734628255 12.161489602980408 0.360185841864541 -0.034323712982534435 1.0851839686220408
Ni 0.07626647761933737 4.908253941459737 10.153895068264859 -0.1756096883499363 0.20313489035339855 0.5837712867628075
Ni 8.616007279153111 2.4495144450583335 5.658859868550029 0.6307201447085202 0.29769672219138404 -0.03166724919629385
Ni 3.6572334699051483 2.841597286688676 11.834057482883587 0.4718506519314003 0.1511628681614816 -0.794060014552168
Ni 1.1804978595648041 3.1768225776199035 12.462475970575433 0.08276766741653488 1.2782601891878567 1.1178331221156297
Ni 3.1684782644463985 8.678993677939404 7.733153522026459 -0.8602263259665959 -0.7161751291492311 1.5277566975249302
Ni 5.380910705942834 7.957015373269943 3.5579352351629465 1.680475854429938 0.5568261256325313 0.7228342863369617
Ni 3.039926810789727 8.275288724380786 3.6013783263598462 -0.5511115917462573 0.797255381561014 0.5675895347966224
Ni 3.4458109103348984 4.2246649252533635 9.232118131908411 -0.3287217098179887 0.11243896922872249 0.487679905654173
Ni 7.490650892823013 6.298812394353195 11.535183978918022 -0.5742106396575659 -2.281260130810974 -0.09639271439913721
Ni 0.6781747464072863 -0.2247407734580593 -0.22757275526308232 0.09241598913957633 0.3529340453981341 1.4407245984050865
Ni 4.586884387093002 0.23772939151540273 1.6325081238028172 0.09418542233517328 0.702308398469468 -0.39582750232755054
Ni 6.179059242617227 5.633954953856224 0.35053742339673155 -0.4617775839661144 0.42183446791427354 0.6280716513420797
Ni 7.982965370059797 8.443709469816412 11.414744396196292 -0.4027563682368999 2.8651406894581366 -0.1928453355019324
Ni 9.120724728963355 5.210919159441901 5.831273899006012 -0.5531623036276989 -1.2506863933346462 0.41069362080610555
Ni 7.80018950043776 8.89333992504161 2.5591618072816678 0.11632981964269642 -0.49320957722315056 -0.015114487043935261
P 8.267643553877965 1.6553246902595096 3.569257714518072 1.649249806536121 0.5575642893501366 0.3348247373919331
P 1.789850635829311 3.3873643990205884 1.4540342515492315 0.8870064222739175 -1.6270406174289331 -0.20793102619046128
P 5.054156845034328 1.240760325867907 8.246340585904433 -0.611820736700856 -0.9143387915402834 0.24689378060690387
P 8.687782900085164 1.5586886455308788 12.167987997907804 -0.1557970244993833 -1.1171705488309664 0.9496644634247708
P 6.271682026820625 7.781948232575333 1.442579207479924 0.046927517789474016 -0.14650994277050253 -0.43501651382218626
P 1.9569275745732304 3.379755547617545 5.788934908442298 -0.9331096443898834 0.9921820250720073 0.8147555952283065
P 6.689097440544633 4.073005444364298 5.9087761339952225 2.3812156228607058 -0.461992785300714 1.6760676980599134
P 2.5236962063505364 8.510300539255459 10.051382593192493 -0.1371246449008606 0.07407271074569824 -0.47568596651709044
