# total energy = -381163.52066441486 ev
CRYSTAL
PRIMVEC
9.29940202994203 0.00000000000000 0.00000000000000

0.00000000000000 9.29940202994203 0.00000000000000

0.00000000000000 0.00000000000000 13.61061486879140

PRIMCOORD
 96 1
Ni 5.7779788499785605 5.099745563428644 8.547548144219235 -0.9498148729597062 0.473249846271772 0.940792871966754
Ni 4.05590628698787 5.905985118599892 1.8775027681295893 -1.2295706944019535 1.108716504526342 1.0153376372528644
Ni 4.064257149989828 5.762867321717779 10.446568798651976 0.9676547293546044 -2.068922233802069 -0.7460235799692312
Ni 3.804534151346517 1.1184669775440208 5.0955013163528164 -1.6561601605027088 0.4049070960313155 0.19919107521430213
Ni 4.833977953481019 9.18009067888995 12.450813116729995 2.2580559247803693 1.5665970674308956 -3.7879862329178504
Ni 3.7856005688610077 3.5896435697771936 2.0914345813520288 0.3602493481126247 0.11690137587545027 -0.6286411506923044
Ni 7.308009462130229 7.382544169213411 8.362048322691882 0.04405302445515639 -0.3400687593996917 0.48652959409981367
Ni 5.097457910535012 4.37400163202683 6.3126572677520505 -0.9819454349456638 0.7742951732204149 -1.2600135842728428
Ni 4.160171182286263 1.4362833405227813 2.7363871680005993 1.1729927980069088 0.7108030662040404 -0.09669044814521413
Ni 7.337088692204978 8.806003634369041 3.8180629213857697 0.7225023569188396 -0.2358123259817616 1.3923510921977054
Ni 1.8297317400215047 6.200218198089826 13.050755667726252 0.4104899894357318 -0.0797965006033529 -1.3603418862809602
Ni 7.426530340704794 6.045587741523498 5.38079302081337 0.3076872577451927 0.17666821152143766 0.19233599996568165
Ni 2.535667945149187 1.8884388648893922 8.992411077532243 -0.12806870534617942 -0.3866712897495792 -0.6759738743399971
Ni 6.534364310992237 4.320567268096704 10.849047847439342 -1.5190493995589194 0.3926856142644592 -1.5265446794946997
Ni 5.972113166269074 2.20308413178389 4.702603441452886 -0.1174492779591203 -0.17622469622611586 0.05549546196414313
Ni 7.5792916174677885 5.370274467203665 2.8851236635751216 2.2898316745300695 -1.7846726382545264 -1.9604520194131074
Ni 0.09271224818554974 9.0493968830887 8.134179495682098 -0.6366277684422067 0.22205023920066275 1.2866913506743451
Ni 0.11364799192308729 8.029364075784912 12.045720935978764 0.15052909123222463 0.60064389414843 -1.0409993036850265
Ni 3.6466675028818796 3.4589125763679176 4.473196493351204 -0.5071570405421781 -0.0017640338789582522 -0.23098945067182156
Ni 4.267625772472931 7.5747721080925645 8.8121105516668 1.3436801093545634 -0.8110511497935259 0.9891057001395287
Ni 8.550735049286908 3.4204502496684746 0.9252839900787857 -1.0447698264710523 -0.0871935643983724 0.22618740129748785
Ni 5.562762789339004 6.4009178921970245 12.362575740790039 -1.2283987855810392 -2.744036074134616 -2.317079711612745
Ni 2.529381549392702 8.94291873011273 12.8421319531692 -2.555915140691547 0.3666146282090202 0.9409923895720697
Ni 6.990853356693941 7.99664877952557 12.504112639331025 2.1890428879457655 2.242335428721319 -0.07925579760853446
P 0.7404360566320976 8.067389330590043 0.43471356596296606 -0.8083787451676852 0.5391523625018521 0.3027363414978206
Ni 9.025739204383822 2.1047336561617174 7.570305605308777 -1.0225341550013036 -1.6227823563732118 0.14573424094674256
P 4.32265033414619 6.477005599415313 4.507754001148061 0.6015039281558803 0.3557676581921873 0.07279255848169398
Ni 5.371734473318707 7.098689222362881 6.803470406260244 0.5946434535906211 -1.0520964420394525 -0.9866824354100169
P 1.790534760563538 1.317055707395713 4.1006196717161725 0.3783565992362968 0.6533211699374878 0.23630597778872853
P 0.30452751751127893 4.453437123967507 11.966465852437016 -0.4203468276251535 0.1325172280358363 0.2063503119669027
P 6.003870624121734 2.4683681728271685 1.6402833924021345 -1.4046347946610647 1.210451457073999 1.656975971535785
Ni 6.178838872876572 -0.015279847437102098 1.9908792175140828 0.1321181928252047 0.3472076844373182 -0.3690353218353709
Ni 7.21078421415086 4.151150762339826 7.06601856323317 0.8445114863345002 -1.1181784212701904 -1.6294320004792453
Ni 7.553839154175629 9.130487668586559 6.270097624528485 -0.8554523016167203 -0.08395834529052637 0.08237377441222588
Ni 4.592453884564694 2.246437943938823 7.412245529282402 -0.8674732373369963 -0.9242627355222146 0.5908536475308857
Ni 0.36548881742557454 4.146463863728482 7.26435248946988 2.2784874531618438 -1.19763245093246 -3.983112908254791
Ni 2.181323531088364 7.648060695306854 7.912326451830406 -0.6867257135398626 2.1696014913917026 0.34112908234340605
Ni 0.1076108201403798 7.934742660367402 6.169378591215222 0.38283417539167613 -1.9861892762782116 -1.2820574514467598
Ni 2.4131483237117695 3.783182724339283 12.229954178952813 -2.538637327447705 0.5152979244817577 -1.4585269166938302
Ni 5.767991292223434 4.775940385557611 1.0970411553207338 1.7829327727452844 -1.9172124919981821 -0.993490459470786
Ni 8.269855911078503 1.4276627948626306 11.799940530764001 -0.050380509335080974 -0.25304900157502225 1.2657204048496329
Ni 5.796391665951697 7.167979066714319 0.8182878604110445 0.1214969656659327 0.31700699248422176 1.3408115295575165
Ni 7.505668251781258 3.632309226183635 12.622661416111608 0.39174613316932533 -1.141253815032415 -0.5891042689399467
Ni 2.281041018805512 5.770604424187298 4.091854055384718 0.2534488081166022 -1.594296847339009 -0.05757342753909439
Ni 1.4305177112786676 0.43276441130237536 6.1722372273920625 0.7665918910388863 1.2993406640072398 -0.10740577768018922
Ni 6.23342636265552 6.924269638326432 3.2189917243575352 -2.5534875050866606 1.3976295669878254 0.6729183753431249
Ni 4.268723101909713 -0.2166649074721894 0.7923769365999571 -1.137574052187983 0.6115484568760758 1.6003957611478954
Ni 0.2682170724361716 9.19775024330055 3.4901976245986392 -1.2034295172302114 0.47324033319007536 -0.9112565530705338
Ni 4.54653343745593 0.4859421117371174 9.623466637822096 -0.3909110388625397 0.990075520251966 2.6483139034399423
Ni 3.48480211155439 7.59260836114129 11.325923042219992 0.36452175023573347 1.559224172005592 0.04842364271902628
Ni 8.538069263753872 1.5226096893503747 5.027570114634547 0.1540522738941347 -0.057633334242752354 0.5050140260572464
Ni 1.9076235312290803 7.994788899124243 4.203257171663404 1.599353178815994 0.5359459397494125 0.06388368602783837
Ni 2.1623248527888084 0.49785743552821893 1.9545250652495443 -0.37830054918738076 -0.044127843557149805 -0.581768911620798
Ni 7.697022046871789 1.6222527818514696 2.8046029314202707 -2.268619302118512 0.6705056521365743 0.1704775093296935
Ni 5.3250607746474055 8.838970014482562 5.135012615598607 1.62099929633086 -0.9018512005962339 -0.7310479324960054
Ni 7.811637176603566 3.723601455682772 4.516968778596436 -0.4838931849182311 0.4978733012474071 0.32456629288871847
P 6.536782155513963 1.825165733636247 6.773240840157275 2.379539006489231 0.789453369018092 -0.9468866435693176
Ni 5.941741319315404 0.12305061729199603 7.8883581730985055 -0.35762733710874534 -0.8831240565003758 -0.24086377236274
P 0.6535954508735372 4.196838724398424 2.33163441542261 -2.0847725705707645 -0.5204007929259619 7.534784935853797
Ni 3.0367383240706984 1.544974751176332 11.625438182049695 1.0770893645393644 -0.7572837262640829 -2.3945300805814247
P 0.5189010523290334 5.855349874673764 5.906517044394672 -0.44262080853200547 -0.7152364193850456 -2.209870623324394
P -0.2727319321103929 7.519133785886866 9.788060473698335 1.1915443357568511 0.7289020897975964 -0.47805909473495733
P 3.5540919559058275 4.1453479354876865 7.906256732140676 0.8417516642011761 -0.9367048179403095 1.2874737373663245
Ni 2.6496135179364866 5.669408331551096 6.821013728145761 0.4253782194014738 -0.1799617946710449 -1.650977330750189
Ni 4.23816526691591 3.5286394926136673 10.151694990363785 -0.21060754458135988 -0.9814877785829549 -0.7737570413287577
Ni 6.4859981211557285 2.46797759794289 9.021482868085386 0.3627003807562786 0.17585908535658099 0.3538434445862809
Ni 0.6592215890875515 6.084645229951366 8.056613183544755 -2.0730779078416557 2.0603409198909617 1.858068634648174
Ni 0.9962263381668027 2.1503472230042626 11.004822130452487 -0.7048512194959796 0.9222307926938506 -1.8133486660329803
Ni 1.8430205854889865 3.7807183828075246 0.9312858241338681 2.999852611152446 -0.8591225513794559 -3.2531065296494233
Ni 0.43123558961248454 2.098521655621285 2.3516690471057045 2.980472406853622 0.38072972745416367 1.3391932772278032
Ni 6.8131417843471445 1.4257192198432438 13.704664508447413 -0.5793466753325506 -0.4561849203696854 -1.5670647510959335
Ni 2.5317993939144268 2.7433421907613615 6.411021692477234 -1.1010445898033812 0.5863051089282548 0.7441939829596603
Ni 1.0871279927816606 1.9402923304783892 13.284844864738274 0.033299899703710396 -0.44843998631694376 0.3533171397691657
Ni 1.8086127980644364 -0.2707083822337491 10.001106983849743 -0.06809258190286337 0.5928722206228112 0.6583353353226274
Ni 8.411309115001428 4.348047001026311 8.919212694517416 -1.2897015982555786 -4.730829816766046e-05 3.916029484342733
Ni 0.44864685998950743 5.70446707711611 1.1806939260714195 -1.6358756992220602 3.6136754658849957 -1.0382001436733346
Ni 1.9176575859942395 6.669010352646307 9.956232719466724 -0.9628125707709548 -0.9124279476708157 0.8940720708714472
Ni 3.5367950681734865 2.1327248562016887 0.03935227947147766 0.5700421101021731 -0.7013722598084438 2.5455949897124612
Ni 5.494272693560138 4.49844622967962 3.3763989823630443 0.2241138065979108 0.10313337555708045 1.9165069812907252
Ni 8.029791848277219 7.744895368401946 1.299666755583506 0.41968168323732885 -0.6263366709288439 0.965034261012622
Ni 0.8085179086628738 3.2760491353094454 4.789330594506965 0.9682841354084873 0.555587882350056 -0.8851020061623531
Ni 8.180098082910462 6.092493925244965 11.14936645560242 -0.18806848293857933 -0.8585756777370503 -0.26959919262421955
Ni 4.063578293643344 8.470118533291389 2.8404809543020693 0.23728094010748813 -2.226179644897063 2.986599345686966
Ni 1.881352720560336 4.251826088463657 9.313076777285834 0.015861135401972683 0.13698477688888666 0.3136614730507566
Ni 2.2169030431657495 7.36847417397737 1.699312276579451 0.06955168294689312 -0.1380042192923365 0.7667009058129247
Ni 9.32637027245432 6.653675638737366 3.685890520665465 -0.17382791385916513 0.15231600792931832 0.4164462070191666
Ni 4.445132757975581 4.086956990288024 12.752343436974535 2.8464279435399815 0.6928454532843552 -0.42809716099453377
Ni 3.310363928713929 8.122293000037217 6.05406972609375 0.4029481725327318 -0.7364480204656542 -1.251136079277555
P 6.000857617871583 7.600736038495088 10.477900343892731 -1.1873233556969682 -0.37397004013282686 -0.6788838488979405
Ni 7.646312407729607 5.696265004546258 13.471623354041538 0.2823824604318169 0.9720050359035002 0.6112257834293344
P 3.8297913271965376 7.061649704170454 -0.1546788134567626 -0.6833781372238683 -0.11484449334642158 0.7643853703058707
Ni 7.355799089042327 9.293087712672573 10.183271109877316 0.08274118505397364 -0.5549723602532443 -0.5111347942430036
P 3.592107911308952 0.12214299565614845 7.679489884268679 -0.3425516737225455 1.3871145263891143 0.572137302068305
P 5.2118684534226425 2.045366273751359 11.442648206267076 0.29948878109480037 -0.11371629327924931 0.523438294200705
P 8.516215669038278 1.8655158389430366 9.716250491403098 0.4479314221116415 0.3445638190565679 -0.8061979354662825
Ni 8.86534311857338 0.6295239487793622 0.8792221920595208 0.06855435203063032 -0.9215175686769096 -0.7335295612672786
