# total energy = -340865.79716974194 ev
CRYSTAL
PRIMVEC
9.24910642029728 0.00000000000000 0.00000000000000
0.00000000000000 9.24910642029728 0.00000000000000
0.00000000000000 0.00000000000000 13.53700216010798
PRIMCOORD
 96 1
Ni 5.825947351705885 7.893612825549706 12.791979324363075 0.4642327303748263 -1.0596146047933686 0.6409384800024187
Ni 8.087982795681299 5.791013476988444 1.2965045827818287 -0.03397327162165117 -0.007980447102315288 -2.435565915476812
Ni 2.6323789116908114 5.778693667318433 10.631920827457986 -0.2755677515028287 0.1417865691529042 -0.8768654771851737
Ni 8.18779915150619 3.9514957096987984 4.491184765381238 1.1590977851923716 0.8561485563527965 -0.07045414015650447
Ni 5.720701770448336 2.5631678488074083 11.222756516394325 0.43677180595039616 -0.5867038870285701 -0.9207320966611369
Ni 1.2993884541445235 4.7015427407647685 8.937751841687302 1.1547636765933917 -1.3477838471102919 0.931867030232034
Ni 7.069998402505306 7.926132683507482 8.693923200212303 -0.01148511782146409 -0.3777315640577882 0.17430793881937723
Ni 3.880037113970191 2.1972547030379075 9.338203000422084 -0.48955861073412454 0.7377096607868973 0.7872576469183538
Ni 4.887560767854304 3.124357377131671 0.9264173153125711 -0.966148062902091 0.03712184455296188 0.5521246063918039
Ni 2.350836114126896 3.2355408846716127 10.895161493358975 1.6630646009320262 1.0754939950277866 -1.7595321344331567
Ni 0.7205923269555218 8.550447362731013 0.535637947097256 -0.5218017870385465 0.23625635549771568 0.4650225732659733
Ni 5.732170662333331 0.9623232711083292 12.766841178190308 1.571304243098578 -0.26151872960893024 2.2126587275924927
Ni 1.14046105958011 4.862338454813673 12.189136445551654 0.329022271777543 0.6926716467106522 -0.3979489195459276
Ni 5.5094706794245285 6.0222226377474035 1.3544585583158542 -0.2745573079604433 -0.07075341656447814 -0.2011929361356793
Ni 8.32783062177944 0.6183434561582457 9.119187861486653 0.6940608137486949 1.8081054153561698 -1.2442894886693667
Ni 3.845963406144125 0.2410021145717287 0.4853450063602802 1.9189351311162435 -0.8345829143668788 -1.1724860335738194
Ni 6.852709146816442 1.823738791841418 4.118416181978545 1.9884415626474978 -1.3951088574485004 -0.6695386602376147
Ni 4.79215623576259 4.386249954097347 3.472877578393322 -1.3904055384355603 1.1385685548907682 -1.998928835332067
Ni 2.8012860920164426 3.0808680790322773 2.574033698957806 -0.8863374212313511 0.20552344519023313 -1.6747582352198707
Ni 8.596720641844424 8.230798246968565 10.555476963401949 0.3887844794378401 -0.2828871679823773 1.7594208056662732
Ni 4.655121475949614 2.0708749137503473 3.385062862979694 2.0864409594121227 -0.9622101613002656 -1.6415208133229793
Ni 8.623099093179913 5.7594370278792715 8.407655959120278 -1.8337038326505646 1.9930610636973805 0.7875600086501211
Ni 3.3073879428672925 1.1763383431461554 7.311077284659813 0.7721925250551153 -0.9342740970116297 -0.9173634372992201
Ni 8.595231535720647 7.915348225493043 6.612974159815877 -0.19018218684747246 -0.05633029916061266 -0.12847751074882388
P 4.277258484764457 0.15330301298758658 9.766473621263065 -0.9525785517477723 -0.599468128672774 0.14796750115263546
P 3.960162122357057 2.735931906484687 5.34155222856866 0.05418188535904218 1.7485303840060147 1.5521888624253655
P 4.576818541515445 3.836094609659213 12.342198981773908 -0.9743529673103866 1.8180221602492497 0.6763657104617772
P 9.32689134334519 0.3917671727744421 12.327592793011986 2.363322030409736 -1.883509443318782 -0.7085245545825087
P 0.45715095544654555 6.361202385799884 10.391205435183382 0.6579900361680668 -0.6792137214335334 -0.2531690720926543
P 6.287690488459607 1.6699354021998167 1.6098744802372413 -0.9412806102364499 -3.4869437341826846 0.15009123236385763
P 3.2976578829777643 5.644886845624702 2.2314255264807423 -0.2771649207866194 -2.322361785947291 0.528075278752084
P 1.295448334835646 2.1294032587892584 8.470400046837561 0.17006793259610065 0.8579002489365806 1.159337154896687
Ni 2.718774814188989 6.495314428003457 4.5948644729322305 -0.02705674700747598 2.1831925998125756 -0.6811497621139818
Ni 0.5197618560322607 5.790662010946807 3.1292270316296147 0.8540626203580451 -0.19114095121631597 1.1559551257983318
Ni 6.232723049368861 -0.09538140932581715 10.7141037620097 0.35660120983707616 0.42599245594670504 -0.5883807605103609
Ni 2.0269601567584465 6.117257205584764 7.029643626550933 0.26275902977393456 -0.21873248768133943 -0.15874865092853951
Ni 1.2514873323119509 8.378497226413314 5.163689138555737 0.11853171239002168 -0.30862236796495235 -0.8995914580277796
Ni 7.589307977236618 4.6815184254978215 10.384599723421879 0.9849549111959488 -0.09283147941044012 -0.5695253183667546
Ni 0.4666877090131734 3.954788391562555 1.2885401772962082 0.2491638075880032 -1.0321739920839128 -0.4431131747873917
Ni 8.077318576049525 2.316956637534366 7.165771049030104 -0.2759762997951569 -0.6496804878611069 -0.17663093052559903
Ni 1.0222204838883526 0.6964059138270842 6.912670178430341 -1.2187522636302106 -0.4426930565308376 0.6505662329001699
Ni 6.473865750357245 8.45616197250872 4.806921509153884 1.6476402959571559 1.6433113295644988 -0.6510933090482335
Ni 5.400442213666203 4.141564845373518 9.517757751988043 -1.2974190215044945 0.18338984651598741 0.5593077544038045
Ni 1.7145623403813508 7.662477657641616 12.103163227214075 -0.3538647847425196 0.495581934110069 -0.9860694844163662
Ni 8.813704677023447 6.679491882927578 12.477935167054099 -1.6367778993213555 -0.3579955190814415 0.3405205022251297
Ni 6.405690587386035 5.124439630811249 12.315869550702123 0.5805175557122003 0.11327046399108233 1.5592748227378694
Ni 2.468586487181634 0.24509669395679914 2.2788188723742135 -0.36450709494771416 0.07208550511234037 1.4637094893360338
Ni 0.14971250989907434 4.334732431678457 6.91739462195845 1.0192423716239092 -1.0702240048780987 -2.117495771835398
Ni 3.9164138492796154 7.377642178213945 8.711317994541423 0.3143459007122909 1.3208343151046413 -0.0022818540556412315
Ni 7.7809679592050625 7.072319928201382 3.2359792923130226 0.9426816043490346 3.0506367836838493 0.22480157669355477
Ni 4.104771900277944 5.0336041572608154 6.051554328743279 0.6352059483940157 -0.19615820192524927 0.3624455844329951
Ni 6.984989865960959 3.043557183980608 13.41286813459128 -1.8779792575291723 1.7922329671002875 -0.8269680781340983
Ni 7.140282361726338 6.20088762528164 5.3199065449570035 0.5089964077437622 -1.8165417190489812 0.7762201581572696
Ni 6.077948503559578 3.645655509730139 5.061769535944837 -0.4460468034944189 0.9379464036568944 2.6292376035347815
Ni 3.506262227795653 7.560783733225872 1.5814196045241866 0.48183244573446055 -0.10953773642152748 0.09139140452980389
Ni 1.117754503469091 6.0564073348497764 0.6665960440324554 1.4850632724214616 1.2655954492359947 0.81072744790552
P 3.526601012678802 5.336170173578435 8.533238475439704 0.5658697238920383 -2.4442655001333393 0.37500722314808965
P 6.913928981805782 5.310938611431446 2.9439054622489014 -2.083157917785477 -2.7478659894036674 1.66657492807813
P 2.48371802518474 8.216314146410578 7.231886436015193 0.24427614047839866 1.5099397239481671 -0.8149242595956869
P 6.950166980519825 2.2749656946651093 9.508755596768957 0.7826561435906004 0.31753946794892407 -0.7273833391602247
P 8.505052748721692 4.078698669452298 12.374945442837479 -0.7107506156995501 -0.061005850259411055 0.031036814701146546
P 3.8165050023911324 8.24171219247203 11.97326137822506 -0.43041629604601356 0.5244070858718776 0.3996522753902795
P 7.301235310583342 4.376371908506077 7.21948615911986 -0.3224983546160962 -1.1446954937241127 -1.4336064993030666
P 0.42844080439798615 6.058802853396723 5.573075858943821 -0.7030879569479698 0.886891493962608 -1.4948236942423352
Ni 3.3729918542707367 6.260387126488232 13.096995428955157 -0.22946067273212092 -0.06651829543720801 0.8972229577956031
Ni 8.021601959343709 1.794863081789035 11.874265418134197 -2.8014138407231366 -0.500524365717009 -1.1428057329005672
Ni 2.280626147756736 4.385741253247609 4.536940094538553 0.8282189198220639 -0.8252811773499787 0.8325304027132242
Ni 8.596202691888328 1.7855029861538614 0.6652123777211689 -0.024506212671480378 -2.106377293324734 -1.867502269257248
Ni 1.110863919231735 2.4186783092691866 5.203867256578657 -0.336668218358575 -0.6950388613912483 0.6980851044167397
Ni 0.6904124929065384 1.6977752123400067 2.2751099807243076 1.7699682421648164 0.06552225007252586 1.634293699446921
Ni 0.8219847305039666 7.75094535996418 8.589160422306687 0.09185780264326115 0.5164186683497622 0.3765771387383708
Ni 5.6642637234465285 0.8818597454287288 8.291224508632315 1.0080447031358768 -0.5074331770217002 -0.08439440438668046
Ni 3.125726244872783 0.974855810224594 4.518881214372866 -2.1757507988225497 -1.2832545570786544 1.517924799036173
Ni 5.601138572547261 1.3095254747138418 5.876222719140778 -0.9122376860368806 -1.2142407489131024 0.4564266040668462
Ni 1.1713993203505204 2.4145532078331318 12.544847827007324 -1.2187638335944366 -1.212610155288215 1.4823787836107631
Ni 5.996417631006165 8.530524787634013 2.354355399096445 -1.210948965535708 0.46079876499261285 -0.9887501165723229
Ni 0.09093906354165326 2.7030143369534794 10.427836520917674 1.046934438222539 0.9958345342229301 -2.8696318924602706
Ni 3.6585210166753237 1.7465919957021074 12.290623189984958 -0.9726362417295958 0.8168955243894447 -0.945457367321959
Ni 7.434561178746413 3.2253761167832176 2.094512854871704 1.253669901443002 2.8848106570832384 2.6071274018993034
Ni 2.139937990932008 0.6024655152719787 10.433522871507108 -0.2973884469223459 0.25374808452457587 -0.055800394799071645
Ni 4.3935290008017756 8.186041821298007 5.685988024462236 -1.7042778419455422 0.36919755844484803 2.783667315372993
Ni 2.4061920156847156 3.3987598645865402 6.935236148124704 0.8722421194805495 0.26734253537955893 0.7005186535588968
Ni 5.056699175838906 6.632469426199097 4.074420957761322 0.8759213681043495 -0.6941703427433658 -1.0882734061806418
Ni 5.907126758217661 5.66784312760741 7.950119315938568 -0.626268793805386 2.1164143658457615 -0.4612618206719605
Ni 5.396668578271785 3.0721184244167894 7.336405037512935 -0.116826813883773 0.952703764471727 0.6194240029694107
Ni 8.06142861132499 0.4471110504939953 2.69892623194286 -0.09606129920164747 -0.9445340841767411 -0.07423237625201409
Ni 2.8287189414768426 4.069061100626358 0.0722059235224038 -0.3100405884687176 -0.5559609494187586 0.9688150682112926
Ni 4.724600762917424 6.240631035305692 11.340529087304322 0.3151012908210767 0.37632131397382285 -1.8058143053291482
P 8.838769755255978 0.8980836028928176 5.120615125331858 -1.1651133952588322 -0.9537926266605316 0.011452207700999632
P 2.405905293387591 1.7416252255873959 0.6332030704344016 -0.2102092807016767 1.7769274470914689 0.9431971105328724
P 6.641089593325562 6.761901420585084 10.487373018549702 0.4810531443662747 -0.25342978195320875 0.5988950297781234
P 0.7571808668005642 3.466925778451391 3.46177680094141 -1.0718985643670444 1.0173574958963703 -2.1088396388222974
P 7.606002614214374 7.942873566017031 0.6381624412640262 -0.28726678510731174 -0.7503746578490754 0.6986263216321903
P 0.62098685075561 8.438736656128615 2.6647452344830307 -0.4191759472455039 -1.0247216495709255 1.5190884803269709
P 6.3727545196421085 7.5930908617373944 6.781753702473757 -0.8773794407071148 0.4056853689582368 -0.5333282996209072
P 3.9477775689425334 8.433677394950315 3.627957344712447 0.38159516077825245 0.27567779471813164 -1.2986377244029441
