# total energy = -381171.3580314124 ev
CRYSTAL
PRIMVEC
9.22565114191462 0.00000000000000 0.00000000000000

0.00000000000000 9.22565114191462 0.00000000000000

0.00000000000000 0.00000000000000 13.50267298929907

PRIMCOORD
 96 1
Ni 8.211170835463815 1.766435417703148 11.611178456434159 0.5714004239022805 1.104261296968466 0.5541935731056907
Ni 2.9900704267992952 0.46225955186657003 4.792368718055676 0.545190598276132 0.10070342595934915 0.5865959006957963
Ni 4.328896915633477 8.8179880371112 0.257665054933487 -0.30859974225713305 0.4440783669141384 1.2467960571413044
Ni 3.581204021562596 5.802362556741957 7.426942517873907 -1.3559180461816518 -0.2592492168484632 0.8838791894988455
Ni 2.000250319391499 1.233561809688661 0.9217818530493123 1.6604929835501079 -1.047460743039654 0.18385753018102527
Ni 8.156951683900429 0.8096099289190188 6.132765412708488 -1.6606063691995205 1.7208483447097138 1.26152333604915
Ni 3.103739674104463 4.425074328437338 2.966699084846679 0.05899190515317582 0.951384017219039 -0.7628578779177507
Ni 1.7172903742493189 3.865160337024471 0.8287550000989299 1.1456755982491946 -0.11071298767655124 -0.7979387807812838
Ni 2.484689259087495 0.22591405407921664 11.445702565330421 0.018469262448781096 -0.7938756664555038 1.8241267304850906
Ni 6.659443996003763 2.9907438993302 0.9408835636690143 0.35197013882296807 -0.6549656475194463 -0.3795225945199399
Ni 2.2661428099833536 2.138865727293467 3.0178876100209933 0.2938981743809003 0.3563546410439089 1.229022278097651
Ni 0.519271308020433 5.839338966383959 4.21041741384045 0.5008077012853827 0.6469882857409245 1.9288405631554135
Ni 4.276901145987188 6.369546361228152 13.060514407068922 -0.371882818586495 -0.2954500922490525 -0.32779894089340317
Ni 7.749934408305154 6.002679119256128 3.021533587338987 -0.346217552609907 -0.45902393248037726 -1.2217748525066185
Ni 1.8311256832744356 6.078191073577433 9.417844484997383 -0.4275469449180185 0.37620767121409404 0.054386288060364406
Ni 6.118008983760787 0.5098943562339731 11.340084543747453 -0.46274329031349337 -0.272793274081485 1.1744454712930354
Ni 6.365865326435947 0.5942776966610039 1.6654468278463166 -0.26663085402451503 0.8074629182216351 -0.010803004152774943
Ni 6.879069846287573 4.866494057015405 12.866548782777691 -1.5678301685070484 0.5876677936037363 -0.8042577810207762
Ni 0.2606495530670169 9.139418947374924 13.209786364566067 0.28073566885701334 0.22465425248241308 0.6083168373126555
Ni 4.301053900588676 4.374222539528477 11.51776689383256 0.3273374278759524 -0.522762608289919 -1.4397848601996366
Ni 7.575671084520777 1.0423048365628242 9.322555502395248 -0.14611065044955482 -0.17194612345542 -0.5157869483030343
Ni 3.7790204326264227 2.0702914626055917 10.707673540795469 0.6644537895155396 0.7607020079170126 0.7286048702721516
Ni 8.288657079122293 8.776039001521832 11.157987719607032 -0.18426325025987622 -1.8966230978826046 -0.21686715233782647
Ni 4.2491503874534695 2.770647540839867 7.242833579226769 1.2417484674150678 4.587295154573784 0.7849428827422482
P 1.1886513400935343 8.906139133450854 7.887694598349383 0.5174705066530443 1.795262497955231 2.067802775485645
Ni 9.070687846618208 2.313498077122176 0.4582417808089123 -1.14277899342769 -0.5989531367095685 0.5295678041372105
P 0.1286341759679154 2.7456183493830926 9.894448079207113 0.4932774543466086 -0.18604348208875054 -0.31834756567251626
Ni 5.7662164556997 5.302775097926159 8.589428066294127 -0.9430636702788016 2.613954452123466 0.8468545326453801
P 6.375413875333021 1.8005426498504742 7.700938820399279 0.24209713054920887 -1.0095130601512872 -0.6701477545765232
P 5.032131397013537 6.24982508679595 3.3224411141472228 -1.6111198324336191 -1.2922562463566327 0.24920288835605467
P 5.445108443224766 1.981383862875058 3.605038491200848 0.37057104175360694 -0.5427735041942071 -0.39086450189532046
Ni 0.24257834767611008 1.2980767878888912 2.3865430923371256 -0.4523894578829951 -1.560417935203377 0.2879548123132718
Ni 3.4263606933611563 6.904818638530793 1.6530374045405636 1.3105596726515107 -0.5407785852513654 1.237197614819592
Ni 7.668665647692279 2.4017045273684796 3.1727503120897604 -0.9890306239272193 1.257844601645982 0.20416281739728065
Ni 9.13938204477049 5.851507600195785 11.19522798287073 -1.7580704622859658 -1.3712991566234125 -2.118091239327552
Ni 2.8866324265732146 8.30339966959333 9.372799320896075 -1.4772286068683913 0.1797872167663936 -0.17818130573185445
Ni 1.7620347821244964 3.915689228144543 7.943068801431527 0.46160737693683734 0.8861301903165513 -0.5950167777696397
Ni 6.569789118533458 7.682568703912464 9.72505682177302 -0.2788711048444487 0.317517356461737 -0.5228693090711124
Ni 9.279344397734267 8.088220583143713 6.384739163473275 -2.3061437814265315 -0.7771658098999906 -2.267612715230869
Ni 2.6033864862466776 7.41387161538369 3.9828565810384045 -0.13091568787667132 -0.20971717155660655 0.15745615736936108
Ni 6.645679324550202 8.550388801064312 7.217057110030224 0.11403125341650683 0.04851594532251644 0.3183388239217679
Ni 1.689428907902301 8.33867855943141 2.0515283333815635 -1.7869218393000192 0.6976721852490372 -0.3323505648198276
Ni 6.433498574710777 2.9192727801943232 5.768328207238386 -0.1595948009789187 -1.7543729588297206 -0.6669770701580255
Ni 0.31625070716642323 2.047965386923544 7.81833154049175 -0.5368180579417207 -0.7182235270378277 -0.1244971859448372
Ni 7.1547323014031 7.377255006134911 4.934146679157563 0.2896702523424818 0.29454609237754437 0.64899091799325
Ni 5.513184522752794 3.112347206588492 9.2938222120185 0.7378009349491229 -1.8787852983702353 1.4406569783919447
Ni 0.9426309019889233 6.02649052476661 7.069661649968501 0.2427460769871174 -0.2725487621708468 -0.250799029198581
Ni 8.650800787726876 7.715292088393547 8.576871032570642 0.6384941322269843 0.2193446673440416 1.4905808598055812
Ni 1.173502820973732 5.935184255747922 1.9099394981273956 -0.32246544449563175 1.1944211430840137 -0.5945421521260664
Ni 4.621534568788247 0.7282858143994948 7.032300530675284 -0.6619389935134857 -3.099269457089888 -0.32916085423793634
Ni 3.685786002526104 0.018612751110963083 2.6929463395105664 1.3743649400329299 0.7741532483259119 -0.853374336041769
Ni 9.001043406401772 3.9808315506201364 12.497385276244817 1.3671918193232584 0.23451597576784125 0.2593525751955469
Ni 0.3956586539507566 3.9842819441346347 2.7865866982596494 -0.7288686654564995 -1.819560194160331 0.3994599568738153
Ni 5.748226436038546 0.1966244569406364 5.017958029215881 -0.8957147486811929 1.3758214699737983 0.05060419531011284
Ni 7.14161342552712 3.855095151665333 7.747563415970325 0.8984948825294913 -1.4940389935575107 -1.4444555262024286
Ni 5.874368763642114 8.094161902457449 3.108504722901892 -0.35990739139217376 0.46140348845614737 0.4888325312013775
P 0.8226107164608126 7.576750485700445 11.367494875755277 2.237804373620185 2.552102708923992 0.7542233421712042
Ni 6.004616505988868 4.180262450627913 3.8334084136050897 -0.6707838454986254 0.682010053231748 -0.3104959308385814
P 3.7898144444231154 4.286311310117639 9.224823567379643 -0.7126416620746759 1.0147943631548846 -1.4552058227403972
Ni 2.0421440010742167 5.296354044754793 11.980111321689327 0.6918100700413053 0.22542198388637305 1.1319826741431345
P 1.6748339278489957 3.4318776327239107 4.769508477174458 0.17695746062708234 0.14658604742407658 -0.11165529698516254
P 0.2589760199559742 8.188281995064163 4.0833571339516075 0.7620662352543909 -0.5164515784702266 -0.5950334899401881
P 3.892136140865093 4.253532571729905 0.0033027830967656915 -0.7363312923821319 -0.8486303935988805 2.606931998059046
Ni 7.639208143703528 6.333049685443781 6.991562823076434 -0.5130006438071487 -1.1675754836460797 0.004623100594308167
Ni 4.05538403722618 6.456959405479143 10.511223448660777 0.7321704761362229 0.9400238550112133 -0.44913187017764583
Ni 2.7248606343894535 1.8982422950872022 8.817528599686007 -0.7441304767115765 -1.1404590870452618 -0.47881859860880116
Ni 0.6010889948742502 1.1916404510526182 4.694419980239024 1.111096060502112 0.3576682176490098 0.14559540137603313
Ni 5.8807529142090464 5.086073779043675 1.6995411440820911 -1.2405670455124571 -1.8586311920198635 -1.1696411079258564
Ni 2.393835046973113 1.964713111322389 6.493273413371571 -2.072695584801572 -0.5174777057418959 -1.4618876056359469
Ni 4.785363681169156 0.4572066627545628 9.482387140150937 0.6924777855322913 -0.1112673175181245 -0.9257794292770571
Ni 4.195798447094263 2.560625593359781 1.7158659337181998 0.8490230010516088 0.04912838209553475 0.12162397816210022
Ni 3.9991536937211882 3.0932224318410193 4.869685209733761 -0.39367985985692844 -0.6122513964803714 -0.24109620008852026
Ni 6.28638634213808 7.278614344485138 12.126682931107078 -1.4142723177508287 0.8470445371689993 -0.5541717187288198
Ni 4.684038355046872 7.642760019380217 8.2255849927554 0.4597209585474018 -0.21699313639272952 -0.8063372892576242
Ni 0.947234501891957 0.554486540865864 9.922452543146308 -1.820327925564291 0.39638903125797537 -1.1398893305847209
Ni 7.706066437285263 0.24102659315969674 3.9045003584804157 0.5187120923696292 0.18155587863104214 -0.5747480002182748
Ni 4.025428348077582 1.9856737906404103 12.901534296910526 0.3119352343882692 0.1595348942752607 1.2028435628197542
Ni 5.294997874041875 4.994952023047153 6.168965945092284 0.7985021094839215 0.3410393508430772 -0.7519718271328663
Ni 2.0409354407790317 3.865409429604395 10.289860408273277 -1.240335132007309 -1.67039095939011 0.8486532764170158
Ni 2.259814013323071 8.014701369461799 6.356289100585548 1.688450902215615 -0.6188012817837472 0.04011460863269865
Ni 8.67749059638314 5.00577371179717 8.697827621686242 2.290302957739533 1.1143263945139519 0.7204495881548689
Ni 8.204786684896883 6.896810773368803 13.09552667558997 2.089734028341098 0.33663685090000733 1.8896438383512941
Ni 4.416282282931144 7.664680166413501 5.808579723023829 1.1504426806205348 -1.0645369817956505 -0.4562036894227627
Ni 7.68382339246319 3.955977646534419 10.515354695227067 -1.0440915694571051 -0.3705684706504457 0.039689605280138096
Ni 6.0080576738522575 2.8200324512225117 11.779286425799087 0.3604866609344114 -0.31891063726483787 0.48015197270824406
Ni 1.693322132669997 2.163378282288178 12.514033886234825 -0.6811147951109884 1.4090069555868314 -2.6051599937602874
Ni 1.762828188119809 7.103668322518748 13.399228652118905 -0.001132828052862565 0.8758905148664141 -0.24108720122745575
Ni 8.774765861668888 3.5639981822456464 5.502393278651433 1.2800908146386922 -0.6987379075093901 0.3556020791486004
P 8.346289721595744 4.917585712853083 0.9600397056302553 0.2369811494788822 -0.15983982711018924 0.7549129120390612
Ni 2.8792703569888034 5.334289922112057 5.111490447846997 -0.010240961001717848 0.142318016176342 1.2014484822444405
P 7.519708284897925 5.182915438727332 5.090454118189888 -0.3630760189281424 0.38962291617873546 0.38342321512592675
Ni 8.431728476509562 8.198577821701008 2.0405239767396024 -0.020469323597945392 -0.3224867846518704 -0.5730734407293292
P 7.314068521694273 0.3535786141156514 13.289074377885992 0.5704984809133014 -0.06795914164879265 -0.5201118009306334
P 4.283110009183063 8.45195110373892 11.758924491237995 0.9471776924471752 -1.118393879715106 -1.9319438846710857
P 6.423193522422824 5.7208908318047 10.64712743770202 -0.15316421486222653 -0.17096499048907332 0.44671657586793384
Ni 6.082600934807193 7.121012546602321 1.1192919724963437 0.7962565079828544 2.001309676859418 -1.3670534939731813
