# total energy = -340856.7999678481 ev
CRYSTAL
PRIMVEC
9.32227109664610 0.00000000000000 0.00000000000000
0.00000000000000 9.32227109664610 0.00000000000000
0.00000000000000 0.00000000000000 13.64408605954069
PRIMCOORD
 96 1
Ni 9.158851519488172 4.796149914298486 8.415726692393196 1.8628269752687663 0.5423248466925628 -2.413294505673121
Ni 8.120984452435074 5.808539214902979 10.122492800951411 -3.7184808298278607 4.265084249291119 -0.8162514630475426
Ni 7.353565787299461 6.140934107142813 6.997928609179764 -0.05009691665639114 0.7273887384768635 1.2782745873655599
Ni 1.2454740406390614 5.838985751756672 11.485305333545083 -1.732715785571261 1.156757052874337 -1.9831173222211074
Ni 4.85863709633471 1.5298965266789244 4.563073564307753 -1.582991449628519 -0.9152571895894946 0.6127028821954932
Ni 7.3244803020013824 7.32292348275626 13.645586871613585 -2.7092770733868763 -1.4219969400885963 -0.7146507220849047
Ni 1.2605947640856907 4.580730877674128 13.436600201930148 -0.0896152864659876 -0.9366050591376514 0.8128496364548453
Ni 5.339955266663263 6.911904557502326 6.100543503889292 -1.8617501972648194 -0.9154744478066233 0.9440126644556323
Ni 6.648019034318766 2.4274913830652958 3.4592803294727696 1.628829591008556 1.188216814045515 1.335155873933636
Ni 9.215092780002053 0.22489512502355533 6.141912945590343 -0.57189921791557 -0.49358418695374995 1.6238799603127647
Ni 0.9588608209309138 6.243768077759191 4.036753063297166 2.4046496855139297 0.9620258132036014 1.5653608810309494
Ni 2.3936328950516357 4.048177506320498 8.677761744797376 -0.38705901210630117 0.05404690244307466 -0.4500158154444959
Ni 8.05106742046854 6.6263354321382115 4.611510219599983 -0.31999975656395857 -0.3497559047804686 -1.675362958683405
Ni 8.703971309513898 2.6971380696828984 7.271042248355813 -0.22978437462012682 -0.621568045895607 -0.2581924934491747
Ni 5.450825034820329 8.20426962091361 1.4179481717753877 -0.8990350713036774 1.47280296699687 -0.5727564237095427
Ni 5.2628041524559235 1.0045585930242407 10.887325468131355 -1.434411511702865 0.9627686049068968 -1.015502959186135
Ni 6.021786162400909 7.86522794950149 11.539662563104237 1.4432224251262757 -0.9460129827151127 1.2296750811903017
Ni 5.013946130009706 5.994229529535166 1.7983042834900793 -0.5389006515023622 -1.2728994390965755 -0.7876569392393015
Ni 7.195357527365586 0.6271716246003948 7.85395918840267 0.7401303544132479 -1.2921379756112135 0.003796233817638624
Ni 5.857639615885343 4.837261129094808 10.013858513363088 -0.2794382902018284 0.8056184088137286 -0.19414965613565272
Ni 4.984170796662891 1.3076162986509174 2.3024526953234385 -0.5186257033034101 -0.8093074276295417 0.8194278038929952
Ni 2.0605574770339934 8.318681852023648 13.47369817909159 -0.2826861077151648 0.665388642624983 -1.159518674779874
Ni 1.9872471384493495 8.088981096336259 6.566898497149914 0.3118802127806177 -0.1933688121055702 -0.5998717918690959
Ni 3.62033188203995 2.6648923345399322 11.938261426799638 0.21006041382863824 1.220727899299343 -1.6956471628537377
P 0.046434231496707876 7.016770783181199 6.556147122087647 0.15760271024955438 -1.5093938787470262 -3.1867304162170345
P 3.645259634503752 6.955840420390095 8.090041970767965 3.2061674418957233 0.6524711632323666 -2.017951913401789
P 7.233877150843682 7.664733868634255 8.972296098113786 -1.7279427896626496 0.024023873718423138 1.1740122404103586
P 0.9820546310019455 2.5550200493722555 9.19009697496047 -0.71148646542431 1.1180051289171198 0.17046285404167416
P 4.452465751963787 4.706842558799899 5.6520490495012945 -0.24486363755075247 0.5560874476942939 -1.1870140519866654
P 1.480963926573279 2.838361151984369 11.890984462010959 -0.8926566785811594 0.35694548055037234 -0.04619629605040431
P 5.958124374227647 2.9779341923314298 1.4837261154495036 -0.8747021509852678 1.754729827948507 0.712819839523753
P 5.024387073450041 6.523930285984561 13.35648180888615 1.2879830729025754 1.539704871025742 -0.0707583016604846
Ni 7.10299246700233 8.308007851810089 5.6602349356039365 -0.5807942064123546 2.1213372570686757 0.5363686291091279
Ni 2.9775426569524175 0.12934184800262463 3.373868750995358 1.803392840371849 -0.49621571103932605 -2.2382910834486163
Ni 2.9376340151059197 9.032693227007757 8.672126432020873 0.49228218031287474 0.2270186389495316 -1.9742963814953676
Ni 0.45424722777820403 0.19922904870218688 11.519755785762726 1.1564899152558794 0.5990202425020781 -0.06996280234238274
Ni 2.3697492369318676 4.171846752462905 4.443824006812724 1.0319184244296808 1.8256177132083207 1.0467274644180553
Ni 9.13878999244924 2.570765364971119 3.050203233253319 -0.6533808195308295 0.6288265272302332 1.8097324094366314
Ni 1.679640164609384 0.8763400786685452 4.838847779606901 -1.6079337213961535 2.2469323040633817 1.385334551670556
Ni 4.914570721907938 5.025626935483581 7.764467251939692 -0.1333572074386284 -0.15430475622457296 -0.09884348993247492
Ni 2.5967558563208124 8.706991725294852 10.844278017663106 -0.08426044991197747 0.2875526917788467 1.8886755609007537
Ni 0.45843572410654587 6.978577439185614 1.5114785160047535 1.9534881865007645 -2.4394246271012694 -1.8549439729762636
Ni 9.141950242294127 4.146229151950366 10.51263170377886 4.1730233294981165 -4.157595939199453 1.5311400121748662
Ni 7.41038502861093 0.30986669231312425 10.692570177247934 1.0904411032559218 -1.7577683576645147 -1.0038748880289035
Ni 1.531164355525251 1.5162766888518433 7.400880041171854 -0.4188915832358657 0.11591818602657457 0.10007016325072443
Ni 3.653938668738531 2.8691712574042887 6.355210233351291 -2.155792867643384 1.8355115752832647 0.10062320754071702
Ni 7.293623585226819 2.2505360362934614 9.4772499541554 -1.1796010473520457 2.439744472334534 -0.01498156101049678
Ni 7.156959093409566 0.8713424092235772 1.6431434739228528 1.4806875119512695 -0.15032443142058627 -0.8119497503483952
Ni 2.5364594079528726 5.458870154631946 6.591949303589978 0.03680508464349145 0.57770168352996 -0.11661778319676046
Ni 5.542686692553427 1.875678199972618 6.70318916590292 -0.26617242633085775 -1.9517205530773807 0.9433768306438463
Ni 8.931574554242289 8.849342802378716 13.52097514388027 0.6290252735046006 1.7636232737833948 1.3066199712774722
Ni 8.495376175209474 0.44128367782451555 3.96420715092869 -1.594910312553292 0.49486253944554137 -0.6792821127776236
Ni 2.863913496600405 1.610534170213661 10.075474995294556 -2.203633641275747 -1.2311565508318345 -0.4238093322524572
Ni 7.4714738700078245 4.802013622712746 1.4702321282799624 -3.023463051482535 0.21174860016433855 -1.5486150290311782
Ni 4.832609315901301 8.269133982036696 4.218655739250953 0.6485633435375282 0.12763727423571564 -0.13005488253827277
Ni 7.10347722509063 2.558804891369377 13.515517886478507 -1.3061471454061118 0.036118085878795864 -3.7964757584460997
P 7.3688636338937386 1.4393120200630822 5.756357803378621 0.9350575121448735 -0.801056500474659 -0.9864996299752493
P 6.589615006949388 7.652680172323225 3.136148045627862 -2.799877606584268 -0.9083645762347196 3.130442797368899
P 0.34498275467508943 1.0100027992467016 1.7077896939062036 -1.101735702333135 -1.4174792547239008 0.5792140064094282
P 0.7203048400881905 3.163242293855533 5.034531568674839 -0.4735678917328231 -1.7839792117319275 0.4613592654817732
P 7.198993213027846 4.548196152132367 3.9680143663760408 1.0585429689957446 0.16294700528060324 -0.4886510113181907
P 6.619586107985709 0.4382073284179881 12.584841087246849 0.2734172808187291 0.007674742936438395 1.7866377324006972
P 3.340794265966816 0.7163260948557483 1.3149948760911192 -2.185368524417972 -1.0293768889547497 -2.62936590158253
P 7.146844429451741 4.222420072252031 8.140225619632265 -1.2039208550443332 -0.301409652266597 0.35539716222664597
Ni 9.170280623646969 5.039731531398963 2.6632982262110954 1.092716786663976 -2.1333216831240613 0.6350863920970159
Ni 3.2025543103625838 5.949193638677788 12.409255182074466 1.789358987986602 0.5982345133759891 1.1124880557536325
Ni 4.30163140833465 3.71093503319765 3.2082977614818615 1.210211316038735 -0.04560571365425694 -0.8389337351364067
Ni 5.29438800636294 4.345884228434002 13.496620711078592 -0.1985722106833806 -0.17814839561138998 -0.38920356925312966
Ni 8.531742354103 7.502871278496263 11.55756411996895 0.46627572894678404 0.034716063324946665 0.20535606637443343
Ni 8.817777593013558 2.983070763613238 0.8742649411597785 3.7910982961842707 0.3017120139983643 0.42697821689874205
Ni 1.9466020371994708 6.335564479595788 8.846879858399308 -2.713950310492829 -0.22652601558382923 1.3627769780850145
Ni 4.283452980023352 3.1676610502758185 9.56271653403129 2.3306697915923538 0.47636962284767637 -0.1707976116732736
Ni 8.486221705157321 2.283145340002653 11.565040581253903 0.7678756428473162 -1.5623349497204317 1.3154283135977218
Ni 5.38573693919495 8.40909855776277 8.092416353173547 -0.24478187647022356 0.0146858841469489 -0.20963875291018733
Ni 4.971315385051977 1.6260184622265161 13.46407945994718 0.5856286516865203 -1.45873877559432 0.6981838347781331
Ni 9.117926750110426 8.050927586404606 8.265436769386305 1.120988894135792 0.4362403589269584 0.5580540845023615
Ni 0.8608184975719745 8.451710658178639 3.1970961207337294 0.5233781303867309 0.720047981841076 0.04803592036230437
Ni 2.1602218755345564 2.6946024119902448 2.8293054980040635 0.020546713803100098 -1.626832100962553 -1.6297058229659223
Ni 8.899235596390035 4.7983965815923435 5.788844053111552 0.8314965621320711 -0.17262026670430916 -0.044387267866123556
Ni 8.075268035799889 8.006618832679681 2.010319758998306 0.7115440581351229 2.276598977889879 0.3511509853557824
Ni 5.392225239761445 5.781793619608046 3.983731715162118 0.7809862120873454 0.3110003812788256 0.9874931042367704
Ni 4.396289747346409 7.564155887582663 10.14915356358089 -0.7905957101526514 -1.4186347084845825 -0.850247360377013
Ni 2.662077008719413 7.35184116717762 1.7122914185377553 1.8327476393848825 -0.663077220882987 1.9843884756240469
Ni 4.1315372529664645 8.947804627929454 12.414576334320666 0.2121512349193959 -0.7691840772460946 1.5003651928858546
Ni -0.11048941950316825 0.7527090538369471 9.345762119384949 0.8577259281422454 0.6755344728097333 -0.9167085773240405
Ni 3.200708500718667 2.8968304352502496 0.41829216103264033 -0.9041353686447202 1.0565979294542318 2.3400661452055895
Ni 6.663130435494467 3.6360399085550985 6.049869503574134 0.4997252668544813 1.5844767759247937 -1.0290225909391246
Ni 1.3827351577957623 1.433681368422044 13.53603806924714 0.14509326492863397 -0.4760240665827995 0.03990043573936354
P 3.196093976608876 0.8063521974429512 6.372374398585528 1.3937068348946513 -1.562241361565361 -0.5327066068765084
P 4.944560467486116 1.3276218920642753 8.617400040532933 0.28514331100640566 -1.3586454724151438 1.7920293357299137
P 3.5237065438621995 4.877850296719114 10.629111614580921 -0.11221631169495513 -0.05560344829691714 -0.6015386380485576
P 9.076638412166457 6.181616497476407 13.286501385477298 0.4241859988655856 0.005085384942707371 -0.5791191327027768
P 2.49369815120214 4.627500710924275 1.6164416933012868 0.47733147254031344 0.39509396659563567 1.394433942868663
P 7.140514607491036 3.9898107680348347 11.408666012011738 -0.03386322840634813 -0.6413832808493212 1.0127981586604622
P 2.827631218145238 7.43641280904434 4.440836218980021 -0.6898064093477153 0.034605505889011366 -0.13099256386119376
P 0.9644541834882365 7.748755496516172 10.144842013276287 -1.8479243471253208 -0.04945002710101161 0.6249942979683365
