# total energy = -340875.74454989424 ev
CRYSTAL
PRIMVEC
9.18620676209661 0.00000000000000 0.00000000000000

0.00000000000000 9.18620676209661 0.00000000000000

0.00000000000000 0.00000000000000 13.44494215233499

PRIMCOORD
 96 1
Ni 5.685132086176507 0.12359398172341933 10.55821911058233 -0.2405531831008567 0.04899571317241239 0.3078332964047537
Ni 7.352961414624704 3.9705725238977116 5.606473353481151 0.12108481782917856 -0.8458091221000014 -1.4292500221065838
Ni 8.263066477785502 5.57645926010692 3.57105704257673 1.1093795920316376 -0.059383998385271926 -0.33041452413937933
Ni 4.335274118807998 6.680136072290401 6.906545754647907 -1.3459154264429851 0.3971894156720837 0.6005050545777206
Ni 5.638208942003772 0.46016833012969344 7.860020737203443 -1.1583611641366631 -1.0254986369462662 -1.6090230978055904
Ni 2.8535848981068903 6.406313620939407 12.659461941947399 -1.1472521987076951 -0.2643932229432479 0.18164638146231943
Ni 1.6044077569195039 1.0581040404056943 7.408404765575083 -1.1053200772502836 -0.8951596475086713 -0.8000398862846867
Ni 0.7706005713145953 7.024756619205074 2.352259605792956 0.027688209943887796 -0.897628677874454 0.743481530273668
Ni 7.45517633733614 9.069936949283575 5.362004507237745 0.7613100738146567 -0.4875978874633279 1.9059245777891882
Ni 8.122315417680834 4.276399719629639 7.927702871431295 -0.7465151748936691 -0.0011030032561916488 1.8313335326461753
Ni 1.1592258045116974 3.500091758049868 8.455900574404687 0.742448203913147 -0.022664017256419033 -1.099266671967352
Ni 4.658950114290831 6.433523165387261 0.7082813445981049 0.4183624502052731 -0.20241472435792238 1.0218520413326144
Ni 7.521078184692288 1.9579664830197812 4.157539390253952 -0.6246114607076211 0.3461692158704747 -0.9375787359048304
Ni 0.27056777829296774 9.019798632741917 9.640359970288365 1.2856973621921923 -0.680204881702209 -0.4424061214180381
Ni 1.2162813347499228 4.376685538919723 1.9945165625096946 -0.41765128307086136 -0.3076494625287218 -0.9989645952114796
Ni 4.723418913391116 3.372183015007354 5.6175656981539355 -0.5990294984734587 -0.7552204159771511 2.2645608157784225
Ni 0.07828485407988371 5.190868231005404 6.283950590922947 1.5060660999253739 1.5424886044184662 -0.40953636727321086
Ni 2.713026748344358 5.766779091933608 10.243674204627235 0.08507780360695025 0.8198888026898138 0.4303342778551686
Ni 5.3086813328095 2.7140004862618032 11.521871491616519 -0.6847727035785497 -0.3034966167026128 -0.9284142957967431
Ni 7.041778660346828 4.395241676591791 11.15042813955894 0.3470066241701056 -0.07285966427420355 1.7688220443755152
Ni 4.548926915826296 0.9042470191046208 3.5339227203363497 -0.7606351592348191 0.3479761871722265 0.4574910407756186
Ni 7.416686130976752 8.79990840132791 8.924375991315 -1.2779966511138248 0.42583176199912465 -0.7680368510155289
Ni 7.317814987528994 2.9185956834065077 13.25496514467114 -0.09971946477952504 -0.20701699901662413 -0.17310286276768252
Ni 8.51904931559236 6.912032675950644 8.252156020006732 0.8412374435689189 -1.2578248041516402 -1.3181369707781363
P 6.653275603699744 5.85798893893656 13.091380849023059 -0.187891848151399 -0.5693103741424712 0.7151523443116715
P 3.436238434803063 4.020857819747663 1.8538555272313566 1.2352582317050338 0.09432631878841174 -1.1918932344558377
P 6.346511414877445 7.551943839433946 7.003591598810795 0.3977748558619085 -0.2417826846325836 1.1534848098809685
P 6.710560789107179 5.088809473809029 9.247915112316983 -0.6007958463452621 0.17516077373797576 -1.0829779621096576
P 1.6910245005382813 1.5649438126426698 9.461259252787865 0.32646376702174745 -0.9322220995786074 0.10852497888629697
P 0.9418158489251441 6.278019057212623 4.525769407183962 -0.24066245498521133 0.43009619370243346 -0.7268824882644063
P 4.012875006065966 7.906191531041849 10.201444293492452 0.64285240919568 -0.8923725716818373 2.0500215402428243
P 4.7668237403715725 7.414215041356066 2.821354173039455 -0.03210305118213181 -0.36658686029487836 0.2860018023519591
Ni 2.487147110117385 3.313473967550826 10.305776636863994 0.10847792769844543 -0.1969128207030867 1.1213262228705527
Ni 0.10737022194983535 4.790432291766233 10.132256539975266 -0.12001061092839331 -1.0376838661585484 -0.8990654103209805
Ni 0.08116105541905429 8.582296349192452 4.046766597317118 1.339316690179545 0.39976026172305346 -0.4978753581299361
Ni 0.45545856191956 1.619298598091 5.243352704755698 0.13288823822200985 -1.828449783340477 -1.0618818035609907
Ni 6.540900736302511 1.7291197000066314 1.708542596845526 -0.2803368907566979 1.4061813132125782 2.030203991296265
Ni 5.289702629626087 3.3906013595778974 3.5832250920620874 1.4896385504969698 -0.094146855787754 -2.9205603038790215
Ni 2.8907890355187105 8.14366416221048 1.4537071162640354 -0.2680778708836867 -0.8189068983925187 -0.029287693220523756
Ni 6.324124628982974 2.7151946931416884 7.7033196662868875 0.24331994721271646 -0.0001928327370964421 -0.6286388366994592
Ni 0.6365067552549513 3.902805876567589 4.391615880780323 -0.5578334838511232 -0.11134059395822116 -0.23288229681916023
Ni 2.7798472163773402 5.9193252415288375 2.853648282933592 1.697302953289606 -0.425666440065854 0.4094083263357787
Ni 7.016571708974474 7.606381300743192 3.448318296703444 -1.1163711928581226 0.6711617976633344 -1.4877698727193474
Ni 9.1106226590606 6.074875280737317 11.99411233468118 -0.9308319040993002 0.5883298526677674 0.17070582329041567
Ni 7.481862267998199 6.843871021729482 10.355872696854517 0.9360430159865943 0.2889313172939282 1.9804477458087442
Ni 5.86055189062493 4.956932289442588 7.017237708965179 -0.44290800075512105 1.0396769853291772 1.6186125412662382
Ni 7.190016478967701 6.458188130560282 5.373378868458317 0.9143058814198189 0.03572136466100945 2.301550248518578
Ni 1.4423722557325676 4.453362806815146 12.575107761055666 -0.17282518362626365 -0.1040692571077885 -0.2356935410157102
Ni 2.2354542308713476 3.043721005798211 5.983792203387768 0.3416636146906374 0.44790056887370605 1.145910082857504
Ni 3.784625326492759 0.8345071745606567 6.099781843148347 -0.35596203359118045 1.1652892587150643 -1.3529620488771215
Ni 2.9361688969543622 1.7632923891848955 1.6007544024877307 0.2174541351895481 -0.06232071241609267 1.4720079818994003
Ni 7.462047619998867 1.8758785393378004 10.121540829779983 0.0829882680677732 0.06726340113334868 0.5607522001598149
Ni 2.695058527905464 5.466197220266408 5.4919498323208025 0.2617838103448588 -0.16556258852657937 -0.3261819741152705
Ni 5.153140479807789 6.387987138436548 11.68498545347806 -1.2412931250452042 -1.5843770171221359 -1.7957916309858235
Ni 2.9546699173858197 2.8156183055332975 12.91072123223397 3.0169293641290746 -1.3140057222185824 0.26123976491593076
Ni 7.98098562654976 7.369395538533283 1.040349858584503 0.41081703375784734 -0.13728482462780872 0.645309869597237
P 7.855299945545187 0.217384234207602 2.4877442135573284 0.5506374803233163 -0.49346694464959534 -0.5393547083206452
P 3.531986267949581 4.37324989758836 7.348897436750386 0.22768815421273045 0.337168040813129 0.38144346569173665
P 0.8336179497454804 6.045984660450856 0.5054572481183387 1.3785206140725161 1.1098717011767079 -0.26131741223140154
P 2.3894242425156715 0.6768672733123764 13.222011465131034 -0.7126257212350758 -1.8932894055236813 -0.35406893033352566
P 5.578893604900532 1.5361450544238906 13.246427484100634 -0.28337413492112484 -1.0944114007575798 0.4484672400104534
P 3.6291028459045838 4.3634574011732985 11.818978221263253 1.7408900938519372 2.7336436751566984 -0.653429670490894
P 5.22163283747261 1.9464653521458062 9.349760749516333 0.9814101312674839 0.5888098776279794 2.2062507671836196
P 7.666486651628509 3.6977146242573946 2.7416123865661115 -0.14851437479504098 -0.70276451217028 -0.19621013820910727
Ni 2.8923966217031714 7.853986317977313 4.244245240078381 -0.37301898907346726 0.802549797190734 0.004599960665856594
Ni 4.135042369878261 8.40548942752201 12.642305782186826 -1.3204789886477517 0.7703742408994538 -0.33017078355968943
Ni 5.188755403448683 8.35084986966386 5.270860800923524 -0.11154756776270468 -1.1655941915499926 -0.8093195118143998
Ni 0.9845960138453528 2.3149884090717268 0.16441013563655466 -3.34247678998414 -0.4429640508040371 1.032492808875912
Ni 0.6442764489396222 7.714750981989423 6.297650899697264 0.534047437175119 0.06403075312866392 -0.03553598812308074
Ni 3.220390134367129 8.779037339550216 8.480518689923189 -0.10335269065673812 0.29664128434367626 0.1950575126619028
Ni 2.9095288973261453 3.450835317357972 3.7715616218474874 -0.23025694338117117 -0.792270783862229 0.3062631237041564
Ni 0.19847259033359865 2.21711856216172 2.6339041122072 0.04950093494360507 -0.5428498659580974 -0.14792044996478396
Ni 5.580455260051152 6.9761983302275725 9.149296589555357 -0.9503650890362214 0.1863201327889049 -1.6818801909766325
Ni 6.3050816223521835 7.940309102979503 12.983982149832242 1.3725021757925782 2.080645435776268 -0.4508239131680881
Ni 2.168284686981168 8.29788220143755 11.087667056296892 -1.9701623047223362 -1.9322400757552658 -0.22597065730099147
Ni 6.318539415267817 5.407662710738477 2.302661438209277 -0.9659721994458589 0.3016932449452869 -0.5206018531931743
Ni 8.05377712898217 0.6761590167705366 0.1943654372874691 -0.3877259562663387 -0.6098404730460336 -0.30108440771669437
Ni 1.944361710795854 5.946828744593279 7.923265933562183 -0.3101184928945046 0.05110016110992489 -0.07902414121370262
Ni 4.610979742546505 4.268132133538124 9.62695545737199 0.7411891346950654 0.025539539032001176 -0.7428480104547271
Ni 5.084078577323329 5.866862814674787 4.66507180248126 -0.8243625221904511 -0.38681784262977253 -1.1313841213271871
Ni 4.8717577802864405 9.22919821602647 1.3699720857084894 1.2634457498828433 -0.3341300253177536 -0.7305203421273097
Ni 0.6837789752848834 1.2714536926006368 11.348324754728162 -0.3083845409225334 0.9017231596588018 1.5660774474819998
Ni 3.318967319198299 0.947051986783104 11.214762820040406 1.0372434361870202 2.3852771945245888 -1.232269067169723
Ni 0.24180668352193888 8.225687802445083 12.666775999776357 1.046624620291604 0.6961284949110011 0.15200336178490595
Ni 3.6577638110218373 2.041175143927501 7.952562584187806 -0.300321818519057 2.653077900487489 1.2908331407568607
Ni 0.8320618063189218 -0.02017934040803574 1.6344613509828394 -0.7206570761799848 1.8041232907799702 -0.7221143774518016
Ni 5.162289941749066 3.7469526925357535 0.3658746735146051 -0.9597059068211728 0.8694450163513864 0.6478688885736648
Ni 8.204339057915435 4.89732299372276 0.7069769032369992 0.21156322362640984 -0.7202374721440629 0.8461824462790201
P 2.8353870224987876 8.205331168246419 6.465632632525353 -0.8297669810354742 -1.1867291737563948 -0.4285309060978426
P 2.0418732956418957 0.7477443702542622 3.3544058676692425 0.16572456802574037 -0.08191843204236214 0.8288742940178757
P 8.75456528471933 0.24066851250334026 7.23636364797606 -0.3954814318420415 -0.6182605787889288 -0.03053313559185064
P 7.741152140241663 8.955136923299499 11.383495984582146 0.8441564169879269 0.7121732070786896 -0.09308267618929776
P 5.832276746191947 1.2790323131845258 5.335463718642626 -1.0260218564395878 1.5583836783821678 0.4740684855183254
P 0.0100800246869111 2.933256869408795 6.745461944482173 0.14735455015898494 0.48671111398300043 -0.826619436545428
P 8.894746800004361 3.2725953474316656 11.996720298782714 0.5066829291192372 -0.0811051921124474 -1.8033313910062942
P 0.841171767571095 6.843834276902409 9.895450827418017 -0.5088889356316203 0.09424172949440543 0.11753361014281048
