# total energy = -340898.11727473384 ev
CRYSTAL
PRIMVEC
9.02916580317189 0.00000000000000 0.00000000000000

0.00000000000000 9.02916580317189 0.00000000000000

0.00000000000000 0.00000000000000 13.21509683501423

PRIMCOORD
 96 1
Ni 6.388974673918379 1.976502500830394 11.426024057085261 0.05913871514368525 -0.12563515620402232 -0.5799169460137239
Ni 4.785169059031357 0.25322115528998473 6.089926889393784 -0.6613664088394674 -0.31784954299017515 -0.5706578893093011
Ni 2.9036714430980286 1.5006293347388777 4.780865758504657 -0.2803114368354011 0.20195372556110383 0.5183698785388621
Ni 3.318742205188705 4.154274141485962 4.650537873207877 0.282964558187532 0.699635222512679 0.16194273238580498
Ni 5.141902379445552 4.580206990302657 2.5564873686700667 -0.700972967487496 -0.16356509848057638 0.6799513709305065
Ni 7.232867617953203 6.249492117190583 2.628535598952915 0.47502210768084635 -0.8310754154342526 -0.7880950552179846
Ni 4.95419504698736 4.594707830936063 11.420063904593288 0.5316655672065037 -0.019130293071547698 -0.2441506706441279
Ni 5.601423725868888 7.700280455480895 12.440414743137886 0.2154802992926289 0.4849810186657712 0.14015083332169412
Ni 1.70732500334405 6.634477698091654 0.36169033256098126 0.6117816559328044 0.20501076721987274 -0.0754240825672701
Ni 2.6762267509713347 1.6134397350338723 0.39536641307804876 0.8498326414370978 0.02786587317233265 0.00979024661754443
Ni 0.6397371798320038 0.3553012946829007 4.681606330577417 -0.24004924688124465 -1.0641325472683802 0.39917173620943514
Ni 8.735934827518369 2.476510627702166 1.2543705693694525 -0.2745053716765853 -0.49600153814599085 0.9862661738082047
Ni 6.936954759871895 0.62479481298006 4.832285053174092 -0.5589951082593921 -0.26932794124070386 -0.7314996753214434
Ni 0.9948967166083389 7.596724950359774 2.7977809956432838 0.23200066554515525 -0.1615133581578702 -0.6764757536770801
Ni 7.530721746729518 4.008507285205956 3.7696596593084477 0.6772077467470982 -0.4817810236712348 0.043978719573795226
Ni 7.525358422111684 3.735826471302575 12.524832930872641 1.271154945601643 0.4053544679813793 0.2860095156614429
Ni 7.972925152720183 8.841774711643383 6.954576983199551 0.1705009063684612 -0.5809284179973737 -0.15503649218427493
Ni 6.770493055066507 0.9115936308774584 0.39878395241786435 0.7656022734321072 -0.6421103888233328 -0.07012246784869859
Ni 1.7656624450205314 6.413217984690914 9.107382076884118 0.17286220751178616 0.03234524909992494 -0.08527654988131765
Ni 8.995866458996863 4.9692015209180695 1.267706647585853 -0.0926242484956405 -0.1001167002179437 0.45040122380837266
Ni 6.4147439137488504 1.858319746751541 7.056214693457326 0.14652459805852183 0.12200218743712538 0.16877749591945124
Ni 3.3691700974287837 4.455748965837617 0.4699726060952957 0.183674981856574 -0.3465625946541515 -0.08633764415598034
Ni 6.0296409536894755 5.714288301160024 4.862046087303462 -0.051642920987272356 -0.6632721105026125 -0.44374232373095834
Ni 5.2347312353310045 2.9450701693148167 9.422337446108546 0.47850029603743405 -1.0981577551738892 -0.4645122092884581
P 0.13614989154859902 5.620863520317034 12.336227196395134 0.49746680983760766 -0.6196623442324618 -0.1061212545408108
P 4.001897935676907 6.158080840370787 12.593921400533056 -0.864021274232654 0.7448740397458203 -0.48938866081516363
P 2.5138733167065435 8.558457540164566 1.438027417949596 0.44270256961253435 -0.19026600481053038 0.47490563670764024
P 6.389110111408728 7.624706335865952 5.916530785082508 -0.3378388416279085 0.8852974100026108 -0.37962261043291395
P 4.721703051053647 1.2449323821253067 12.642659032893574 -0.39914036875086745 -2.079465042314922 -0.5872499893400273
P 3.9211139872665246 6.122966413706209 8.189580894365648 -0.0424262874850108 -0.22579247985191436 0.2639023993497584
P 4.812879569556836 0.9054989438117371 3.775447354729377 0.4728027314320244 0.6844837115832212 0.6611468366294937
P 0.18513763180796305 5.604954129783995 3.61173864264449 0.1640456376614207 -0.07965997502548862 -0.42814446929270134
Ni 1.558488230616125 1.325960118018318 2.6156112507071767 -0.5414740686564933 -0.8857620083438551 -0.26383889310167463
Ni 1.8347897400948454 6.539192909047867 4.832060226940113 0.4208183679449333 -0.8490955061607571 -0.09668453460794317
Ni 5.96670766650714 5.518048406809822 9.249009060542447 -0.3592211639584265 1.0611963474581918 0.040524956697239885
Ni 8.604136091076393 2.218998812717914 10.223661484009964 0.19849867713296782 0.09194984813643518 0.1652003200911542
Ni 2.4229496148520053 5.030527616548261 6.953440211197219 -0.6983463284979264 0.0902043262002382 0.07040966007181422
Ni 0.6578551043743391 -0.06323757007732149 9.145270263351051 -0.20069774166681564 -0.13669681333482264 0.04948293722147607
Ni 1.4826161485224125 0.9848833714885095 11.39369964272188 -0.07104369411138732 1.010856204442743 0.025508942904381875
Ni 4.26004179228279 6.844053670658256 1.5676808245444371 -0.26683474250520495 0.5727150289486459 0.054241792062700134
Ni 5.407576560514859 7.83781271234766 8.04274769357829 0.6529637865980689 0.032769738231853245 0.5978200515463898
Ni 5.173143293886138 2.7579948784782555 5.063456985035201 0.022362683965916324 -0.4812472626549519 -0.9145010281497604
Ni 0.9226543592559896 7.393984056472803 6.943357341499009 -0.8164800341185809 -0.07219709098954018 -0.09109521344562375
Ni 5.104982119576316 4.36252282664714 7.347607551027375 0.21992702221007288 0.500326647883906 -0.8970812900114162
Ni 8.07709464113089 7.152020465380657 8.944810136801564 0.27174323555041585 0.17966071849085832 0.4734321374859072
Ni 4.624648545469294 0.36470968567916967 10.51895313546887 -0.15436929091392124 -0.29589874975069685 -0.204091597839713
Ni 8.270815398160591 7.318897511823117 4.62171587234493 -0.23846159067915063 0.11563073669314279 0.9937097745704435
Ni 7.107894931024835 5.951818571734733 7.0626497800821255 0.3657018865867637 -0.37964009393441067 -0.19982099548881715
Ni 2.20710740106524 5.39888147363443 2.5230135414719204 0.37682010798711235 -0.42096826325923625 0.3219327119206133
Ni 2.1073351165078766 5.230442381469941 11.148216482713856 0.4478879704682157 -0.11640746695816727 1.5619415709367552
Ni 1.1682928209196146 3.4361394218235315 3.837558084886992 -0.9153271235954817 0.06200986604389321 -0.5688298349616269
Ni 3.667809763649126 2.518387899718189 2.600044065566421 0.6125488731161322 0.8404321740588042 0.0993908777955127
Ni 1.095237838625169 3.1780136235496954 8.336995573444904 -0.3138504491331111 0.6255206027854517 -1.1417893758209112
Ni 3.6218513085905757 2.6747188802454454 7.034885094560506 -0.6838658754935643 -0.4778251243472803 -0.4963218975998872
Ni 4.09667709142339 6.726114704062033 6.041677734915125 0.03709201975629096 0.6121405819341199 -0.2537930788298984
Ni 0.7254925870548102 7.458641914365589 11.252324572795603 0.5201303128733946 -0.4934052381737245 -0.011615215641425158
P 0.14766117531169243 5.5247751354971735 7.866392731561182 0.27363608169775455 -0.4566014390818136 0.6879747554556152
P 8.52850779646531 1.532032774167883 8.098383608780603 -0.9087944646832865 0.6420180862198428 -0.05106236589345399
P 1.8145192623725577 3.0424136082119144 10.396634120434747 -1.1589370912447912 0.7707359951142468 0.42390343462816027
P 4.085580246380766 6.077974079412152 3.818145377936917 -0.7164528082906501 0.19536990169599902 -0.3785977687128254
P 6.978389602752776 3.9365358028343054 10.340667737755982 -0.7096779514606616 -0.5895418706979976 0.24881542310964888
P 6.439890141123715 7.68221309426829 10.294203649400128 -1.350152090232152 0.5136722159528766 -0.6682366535967394
P 2.4468769048137258 8.468608309066799 5.683139484212875 -0.0805842866119709 0.588884953840289 1.134115147105105
P 6.951491717169393 3.9401745567416917 1.577393498435691 0.7015344964179209 0.4537822244654636 -0.22598608391995922
Ni 5.342927731788097 2.969006488442561 0.3764819123403362 -0.5351077601188332 0.9304518950520619 0.613526406538053
Ni 1.3042810903963968 1.0918519013664352 6.968889114263069 0.6648304561286679 0.13110492106934196 -0.4956881206706302
Ni 6.777535804564673 0.6660274025420195 9.308542866717014 0.05152516446248546 -0.30566559932947357 -0.5174766773006314
Ni 2.8369639645179565 1.5956432488019663 9.072890662675146 -0.7617373911600623 -0.8123305307265816 1.0942093120491028
Ni 6.304272067453888 2.0616385072640027 2.555046313772749 0.8109866151041775 0.014832437027142197 0.6249863275485364
Ni 4.032515837661887 6.834121588032636 10.350540227885848 0.2159898919391958 0.27055667144148243 0.2151511980879843
Ni 8.040029914605281 7.260478807652426 0.26943211996820093 0.6114363567782438 -0.28036414445020746 -0.15318452657720072
Ni 7.604435858143663 3.6936331784757375 8.122328957074371 0.3609090931838107 0.11848568964343463 -0.024368915762667708
Ni 3.1626188954799845 8.45489300587742 12.417896003075798 0.563847808366003 -0.6042632360685722 0.4378002472149105
Ni -0.006375494129045605 4.639465406913515 10.016752727086644 0.3681092104766758 1.0440257492161762 0.31827428923241957
Ni 8.479705154109425 2.315511568340869 5.5719209258877855 0.3536863501831264 0.7003577025010003 0.920926214949814
Ni 3.5701864206053058 2.7297877638214953 11.533330277772459 0.06414465299870888 -0.00240063902169264 -0.10166090477661202
Ni 1.1354537440929062 3.426035785043469 12.669392587655334 -0.08450547604324801 0.12201787116640922 -0.8695008092899863
Ni 2.912899250773832 8.297433379597253 7.95145831049981 0.907498114469366 0.24335851376013576 0.10493906130725154
Ni 5.733773241438285 7.833234925173851 3.57333579371423 -0.5341058012168801 0.4340374377383686 0.41752684167785514
Ni 3.257632809543073 8.287591588631866 3.6599868942065465 0.3038912810378702 -0.3448651523470706 -0.6497452796607713
Ni 3.3146610221461774 4.194580338613932 9.269505267415315 0.00498151237499142 0.8871437191827302 -0.4637629898272594
Ni 7.219468335574639 5.955195479827443 11.326540705840644 0.5559871746710038 0.10114359882056129 0.6117939972279786
Ni 0.7464619222273007 0.10651165407714712 0.42591027590163677 -1.3742399844192914 -0.46010251025653665 -0.30001945678728975
Ni 4.701775681640243 0.4153678216528425 1.6167480214648062 -1.0497114867470438 -0.8740501192235657 -0.5467515150053487
Ni 5.972423128599883 5.438040966677442 0.3631973003702685 0.22150747932331527 0.8617072813874966 -0.18149494348611966
Ni 7.89938259546048 8.762895917263915 11.541787897586476 -0.40608286150697165 0.8736783377064437 -0.1809403565342303
Ni 0.04660494334581758 4.785467021510127 5.7851464873610015 -0.12913571315811306 0.0037928913835289517 -0.038002961606334554
Ni 8.125816020992566 8.810308068052215 2.44818884263691 -0.7003188788432648 0.8718004039574405 -0.0613578342821911
P 8.447886373043346 1.7086252032514038 3.4527476698067723 -0.16761972816592421 0.3634562850856966 -0.1406902507649319
P 1.8638004505276786 3.3304259460228436 1.5786494554295307 -0.5178201766829792 0.1495567000166263 0.462038808047301
P 4.647483306342197 1.0741276484627154 8.171343784831805 1.4897737905232535 -0.7370085209548146 0.26384172131515204
P 8.631629901617314 1.63513682098784 12.402830839565938 -0.9880245512602079 -0.014291734032323774 0.4343256584027488
P 6.390979148775549 7.9543882748743675 1.4222751349053628 -0.5881246786354968 -0.4694034759424884 -0.14521539232879507
P 1.7115506530429498 3.1448133800820552 5.971439852419946 0.050765917698957726 -0.46218973180286854 0.010367202166936984
P 6.7687052801938945 3.8574222501382316 5.9453139605315535 0.8955180592893545 0.5421068171444857 0.3492206011022889
P 2.479878506628854 8.4748113461248 10.28067163828102 0.20701211392061766 -0.5390675160975297 -0.7771143878367648
