# total energy = -340866.40446959744 ev
CRYSTAL
PRIMVEC
9.27198506914459 0.00000000000000 0.00000000000000

0.00000000000000 9.27198506914459 0.00000000000000

0.00000000000000 0.00000000000000 13.57048737530515

PRIMCOORD
 96 1
Ni 7.752974079447693 0.02703339890122809 5.419306369154828 -0.6999746081299687 -0.5531183377636409 -0.3520873811271227
Ni 6.543146957952961 8.806939136348639 12.458236553883566 -1.964839606957842 -0.11156145171977559 -0.6515203692833231
Ni 5.452112505796454 3.324562872144445 9.43155659200786 0.07329366648782862 -0.49102799619079945 1.5714628801636292
Ni 3.9090317063939355 3.043213765182288 5.132792766655565 -0.1914775086201283 1.0094750078245003 -2.033640784891956
Ni 3.090120736317324 1.5755049302701254 2.247435469998898 -1.0624399900573056 -0.09500277603014605 -0.8622217591300698
Ni 5.23371090368422 5.250724995803768 3.9839697419953572 -1.0046472474185535 0.6581923819868599 0.2846308901463614
Ni 2.956122011896777 4.127739284004776 9.394156186894715 -0.24724345063683872 -0.2118002793378804 -0.9380165947731974
Ni 4.466454160963469 0.8105263142162799 10.76290234637387 1.8310352846794662 -1.8970424448082102 -0.5242479345861939
Ni 3.419999411755619 7.756237818099509 0.7432079957286696 -0.7727972485186496 0.5447203435079329 0.4622861481714168
Ni 6.983510604343043 5.235611660569511 9.832618149201027 0.7771015323209585 -0.1908239341965294 -0.1930296835985966
Ni 2.061876165269035 7.8402420004445235 10.589146278302417 -2.0521786957951433 -0.6768411074362989 -1.558166163054723
Ni 7.9540556139417715 2.8587661714307 8.937115948632032 -0.7326641279431898 0.6381861140682622 0.3239993646416549
Ni 5.021540075361816 7.6386226908316806 3.5178364682331433 -0.5768887007103614 0.36616519937642744 0.1528086312950207
Ni 3.7131702993458 8.514593455406219 8.921834790472781 0.7073230780752399 1.3647862952055592 1.988379341950995
Ni 2.4556759039619145 6.149551202925819 5.209383997147949 0.5796696058896081 0.9031025565048317 0.7150284171392977
Ni 2.2761980940664994 5.268137783269986 11.482938724873133 1.0495852455818246 -0.37015889391685286 -1.2125913862351374
Ni 6.554060084069967 5.327051974729173 1.9798255901227058 -0.33509804565797774 0.29748409195994574 -0.33835229092921726
Ni 1.3059868759207984 3.300678239283434 1.5338996800473272 1.053075003902638 -2.348151493316885 0.12310956156869121
Ni 2.22672278314012 0.8291092261650523 11.385584738804015 -0.6654961147371248 -0.9960823885676782 -1.2390950889526209
Ni 4.422755296571409 0.5991686389613873 13.253127520120993 -0.6673431952481926 0.8650474015043231 -0.0618165190861645
Ni 0.35937193190863265 3.9596660154211016 13.108520717883565 -1.1107942129909774 -1.8798263380402398 -0.7421011049863735
Ni 4.133117035192426 4.778855145041901 13.130260740658882 0.1902076407687692 0.3279331524784223 0.0005826119763473837
Ni 3.9719699392590524 7.733632719141766 6.846798897168174 -0.5828881128269059 -0.6602808890847726 -1.7499372916558702
Ni 6.858051377929091 0.9805031212806863 3.2562654320612903 0.970339218165303 0.6164739192021512 0.0932657387343813
P 1.3164364027974906 0.06428267066202989 2.2274191091990723 -0.7451136665604522 1.1747612027612413 -1.5992567624474459
P 4.317731524670528 6.05967785419842 2.0537715233498544 1.3813421426817114 -0.3735977443950727 -0.8262697665154931
P 7.672354171556975 2.3992373324460083 5.055942847787086 0.8990283864354581 -0.8276748743931359 -0.3515597907584268
P 4.118003699958169 5.048280479543165 6.056182315926448 0.6146345520005673 1.9776874094547874 -0.12136403963249422
P 6.205414911383735 1.9072380026696791 7.908730443414688 0.6317388157810216 -0.8140349150121982 0.2508872180370131
P 9.206904744937704 6.022469379170765 3.318771590434434 -1.5441675347827857 1.3260305145936002 1.8117867208624991
P 4.022882407830408 2.7734639112128034 0.4267996598169571 -0.7280340853703462 -1.7333418491910342 0.21428705031547612
P 7.453516786158845 5.093193973944849 7.504573897693179 0.558658807965896 0.5622892056296317 0.4225734029628271
Ni 4.989950423126775 0.26430349009426785 2.0376354881914627 0.48152185647257717 -1.2777642233880444 -0.8054466591225549
Ni 4.562660275313566 5.657255169635689 10.413354082367503 0.7853133787077895 0.33094597116281715 0.44683818904746275
Ni 3.7635820807376157 7.644269329578712 11.890610280034707 2.222081563568289 0.15239545501700205 1.2952556953045886
Ni 7.391311040093425 7.330264292128792 3.5537032870593266 0.2116796945996161 0.5596592242059523 -1.714416730151757
Ni 0.6558538452731407 7.455760606481968 1.0833043984234996 0.969449616471498 1.8791419103787057 0.832052177525225
Ni 3.673430572466028 2.821854399916847 11.431683192863945 0.6324844356977946 2.5834416282465895 2.2669807380738245
Ni 7.15905709268059 4.161331684957976 13.054496571211217 0.06490878485824304 0.22535616364544417 1.8664270339151985
Ni 8.039079714615479 3.7340508091295725 3.3034774514964536 0.6699546647291107 0.7078205865369488 0.6346673022817263
Ni 5.708927940961159 1.5990928596173353 5.5751628705577305 1.1502781300182126 -0.5091745851928392 2.0133318981312747
Ni 6.990177161418768 0.4427215121263236 10.139433689632149 0.19042926986127204 0.949562390629268 -1.073274104558332
Ni 7.854836104529628 6.4688783596545525 0.34667673031185614 -0.0783854791884392 0.9621919064678204 1.3574722780426494
Ni 5.4586214391304715 6.759601443255872 13.685700844876829 0.3700827892632787 0.060918432751927355 0.3096857762324602
Ni 8.46031525635018 9.130420142270593 -0.033879832482194894 0.9379667153718686 -0.024992665389595665 1.292496901612529
Ni 0.6043257169106475 6.384299314251547 12.471291508490825 -1.0825542443086775 0.4105496390290736 -0.005948761384267175
Ni 2.407980814118343 6.527514391569549 2.7229862987288636 -0.5180731732340497 0.9594521389391542 -0.3516011855193235
Ni 1.6816877002717938 0.009785652764561711 7.587707440664883 -0.44019471558901613 -1.269843168768755 0.6579794946451055
Ni 5.3845290085433835 6.027615330738259 7.990668827544861 0.08218454121955523 -0.636066239511782 -0.42727106554881256
Ni 1.752877999614512 1.2790332160889046 -0.13399594282510563 -0.6219495976047418 0.5213999236144374 2.5446159136286437
Ni 8.611736040221752 1.9487486786474533 1.1835799869050785 2.1063713797874626 0.6653840146392928 0.4384088273331869
Ni 6.569572114650895 1.5203273486878754 0.5994440169101343 -2.465747067045882 -1.5102541698647924 -1.7337318855406012
Ni 7.390050050159769 7.662164260254858 9.360338476710721 -2.2501140442254735 -2.5903712654868873 -0.458953484253758
Ni 2.601691120691418 8.787746127799613 3.758223800718059 2.770409164811506 0.24350069576495484 0.0772937887861572
Ni 4.134526376882983 1.0555227503484037 7.617711583498048 0.028559556805247587 1.1313846355478192 1.599755299350419
Ni 5.370778655075651 3.110036959681242 3.0827263284343056 0.2811437029287093 -0.7164592360485532 0.3541059542190482
P 1.7641990930629958 2.8317105197659362 4.82054940631884 0.17480981815646024 0.10585385981203704 0.47836737000399543
P 4.546128326403945 1.2485376580610066 3.9031300880647293 -1.440003403968346 -1.4124506911610577 -0.7299223035319945
P 0.8767078873666385 4.4168119543105755 8.564456335297502 -0.048284031817368456 0.3012083348890684 -0.3095705908108346
P 6.851820604139263 3.2452039541873825 1.6384867414638324 0.9232260667275842 0.7979259252654775 -1.0295306409237948
P 5.432530073885562 8.066024102462567 10.409241957105914 0.5587853062414312 -0.1440329419849197 0.5794919426611632
P 1.9643719730460572 5.109549755143149 0.04512489565526714 1.7574927354056247 0.2473486087561353 0.7240272782037983
P 8.70891571297651 1.45378231373311 11.84965406874835 0.18156847703653248 -0.1441913219396549 0.01881816114776759
P 1.998576324996472 8.198910188706359 5.759220113748974 -0.8136104258802698 0.085633161889788 0.1866618323990398
Ni 8.7878759355869 3.349077999972284 6.722520921618544 -0.4045651393108645 -1.0801142674086173 0.2699151812027416
Ni 9.525017271656813 1.3971397585514658 9.77171418980241 -0.40880900218888305 -2.9263949082829277 0.18462783268814656
Ni 8.515826629385456 0.5903315102425093 7.643535915580535 -1.1078855239846146 1.6524148345276641 0.24858890892113963
Ni 6.153797771967101 4.354671112138799 5.93771231165948 1.7225915526530657 -0.5644437900787892 -0.4470919569294816
Ni 0.1448562186287167 5.370333599804949 6.057091897635945 0.3498435793982685 1.172769112031877 -0.7351573266786888
Ni 3.22177364858188 3.8749386182611953 2.6427845573529085 1.9767548703381892 1.1821004167351319 -0.7622690952938164
Ni 7.385840569057712 6.506123922621432 5.4570591096906105 -0.7417226386010323 -1.3244482577081447 2.201372613155712
Ni 0.11606114261429293 6.387108725647853 9.866300488406848 0.5488557058325451 -1.5782436505308886 0.05547155070474318
Ni 6.585009969353373 2.0250571136032454 11.591353261617675 -0.6130001017209379 1.6218467319328198 1.3123224209788882
Ni 9.093999785951473 8.527277530621227 11.30798842515863 0.5925089237461215 1.1982955384377556 -0.8316850239937934
Ni 0.3574897189929551 5.211309788392216 1.5283355619650707 -1.199819688391766 0.21559419916267386 -0.6686135773201839
Ni 7.663870305459216 6.851357004898948 11.767824166840409 -1.4190239735032013 -1.4774402086585652 -1.4121583567316196
Ni 1.108150536108923 3.0956004793378438 10.902393794593664 -0.020499919725564697 1.150380974144664 0.5629651486507337
Ni 2.9970392808469484 0.9683939091236675 5.751552182314169 -0.3617902102371834 -0.25883552634981233 -1.388443529613183
Ni 6.011806596643528 8.791436377752518 7.657717416341761 0.5300735401290354 0.498992759563831 -0.1967238446207322
Ni 4.571895172180633 3.368354456384567 7.310611393133373 -0.024938415112892534 -0.3703656106110202 1.61226140223723
Ni 0.5704458844284526 1.2393491211179701 5.663914309123569 -0.3238474124448229 -0.33692841399849716 0.7170631881811392
Ni 1.37519297051497 2.2922664437358056 7.922517884821646 0.7000941644269685 -0.09871596321567515 0.8847847320322505
Ni 2.3267489552304093 3.9791649994687357 6.723036443973775 -1.3101889195756533 1.437946007218685 -0.5820339923567267
Ni 0.3907798532414698 1.9227500332506076 3.3853611309162694 0.06980827904238945 -0.6116975808594304 -0.5680225085689831
Ni 8.741738539190786 7.579226356162566 7.024668017699698 0.22474706930653554 -0.19871105025409003 -0.02233105939703251
Ni 1.5130581125997418 4.710409353201845 3.70251771600185 -2.0838968528340307 -2.2474817488089487 1.4962809955141523
Ni 1.7497069808107597 6.567337566312578 7.697478468786588 -1.6178643502463042 -0.19124919465940612 -1.0644174254986507
Ni 0.43250749366371116 8.109528255173693 3.8460387688184605 -1.0628637078582857 -0.20585486038772288 0.9955817947821758
P 5.735770336975378 4.219392853814983 11.5837270541145 -1.114688405839061 -0.9258347079950248 -1.2458216090431768
P -0.04107767428732021 8.370451179607587 8.97908929665164 2.8862389048893324 1.3491730141483345 0.5432658704495935
P 1.6159307840255632 8.295366646646224 12.83905087785523 1.031102870506921 0.7736464838928224 -0.33777173583539893
P 5.800006647713376 8.075620606737079 5.575013591602349 0.572233461326537 -0.16593102760959166 -0.09528122650251333
P 7.213140580055698 8.473954346000237 1.8166405119289089 -0.6671747879911284 0.9040178692302496 -1.8742264753549596
P 8.510207806592842 4.447826743487626 11.379287206723582 0.15754948841411576 1.2273955411275055 -1.6334411216386384
P 3.1981393593106384 6.561116064507556 9.082007400803013 0.660387846976282 -1.5840743982800527 1.0224799047246003
P 2.9923569285197704 1.9254852687684638 9.693330684646972 -0.9649435010710284 -0.2852502688979152 -2.6363706150351374
