# total energy = -340872.3869551986 ev
CRYSTAL
PRIMVEC
9.27514920735768 0.00000000000000 0.00000000000000
0.00000000000000 9.27514920735768 0.00000000000000
0.00000000000000 0.00000000000000 13.57511841141830
PRIMCOORD
 96 1
Ni 6.5990553885547305 0.6674341775309185 10.411980218595787 1.074151364956963 -0.5584016976497674 -0.29074188814010576
Ni 7.721886410819201 5.480212680483239 5.9198380613708785 -3.133933069910345 -0.8694002791563801 0.143041781716244
Ni 2.0779302448409345 8.650161901660555 2.975421515202058 -0.5601827008095901 -0.6234650058080037 0.6872250217737842
Ni 2.3625474758311005 5.853936270663998 2.2032551344784244 0.942670548605441 -0.18967182286995724 0.5070531679744622
Ni 2.6855174491188722 7.890267470957228 0.8507992413404762 0.945013852026637 -0.6785727454154249 0.1763141706161286
Ni 7.761240869239694 6.556148547957699 8.21925887116147 -0.32436009041518327 -0.6303704746785853 -0.7081260335925095
Ni 8.68654831230953 8.700192056909234 3.61323457597321 0.9092811745117179 -0.4803504618722953 -1.2296509128205855
Ni 5.057330799086686 5.76941183522069 9.856350545588155 0.8618078115211029 -1.9859306233001859 -0.23088943475884754
Ni 0.9965127641384496 4.005269165874388 12.315212099119998 1.6750788517840831 0.7179797864581378 -2.4986996107125035
Ni 4.931643251112113 4.4011510876993984 6.104364373871043 0.16578807427382414 -0.03595353527647356 -0.7004258367347743
Ni 7.826955301930998 7.233336472477775 13.387727291537782 -0.07220531851965628 0.3232871690659787 -0.5132922069056386
Ni 0.3180968098529083 4.154654720274689 5.432151639427978 0.4788854472909945 -1.2073054552458498 0.2770193963476906
Ni 0.29274040673484414 2.8295976181275813 0.43373844363581554 0.6118328208857141 -1.3146857790047421 1.2641458612736616
Ni 2.8225392295209364 8.475900396875206 12.079588061688337 0.24528015626288083 0.36298294499370387 -0.8422535435382592
Ni 5.316895851855369 8.868257761971536 0.6114030006941983 0.20765694659346817 -0.21439349398635335 -2.8734810910030317
Ni 5.199657964880341 8.936281706835054 8.008396699778638 0.2216224076346248 -0.14926513691813648 1.2676191645342427
Ni -0.03753281910072367 2.3938511046713473 7.446889364668473 0.8999226161149533 -1.708878059721715 -0.3688581728275583
Ni 8.194752071718003 4.794139162947178 10.1397313991785 1.011853535359006 1.71667390161705 -0.5901460799408997
Ni 0.20443634795749038 8.657155364222199 11.516859189417204 0.3375174537327477 0.02903161134565968 0.3417849707598501
Ni 6.592368005919526 6.970358164771843 4.374541611912796 3.108808764038891 1.5339134611549454 1.1839354130613415
Ni 1.8691651847116681 0.9790012822864834 10.500639515590793 0.188931602269823 1.5944552272937442 1.8438548050416372
Ni 5.8002888071937795 4.1889727726328845 0.6810909073396235 -0.029658960517013434 -0.5650369435780979 -0.44541791166116834
Ni 4.106544520928211 3.58898191562018 12.016939065836057 1.64514889699387 0.8542335987182709 -0.1192757896448978
Ni 2.7248348069422224 3.2652699303895276 5.8170740448566525 -0.9453925755222943 0.31514011447881213 0.5154159381168607
P 7.990309231156012 8.368243739112614 5.632778683573709 -0.09881315091517176 0.02985873523264535 0.23711561817421747
P 5.66395338783888 6.112230627980499 7.318807900663184 -0.5393408243635743 2.2549662301114517 -0.6356546058956601
P 1.4548813667032354 0.08950148055017622 0.045182962231815664 0.12837852327711438 0.9909347829284677 -0.5851303718938633
P 3.8009376271038295 0.36581745292937323 9.835906261531957 1.9610361740513518 0.7786279962678139 0.6471878033462403
P 7.356371327756551 8.672783990769107 8.572497366629172 0.4012134492298122 0.3758775415681849 0.9444124709972123
P 1.6761400529207424 1.1072394963147059 6.621236908072198 -0.2825709222935392 -0.2980080827842158 0.022226158388052045
P 2.44215608215283 3.39554867726067 10.675880476140744 0.4948612538939607 -1.8252644436339598 0.048337767873439325
P 7.575264850906128 2.6572375189458617 1.0337478509470925 -1.6817765755192327 -1.101771954887709 -0.7586412687332418
Ni 8.281734421722103 4.5030386026060985 1.7842317151848464 -0.33845822037946227 0.7292880123821053 -0.26616522724200614
Ni 8.026556514565696 4.815193751826396 12.75037613320107 0.05875947742739558 -0.29361689569505567 0.19526474357670243
Ni 2.6372402970852473 2.2683397845332083 8.237015216954587 0.010625340924330087 0.17073719074898336 0.12364306547465803
Ni 3.76073913009831 6.865103770674326 8.217100543922617 -0.04063217169906551 1.1610088861721553 -0.8254351864293398
Ni 7.042713604351922 7.1614911661084255 10.476964697038278 1.4292675056080804 0.2611844861979631 -0.33741229561345115
Ni 4.055225119928779 0.6443585336222816 2.230908064559702 -1.2129315431833756 -0.6452831301243597 0.1413566807043372
Ni 2.172379090020262 5.366564276281894 10.124174191281094 0.2950921946890015 1.3770558566015318 -0.1249278457243526
Ni 1.450735374972394 4.48286515290905 7.729115462172708 -0.5837152367138915 1.5039976474321195 -0.9696131386325558
Ni 0.2642425105536121 8.597887160284666 7.316622675491402 -0.9947441293722286 0.8072042652436098 0.3765378008600031
Ni 6.732636088571689 6.186941955479222 1.8372429034140452 -0.5701426402357794 0.5025889615555216 0.34755118381966593
Ni 4.803182433501026 2.394287036687789 9.575305174588028 0.22266164753241652 0.3152892384621667 0.3168864077459575
Ni 2.0264624414529258 1.4750269909524254 1.7957848411354866 -1.7801433829256053 0.6503487175727252 -0.6286468071192592
Ni 3.0384739800482796 3.566248524720196 0.9732979929905227 -0.7381616607226513 0.7625490884280803 0.005624545275629023
Ni 0.9210900326894913 3.9726299155369578 2.9765076351834483 1.4579047097287987 -0.8133761983822765 -0.016626552813087496
Ni 3.084181915729683 5.711989385991069 5.522765210377546 -1.0774724589103961 0.5435175814490834 -0.009529793867306168
Ni 2.2064559884970225 9.135539738946171 8.659744985902849 -0.5988688045258783 -2.1174824020989598 -2.871371243748881
Ni 0.23890465773411995 6.65550394710932 5.933792523471665 2.6694396296749643 1.2092726062745496 0.5076864306830869
Ni 4.460595519473366 2.3325145424430356 4.69377370003831 1.2680498243137581 -0.8517792236405073 1.1505372972168701
Ni 6.190160432281463 4.304077375272133 8.167130677144298 0.6690871745224929 0.10633388477224912 0.6036705967898959
Ni 6.648742363279827 0.37287120396137546 4.350825055188497 -0.7744782357654985 0.6063728262124074 1.8607266410963115
Ni 5.7024823579729205 8.183102484214787 2.679931954218844 -0.7224481066421364 -0.2178421146565861 0.6913069051526417
Ni 6.209601145184917 1.183611075535622 2.2752033950048474 1.6692974692156155 -0.3846252058538279 -2.209028329928757
Ni 3.673293022629911 5.73980555869978 13.346839650940312 -0.9392550951659889 -0.16627581254352009 1.2438120348123158
Ni 8.972677392633313 5.840181224272862 3.786616796606247 -0.8778414679451979 0.562631933681031 -0.8407126814137005
P 3.884608748812827 6.556278400047702 11.42313658842697 -2.04066426739764 -0.9471427254441817 0.7989970468424691
P 4.501563853869624 6.621037492362548 1.6002619116418415 0.3166277547679321 -0.004273173454057156 -0.2920071280057745
P 1.6102679426915771 6.886093433508542 4.111278557123786 -0.09995189250530528 -0.07793810723837546 0.33597607738755686
P 6.5078899462226465 8.526505611379617 12.185203259093079 -0.7068191418556278 0.9544528859523498 -0.12889582923316512
P 0.359088332122381 1.8966474520460832 3.2076378627860445 0.5648883338153755 -1.1368119772109777 0.6923805978327947
P 8.419321986230612 4.2564680339871 7.503348125887277 0.11243408413271604 0.7736197444199451 0.959094241379103
P 5.3422541100032905 2.4080420830789255 7.382448409974137 -0.22324348817781553 -0.7424106658069923 -0.6635739580137474
P 7.7010266000749885 8.51117378960986 1.5565370028777847 -0.29432523461598986 0.07618075822763655 0.8924808151249275
Ni 0.4427102955401624 7.154720307129646 9.655031575305689 -0.21687280876478132 0.6695641141589114 -0.6691064577962025
Ni 0.042698149738096526 1.9982938130713466 11.590246025597885 -0.3630145695625877 0.7688166666043469 0.8984542590995429
Ni 9.03504349643237 1.2193760511824343 5.274001068952408 0.2729868781495299 0.3309112612701398 -0.18344486812363892
Ni 4.700599282397877 2.8600108326363722 2.6391389201440916 -0.21290096860122687 2.226839647078565 -1.4591990030601902
Ni 6.735084727983192 2.928544910710619 5.598949431582885 0.8336238928877193 -0.00791436975107024 0.028676799109402226
Ni 8.688227114330296 0.631324166330667 13.312765535008337 -1.6827507665070438 -0.22931951916856633 1.4118446821459427
Ni 3.922544109392563 0.6482262708745431 6.376518586765613 -0.17236701304292248 1.9417827251383784 0.9666046908235353
Ni 6.830767168017558 2.4833841207290956 12.438568802079 -0.26396230605341636 -0.024150886214590668 -0.013199786519725653
Ni 1.268441590905369 6.342430558109709 12.739258011751945 0.3952975979660095 1.4485782901215503 -0.4785013244786985
Ni 4.78395504903115 0.9252555022338333 11.94099970857187 0.3565652143928182 -0.22430046868742015 0.526681483728351
Ni 7.202830506476123 0.8760675305403234 6.932052725735596 -0.371402793626283 -0.2658237847421873 0.09401572952652841
Ni 3.6977052155506605 4.520550084458065 8.22253114382957 0.10158068635797989 -0.8684407434565883 0.015889417536746827
Ni 2.7077778074052703 1.8977140942139732 12.65414182178419 -1.8923419540087476 -0.7810247786347646 0.7527246461384908
Ni 4.996207565291952 7.957558679027151 10.452406884273742 -0.8742876891556686 2.7722881270017736 -0.08886555278415664
Ni 7.366267912044711 2.6565604330479835 9.100501935003381 0.6162533185509129 -0.8631584120117264 0.41755203848883576
Ni 4.847526922237388 5.774457516432273 3.72858311503868 -1.9533053810659975 -1.2363748618079804 -0.9263365873321079
Ni 2.2932713858139735 1.1975794503603365 4.499377701182914 -0.8389920991781679 0.4048374191356447 -0.38942005613930997
Ni 2.5516955952204787 8.141985747429954 5.7789819342539825 -1.4527375637055626 -0.5417103530370154 0.3137316641670597
Ni 7.546762317150253 2.6243849401748527 3.2726761370943978 1.074857132774736 1.3004958606576054 1.347968709427588
Ni 0.27731026838265616 7.064909036593318 1.732402180974684 -0.3566734578359083 -0.08525572394571124 -0.34373875205211124
Ni 4.888569457827933 7.784577144843268 5.6244839175672405 0.13626923887910078 -0.6341913910865723 1.0326838418407958
Ni 9.053361916272218 0.9896677039653823 9.647184799009734 -1.1343558023610012 -1.9031310742044518 -2.2276626572004923
Ni 0.603739872354106 3.3312440672608385 9.563712165495458 0.316217663813707 -0.7946894206060506 0.8723189954650719
Ni 5.788323864614841 5.623124180681913 12.308940243172808 0.44217163680972876 0.0030956082061882172 -0.9021311937304979
P 6.812754828104148 4.900478749511156 3.9171005242766097 0.8849554532821597 -1.7412564760524205 -0.3115796508210634
P 8.804574586973867 6.5623907234271766 11.462721070549758 0.7202968646270885 -1.6162934062147585 0.9415109810797011
P 4.255809498387794 0.09105506805558106 4.284796194936399 0.1926807848996101 -0.35192077364227137 -0.16162494403507005
P 4.668117709598309 2.213709155238674 0.37552946174674284 -0.26251760318708983 -0.6467620286627312 -0.49837800879796745
P 0.8885565190539211 4.954589970445674 0.7080593314035942 0.5768827871730903 0.14858713701450538 1.1859444730715702
P 1.6468769569234154 6.864658563508598 7.918203293091727 -0.08408458645574551 -0.3681842866889853 -1.1826958842272857
P 3.065464664470537 4.182721322014122 3.727184422526351 0.5439078749089665 -0.2732262478538456 0.3331681756251165
P 6.447119168100781 3.9484496013483583 10.727031069423171 -2.3103243951667825 -0.6746813807808186 0.9205222946431759
