# total energy = -340890.163789006 ev
CRYSTAL
PRIMVEC
9.08378360766523 0.00000000000000 0.00000000000000

0.00000000000000 9.08378360766523 0.00000000000000

0.00000000000000 0.00000000000000 13.29503551273530

PRIMCOORD
 96 1
Ni 6.211073276810949 2.121817392245357 11.155013263468616 -0.11518670717718872 0.7130244993353914 0.8666813375633203
Ni 4.695407671155971 0.09685220764293302 6.144672636465398 -0.031093893191327097 1.7517414347441442 -1.4459670777509483
Ni 2.6774905941411844 1.7679586075096618 4.967596883925982 0.8890995573575204 -1.117228141541779 -0.8803176973998321
Ni 3.3174158876407485 4.335535421768882 4.679360259293204 1.4388271242720576 -0.25772069601907877 0.6135855419107625
Ni 5.524103068765212 4.27775347517143 2.850854601500464 -0.36924898050807375 0.7110984859572721 -0.4889407746444676
Ni 7.228992967702934 6.1403196874307335 2.77412842449443 1.3722404374907593 -0.5807597536299933 -0.6993883966091955
Ni 5.370832390422371 4.472627881767114 11.92266836135283 -0.8669479609611456 0.011641955114302532 -0.9990646111244534
Ni 5.60835516036895 8.146146248658503 12.671404663422155 -1.2221834007989467 -0.053597473610481894 -0.0291298274864208
Ni 1.7579210267849041 6.817879095810543 0.19247356262685728 -0.5269614768626151 -0.8339028575807188 0.8960970717212761
Ni 2.7435478674718983 1.788978482439155 0.21557907423906916 -0.9433940570350269 -1.3052089498625585 1.340208348755879
Ni 0.7527967532765338 -0.027780026581406828 4.3479820218675815 -0.016562018123739218 -0.1846843969576948 0.47429628525841533
Ni 8.910791889081983 2.2452024230004577 1.207852519284711 -0.5461069394428143 1.9090512963436284 0.6583067960775373
Ni 6.80897698801845 0.6396309789154173 4.612566291123776 0.16816788735991037 -0.5156715057710926 0.886117591911061
Ni 0.9643617036040458 7.345292647358206 2.403250263065607 -0.38544050266627167 0.25918622482101167 0.44330163664911393
Ni 7.8195569818736885 3.6450134543897694 3.648689661556565 0.0937611903135611 0.9156510825938037 -0.25067664468810374
Ni 7.768660543139916 3.918126487937797 12.482735389308898 0.04679202065287425 -0.27185353587603506 -0.37314471601805416
Ni 8.246076950516478 8.500913411740331 7.2697655297690655 -0.8137785760270178 0.2977478871442936 -0.25019636261757555
Ni 7.034518247579548 0.6873662610046505 0.5624360786827793 0.2784281037697592 -0.020944720572467154 -0.1370379987243253
Ni 1.5816320411510794 6.4159216776471615 9.381880532899388 1.7772092399979456 0.6177604992240586 0.0602391472967156
Ni -0.0744034535749745 4.998070252303671 1.4010573264802044 1.1213776449337785 0.17329492417383055 -0.21639689756962732
Ni 6.708328667267032 1.383214959005481 6.876285098331787 -0.07409456512256918 1.3444157019690073 -0.4359608800133266
Ni 3.754046107275985 4.004240755151104 0.44774604545685354 -0.154916678776959 0.8261347835995256 0.5237709949497753
Ni 6.081674781404455 5.647142915748783 4.829966663946841 0.2675160848429457 -0.7015116135997854 0.8313600365542069
Ni 5.147852757797365 3.1810228789690385 9.049877331171627 1.370212608427453 -1.2443295978786828 -0.19484076866540637
P -0.020051543612516327 5.708812721667679 12.394362893527108 0.9394803238029175 0.9145452511241347 0.8040171257648798
P 3.82065749139784 5.9851414145610145 12.875643542388111 0.025231520873279126 -0.11955835388232312 -1.3854816187713817
P 2.566395922409249 8.73967157623765 1.5347787944359406 -1.265162475463634 -0.07385982340394376 -0.8662288234069341
P 6.545956037895949 7.847289772781096 5.878347005919667 -1.5267439399896996 -0.05222141919856168 1.2415054981663263
P 4.550148889826014 1.1641776884026875 12.63283582722374 0.7428685792800174 -1.1307799120842847 -1.523339799404157
P 3.7110162250197156 6.146860011522882 8.150069534735447 0.8873722902537685 0.5958472440907351 -0.2545656953298648
P 4.719170848690782 0.9700935709681384 3.811553723612906 -0.5951615308776202 0.19804462031468473 0.6008097303023331
P 0.22379808151487088 5.717760248377079 3.7447724727403244 -0.055336824899091794 -0.5186413870326939 -0.8639364278283314
Ni 1.5512740368233504 1.3673910082158627 2.603939199454882 0.6604122724563142 0.31659458753715153 -0.4335908371192533
Ni 1.9551390495136085 6.52703451694602 4.947428159506815 -0.7062681544481644 -0.2554326713158504 -0.28008595108815637
Ni 5.737099623366229 5.929839340848502 9.139312629618393 0.8510076355818054 -2.2636110502706437 0.11261817511906412
Ni 8.53451432676375 2.205960478447558 10.290556827128853 0.5944570486114278 1.1850983230211913 -0.9042256143656814
Ni 2.0309159711479343 5.1402950499575475 7.250700485040449 1.2749367812415786 0.7729211756910237 -0.36614900142651136
Ni 0.5189383815782517 -0.09691942764054678 9.362949019787651 -0.031028844281346564 0.31456315892941955 -0.564551262190931
Ni 1.35952445173836 1.0666723567288858 11.366709928656318 0.918718665775534 0.180301951619283 -0.15171179868641615
Ni 3.922677463451918 6.806896801605808 1.5249537742441777 1.5070050667998756 1.5695106415332647 0.3262619354235865
Ni 5.5935940122443055 7.883316057988689 8.112803313085385 0.1328427296960551 1.6249099442391757 -1.0487498941647229
Ni 5.390589619450741 2.8602018146821617 5.007854395469857 -0.6058040981931309 -0.3911810046944747 -0.09853675732533353
Ni 1.1809372688888218 7.3952171212616165 7.324913179162736 -0.20100730248743448 0.5334532552345459 -1.4545211379685465
Ni 5.317719508524037 4.5677986810913564 6.92555644820433 -0.3894568229145164 -0.1281342684767922 0.17652937195072826
Ni 7.978259762726399 7.101284056020245 9.593578106465436 0.4560712776099565 0.13719020803147342 -0.40020326279774304
Ni 4.502595283406007 0.46706816125742595 10.415862169707678 0.3794344056815078 -0.8824522272443319 0.33452546098395936
Ni 8.26536182280486 7.327461180423636 4.8871481724575 0.9683471274359388 -0.6308790388838877 -0.5028201037297211
Ni 7.268607347377748 6.10154101583436 7.158193051027064 -0.16331338748108648 0.4521223202645375 -0.6372877706237089
Ni 2.446853332058286 5.273944756023939 2.4194966097861768 -0.9380801010212811 -0.6649379282408098 0.6068168557283614
Ni 2.1541193262338085 5.483335048590811 11.442624923799258 0.2154363334285709 -1.0773436466420157 0.9659775987624977
Ni 1.1957529197142336 3.5935084021640886 3.885646511793503 -0.14900005618220788 0.3039627577057539 -1.669640711487647
Ni 3.769479455376767 2.720066287224388 2.70056703764632 -0.6467759126198023 -0.3032225371056197 -0.04767853702288563
Ni 0.8292240738066902 3.3457663758235263 8.150322063915672 0.03569899606350626 -0.860134537583738 0.5110849148416746
Ni 3.454817196276665 2.897845013345869 7.136110373432597 0.559381030843901 0.0616599389036422 0.27909221971631937
Ni 4.203711556178216 6.953390977486505 6.012387314674895 -0.14911318472130447 -1.5020502938977616 0.04161021934161866
Ni 0.8500313882031884 7.524161427495045 11.361870997206474 -1.0993533181438873 0.9869421168293068 0.3660055338701116
P -0.0038188225671386537 5.6386495782124495 8.177230955663138 -0.03397584272481245 -0.5106460275320431 -0.44777689881164817
P 8.519989357009102 1.5354955049510386 8.019485605587251 0.7033342686308209 -0.23287998282631509 0.7884043589282874
P 1.90309805406371 3.1754636034907113 10.222060557938775 -0.774633273286124 0.2101151783259736 -0.2454061403177838
P 4.125009656269345 6.045957344834547 3.7498112474263188 0.4558429636492343 0.699435447797047 -0.17181242609103314
P 6.824973530693834 4.355129142694948 10.308970564583294 -0.4642049624606844 -1.0421503865703343 0.49886934661208915
P 6.08088449224332 7.883861084996369 10.338858028927728 0.6794119534872687 0.6224386214260182 0.042263022434269146
P 2.438051145884268 8.595729943509582 5.701216861937325 -0.057448986146088156 -0.08788853358286798 1.027851967669791
P 7.258751442322216 3.7950412220369194 1.3494323683128342 -1.7475101702716163 0.05741093381930113 1.5374070761305008
Ni 5.6925981681892255 2.592884234982456 0.3067993361359842 0.07234647208321088 1.4518376775991124 0.6688094953810739
Ni 1.1552574130436721 1.028220701337121 6.7574937368730765 0.9184792960712181 -0.5355163084111616 1.4487076166105632
Ni 6.813646052717568 0.7887876117286271 9.22837640132159 -0.5368458258558625 -0.6386489126372936 0.29150910532343344
Ni 2.8393363640715115 1.436573103057271 8.996857103864599 -1.3916332401950744 1.3868710429197406 1.0221230356058137
Ni 6.300684800656865 1.947099901150341 2.7079730463023335 0.6220190173900965 0.3893683769657681 -1.3631690713171103
Ni 4.29056160985189 6.668396355171072 10.767636226138999 -1.0719929238530634 1.2763886831967566 1.385608117046917
Ni 8.126498025031669 7.427709814702756 0.39526812002246553 0.42806785041849504 -1.0752463977933546 -0.3637712452229542
Ni 7.483375239753721 3.8407780717646625 8.248838420688719 0.1778933421777904 -0.30390876453936694 -0.3310912384914298
Ni 3.049862129571048 8.481828382688098 12.50090931487996 0.592851651797521 0.4950558864032699 -0.30615976535707273
Ni -0.06404975718576272 4.85534584655942 10.333539473711124 -0.18907789803970015 -0.8455471266878664 -0.19102576579469036
Ni 8.890862068167847 2.173304276904115 5.3068198767488 -0.5067189245634951 0.21055149453244382 0.5173931164478897
Ni 3.5947256291479057 2.90205080508846 11.502266320871241 0.09809555602285686 -0.5894763075673848 -0.27188336067270596
Ni 1.1493620375772757 3.3925478606493207 12.483971692237985 -0.2774109753591545 0.4546965087496169 -0.38475581789442126
Ni 3.202478775504675 8.508888973619369 7.984214182785294 0.15612509726276338 -1.0574530783656755 -0.3297992591528836
Ni 5.738843709790801 7.707880948000228 3.6513621106508856 -1.1564348936482278 1.1160793726493166 -0.02490447655116356
Ni 3.249877957605839 8.194753573960023 3.6391171705450267 0.225925662995669 0.7147610224105239 -0.20758212749147475
Ni 3.702150452361468 4.63143966802136 9.742934582514794 -1.8117954626132475 0.23747608683742977 -0.3299337278482189
Ni 6.916465397716242 6.32337609174324 11.769323195985608 0.8520381337288488 -0.29229252045667725 -0.9422558296655256
Ni 0.5733620534300543 9.277449724714677 13.676736047193442 0.8723303083189816 -0.8995544341422573 -0.09912219751515831
Ni 4.689503211906113 0.41380539693197993 1.6103876660762322 -0.3589316577424657 -0.6361073771623625 -0.33268712222363994
Ni 6.060800247010343 5.501929553336131 0.6116883526100528 -0.32897007838336895 0.9015321266939185 0.7753030456596389
Ni 7.5970769573390555 9.079286988505995 11.647567795983466 0.9455681818682101 -0.6675455410669858 -1.1718046912360787
Ni 0.050795608737351665 4.771647865746824 5.834339708562959 -1.2754512589841518 0.4941683415919941 0.25803282794285887
Ni 7.903254962686286 8.706788280107672 2.540667922511754 0.4633027623613891 -1.176490269637206 0.3901803313441022
P 8.433202889819656 1.4487907918127454 3.3079905539212833 0.9254184463932126 1.189088675127507 0.3526597086908249
P 1.8122329681001326 3.4722762280893202 1.3524636268538768 0.12386109502273508 -0.561180288836169 1.1518639864480937
P 4.8207457153552555 1.24667660979839 8.072359583980552 0.08015131283961034 -0.4400522764738809 0.11909298421013038
P 8.613815756381069 1.7860625879480714 12.405730340150601 -0.5825137602066226 -1.1045286916972397 0.03221283728711872
P 6.244483432381682 7.736731044273379 1.4643685720705617 -0.09718898504818746 -0.4665819473332932 -0.1839007247141349
P 1.7800854584305232 3.485402295190927 5.948610979371318 -0.4507462658526173 -1.5620156187078003 0.41307189123029503
P 7.204830103695825 3.5539757765404265 5.921555838710125 -0.903940736135411 0.6960752730755625 0.25793126936798805
P 2.5608820658482276 8.40563360701455 10.137517785264276 -0.7604495255865742 0.3857981431160065 0.6130939469863247
