# total energy = -381169.2545942968 ev
CRYSTAL
PRIMVEC
9.29527140629724 0.00000000000000 0.00000000000000

0.00000000000000 9.29527140629724 0.00000000000000

0.00000000000000 0.00000000000000 13.60456928354455

PRIMCOORD
 96 1
Ni 8.748086516711382 6.260374481706234 10.703871077309918 -1.6097658895088856 -0.9778419543002514 -0.5655347091501228
Ni 0.7839622476427734 6.96311557869934 3.3034613217393125 -2.3227114559772257 -1.3686820307155396 -0.7840951900299722
Ni 4.6794161570748525 6.151220111425155 8.23477747061721 1.8848451314110701 0.502585876231728 -0.6654572910793894
Ni 2.027400907466252 8.210243531681686 6.98836804210244 0.2066246486742119 0.37871706789950904 0.33922980843816414
Ni 2.7448471235758256 7.009480391691081 2.3262726934736206 0.5885779641228315 0.9382508222711906 -2.629455118862226
Ni 2.35310721204336 5.7614043210413035 7.050839701115049 0.556037568292965 -0.28702895806489276 0.5892865601540819
Ni 6.333918667831065 8.01552618955037 3.6921579614647433 -0.574292657848411 -0.12878398624564918 -0.37775753219971714
Ni 4.2249703456942935 2.2726659346515135 10.88198148782715 1.4521050723278863 0.610901053100064 -0.4271836480413288
Ni 4.256862421350802 6.87107380278831 3.782492196047269 1.9442088180813677 -0.25730057776252463 1.7592364575696091
Ni 0.34255584277079815 7.459975712790668 8.715508450036673 0.38617223862597366 -0.5944760747748213 1.0765453191104362
Ni 1.2506787465995948 3.5915347911363154 -0.08014847634749168 -0.4929930903369703 0.3117804539779598 1.1037604460726476
Ni 0.9044587079023043 4.982590724143544 9.06424843676966 0.7698397085522225 -0.24891466769167456 -0.32901944356406565
Ni 4.435545420576994 1.4724918044227544 13.054073517087858 0.10201263168907591 -0.8046724999606917 -0.9472046890303687
Ni 8.101098456671856 4.6397625299251395 7.8245455464612945 1.2245508725898588 0.44127869268181424 0.7674766076366847
Ni 6.876771804064159 0.18607831703217131 12.975275643652896 -0.883152595745466 -0.5177013917169278 1.3469958039913577
Ni 6.345110174415278 3.3228456804027005 2.945048675744254 1.0268944888525282 -0.616989168275673 1.368074736148844
Ni 9.205404566907989 9.019601389904798 7.205007351948215 -0.6458593143428037 -0.01951467299415994 -1.3475560473702017
Ni 2.175019110177127 1.6400576592347271 11.778114421271415 -0.8189205252392735 0.0362569254495053 1.6713618079438117
Ni 5.4008500445503955 6.300948340709631 13.314669235144667 0.8312237680866587 0.2413923911727004 -0.2123782633285375
Ni 7.0239810148400625 1.7589441785138709 11.28339870625731 -1.024148807786591 -0.7408101540890919 -0.7841453265416173
Ni 0.6594028243201533 1.806461605140531 1.0043168774069107 1.2341953376581583 -4.418351051169481 -0.9331615806737412
Ni 2.9595771847069834 0.7675774730115501 1.2515961898719055 -0.06713818840939403 1.5774725766928186 0.3958897230240537
Ni 1.2929443449703741 7.428817963562858 11.541218856319063 0.24788262688273438 1.0331859782881947 1.174530574807674
Ni 2.9748679059121588 9.229786063395025 10.48659225280219 2.0661400430712415 -0.6930974213941612 0.4766904965222049
P 7.323920827513981 2.635107151206039 8.346253799656376 0.08676676127359896 -1.950505449723357 -0.7823080162225623
Ni 2.373435970265681 2.479076728014506 9.594608728443635 -0.3601904698502313 2.2144106772865926 -0.18308851322548467
P 4.2250725936780364 2.2649787453283037 3.0710813995598962 0.8974728690228803 -0.5881125944506388 0.7526783662815876
Ni 4.565967371476576 7.596560428528568 11.143924090687989 0.6331241261643226 0.4163752445719152 0.28700298992296375
P 5.1044145491374815 7.647730896756221 1.476068624799503 -0.21876925445654583 -0.0674786024679483 1.1730123383909346
P 6.012488188028656 4.86881660405154 4.396833404404839 0.026940018923953604 0.7659550287858357 0.9218888359733994
P 5.329202093760431 0.3923850033571708 10.664675707032798 0.34826312228502604 -0.7953075138060239 -0.360059857809638
Ni 1.2048437640690666 3.890777458466533 11.405186279693375 -0.2639833890993389 0.24015569055212188 -1.9881481997767956
Ni 9.148833546084465 5.56269001227277 13.012348903503788 0.0458553677712178 0.03676086166911734 0.36667144958888465
Ni 5.833907436786208 3.941027694840501 7.773052532321288 -1.8210887149897153 0.5896174611309394 -0.3522334197866837
Ni 0.12194652257442887 4.333929515279136 3.8756828674847186 0.09842080057275954 -0.15801023010061818 0.5921397133321609
Ni 8.679952178453672 3.179085015260305 9.773060275415716 1.1749452937475893 -0.26105156016452463 1.2232529797140417
Ni 0.9107553246466117 7.111728375433895 0.7359940003605199 -0.18319727088920706 2.0712963904612005 -0.1194411115781685
Ni 8.361468299637306 5.73315599171454 1.8390656985747393 2.341165291807039 0.40714215600942133 0.7998635086078225
Ni 4.30640621710982 5.219229739609411 5.828918664706684 0.15423096556384405 -0.5501343154346525 0.04739520145451192
Ni 6.807057269694059 8.412276252286235 7.214571256536667 1.4814166768078099 -0.9326360471875743 -1.0346844172105922
Ni 8.942999059538932 3.3924300809753096 1.8791450491476724 -1.1148848381205831 0.9003599607626882 0.9043652252673392
Ni 3.7217429507971636 8.427632040390156 13.561320187273205 0.2604283247582289 -1.5862112421173973 -1.2435970905880323
Ni 5.970817487017835 5.700408751103091 2.0754862751662477 -0.5233655319812407 1.0779596829594595 1.922069048759535
Ni 6.23879086186525 3.650466810857173 10.23717967558547 -0.4308382140747806 1.1384225162312072 -0.2687954657760016
Ni 2.8617165689938613 7.059767809150047 9.385751419687812 -0.31553272193154047 0.6481265131104257 -1.1859161909367963
Ni 2.551682091743152 5.737097186724263 13.010566070478164 -0.3022483461178085 1.1961553521663013 -0.446638671442147
Ni 5.307553407020704 1.7180263944742467 8.646452020871026 -0.21715871543631632 -0.3830789444126306 0.17391404581506822
Ni 3.9345395955084568 4.9695401633094605 1.1715099918417844 -0.6263153307726051 0.18624402813533086 -0.35055268965015113
Ni 7.472226880297307 3.5956061199435294 5.705239503571376 0.0540301902725263 0.12370014396483857 -1.2541967204807498
Ni 8.23094410075398 8.639090166041543 11.365665574922527 0.7144231794551309 -0.5052749930281168 -0.627918413593667
Ni 2.1801872809917633 5.383337753516627 4.33799340786935 -0.32162366532062675 1.1923966564548174 0.8363178947801145
Ni 0.10218012826269317 2.052135624260764 7.49381793635529 0.9089147923112346 1.3266745759355023 1.2446175614327468
Ni 4.82528684879085 8.635650915679285 8.250450227470735 -1.6853110710350525 0.10766982997485328 2.0767646126646233
Ni 5.117985645161528 2.534030371640643 5.179313985810467 -0.8969391080065973 1.2268694934207063 -0.2600323748713909
Ni 9.135057954092932 1.5022087866069158 12.21573300310928 0.429951183484137 0.030589699861398936 0.5849275118544378
Ni 2.3004680909583093 2.7968355756734216 2.462481880253047 -0.8225853756853703 0.9168651575065628 -0.0001267553858513946
P 7.673292892691926 7.1283576156989765 12.91466768652578 -0.30309526749913607 0.4008344686238387 0.06526976774208759
Ni 4.9966451742725555 2.8843412592147715 1.1398326369511358 -0.4365105818692095 -0.10348433113859597 0.15684783436140082
P 6.590245067803048 5.722243343267807 9.644619146819368 -0.1645284908351102 0.12639903095324037 -0.4864298352971558
Ni 4.42635239731139 5.201949830356876 11.397703586337652 0.1048668133084194 0.25227818484726877 -1.1380862159377108
P 1.152306890967759 3.828536322180908 6.915759889792419 0.6736917631740398 1.1980754520071497 -0.42097366257587493
P 1.5271851804539103 9.207960766501559 13.46291858677337 -0.11333165624632095 0.02976283308472939 0.1034305950825251
P 8.42259400337301 2.243237105876082 3.8485825041572483 -0.08287462530804436 0.1685797780863484 0.2883620750540195
Ni 7.446478978936617 7.762462429786908 1.4970740787687766 -0.7052194014686758 0.9630210872373349 -0.8059629366373411
Ni 7.911865324577657 0.45678078351839474 9.037964198257882 0.5939279155808351 1.8323550319321538 0.02788669910793907
Ni 4.151770084605689 7.581362660035886 6.292684844568963 0.4069750343039378 -0.8054605430796258 -1.0107183933132982
Ni 3.3498391481108034 3.6014621408306176 12.738774198201519 0.18682895410452338 -1.0999364443408668 0.3799630244914682
Ni 2.8276772856787535 0.7355041395656793 5.22430402818443 0.7458366607694058 0.442270110060806 1.0034493704557106
Ni 0.4693414835576369 1.0668089860162682 5.170742816191444 0.4310073926627932 -0.0023877835058862106 -0.5514790023880051
Ni 5.442706650986204 0.5180607887568376 1.3869585774405162 0.7494804281695802 -0.39406038312479874 0.4713917100171107
Ni 0.26443001744716427 5.908864504140939 6.077991034995677 -0.5825713529174353 -0.1468462430639987 -0.26905591852623983
Ni 6.591248957097977 5.678146576460906 6.448524714699884 0.043517977887292794 2.1754726054604987 -1.0823128177218326
Ni 1.7384016290528146 0.3529498150818176 3.1283570019441203 -0.9515506247038903 -0.3055334446269835 0.1383456617921553
Ni 8.143884590232599 3.7627536875492815 12.045934424143214 -0.6067872880420065 -0.4646708463535094 0.47697923140721715
Ni 5.624419908639681 3.7250985437181776 12.709416013487582 1.266452140809335 -0.16045509209668493 -1.1436832504095142
Ni 5.181927816085783 0.39149544589860835 6.198799816369186 -0.18008289362994148 0.7410860334582979 -0.5302136652513256
Ni 4.025354395614574 4.5157450209163565 3.5232024636009935 0.8255174617305009 -1.6546447522994472 -0.8129437388305483
Ni 6.766455524876913 7.933290924807401 9.618090442673733 -1.0826547744422839 -1.513984326331186 0.3910066839001395
Ni 1.589138163330806 5.099172016152849 1.6535534635616533 -0.7031838590958858 -0.5928691352990176 1.097069407205717
Ni 8.61863127402173 8.623501996156389 3.5352965410235186 0.17126323845578248 0.6489132706777792 0.6805928611692472
Ni 7.887725505143104 0.9377534399903391 2.0067830663080763 -0.3085442064288492 0.7337817864874008 -0.09764072787362539
Ni 6.620315270294684 0.9368239128654045 4.260406708278178 -0.12634298090432436 0.20258107473245757 -1.079379960345754
Ni 2.249371984900651 7.8270366791561194 4.6240572396222435 0.8957797975911735 0.3591833687419556 1.2794470104071063
Ni 1.6676553195740373 0.6522891532330282 8.817093680939408 -2.221873818432857 -1.879156051446093 -2.7870889394600327
Ni 7.11904375390713 4.310970195293249 0.822695642938801 -0.38428016380958335 -1.7581020868548494 -2.2757543705013967
Ni 7.775466514264744 6.180044747569379 4.161270781349646 0.005304957152681186 -0.2903567368865451 0.18084394016568212
Ni 7.72800485926558 1.3538004858398467 6.206118912950922 -2.312540943202127 -0.57188327707597 0.5028823244262243
Ni 2.2497716815643725 3.1360386141045806 4.917194772795891 -0.2906426435580801 -0.3354088920301772 0.7771784083054809
P 0.8587612953862661 0.07086900705926891 10.62371237616405 -1.5126373253849885 0.30610371530815667 0.875244396641983
Ni 3.537306178667627 4.47814564871275 9.235447813113002 -0.25907695293665706 -0.153457063512297 0.405379921902676
P 2.2008971453353077 5.687070036860279 10.75888792878055 0.6156593937206558 -1.4354762055219537 0.4366455647851771
Ni 3.5807801623008215 3.1201994718956936 7.210721155185188 -0.8610529356329494 -0.48709112303023855 -0.18501452660360396
P 3.2413354468171796 0.8900993728763136 7.431727383463904 1.647844441548162 0.022029211885897546 -0.8771549834011344
P 8.487502882507197 7.792421089023552 5.558296137553204 -0.5823229843520552 -0.024957955496918306 0.38599688939037397
P 7.395401463421457 2.1547554188535507 0.2246137230505878 0.04720905358563482 0.412537873103696 -0.7039459340728909
Ni 4.2191886869772 0.11245326204747111 3.3768446996715302 -0.274102994031844 -0.268646341792647 0.6183533956130512
