# total energy = -340894.35872111324 ev
CRYSTAL
PRIMVEC
9.02664510749991 0.00000000000000 0.00000000000000
0.00000000000000 9.02664510749991 0.00000000000000
0.00000000000000 0.00000000000000 13.21140754209938
PRIMCOORD
 96 1
Ni 6.254607469710432 2.073149562448525 11.322677796434832 0.2561788054532556 0.32944264714441324 -0.9350387430917961
Ni 4.713984830397932 0.37849896045586195 6.043478755943333 -0.6601027116356954 -1.20345882780625 0.06996845876933756
Ni 2.9730248314434125 1.7174455886694218 4.922781961755573 -0.7767814299773784 -0.3597212435232966 -0.0942324735230248
Ni 3.372318474038921 4.364789067680463 4.844147246301599 0.03597667520492514 -0.5018045179810132 0.10594539108457883
Ni 4.95039266355214 4.527981783052548 2.8790168368506484 0.1967071324501838 -0.1652435146242638 -0.8608174225833756
Ni 7.10294059562359 5.920468150891445 2.653867938033716 0.1475754079205394 0.6013185516179514 -0.16714561674298312
Ni 4.973013435979953 4.415446599549933 11.361797470635812 1.0221477181961622 0.817563754101063 0.38528932180038805
Ni 5.710129268563863 7.769793023347922 12.314326062714771 -1.8589551510181856 1.24827135613525 0.4268319211288649
Ni 1.9433012737916604 6.288006056295792 0.529965161278477 -0.39424190300798556 0.8725596507209683 -0.6353756412026605
Ni 2.594808404976773 1.5484758204825715 0.3029017110521517 1.1625664604672623 0.11658255908345083 1.4033106765330026
Ni 0.8011138431329748 -0.23794326547263187 4.664498957052457 -0.895679010347251 0.6138362244689879 -0.3090905658506225
Ni 8.678740070590994 2.3404556015167013 1.4657791147682162 -0.04067716600438801 0.27985506602427285 -0.01215643285687584
Ni 7.028055548512199 0.6207723075460606 4.616924927122867 -0.7031249808334923 0.12942496226375774 0.6946835349343584
Ni 0.8897401519629846 7.396180185843047 2.5526945926216387 -0.8430978938164255 -0.41202262403017426 0.21294981956129133
Ni 7.869997809749023 3.6708476782418975 3.556180401184833 -1.039354826103068 0.4413817939185818 0.3791024762633858
Ni 7.42203249718912 3.7889432750787244 12.61966857858116 0.6265786117363209 0.022867391516476748 -0.5865704467744995
Ni 7.784596721185756 -0.1925798609091927 7.024016124864375 0.19589466385121748 -1.257180742809738 -0.8069435553830554
Ni 6.812715904841838 0.9573027846316601 0.21516091609890506 -0.09861671863364951 -0.6596129164834705 0.8104924490765782
Ni 1.9745695721515755 6.597340154591384 9.107151864701923 -0.7958309904096617 -0.10197560780355341 0.4767714862717854
Ni -0.1451692132545213 4.834264875330342 1.2330604714349376 0.36681286026275534 -0.8243139283407029 1.2760863214649893
Ni 6.437920576838941 1.8054192710642636 6.806384616022656 -0.22295603884438378 1.29358267847754 1.230417872893597
Ni 3.5460813907330215 4.397853668399969 0.8008502650983012 -0.2096598359561099 0.19561981292327602 -0.5864961418931383
Ni 5.9631641818505665 5.551368635898106 4.816310878379455 0.524194198530123 0.8142035793795783 0.21001490530268346
Ni 5.4296172478269344 3.3314277720844134 8.97143084079305 0.04085277235030384 -2.381780751335556 0.3104843608743556
P 0.051688374731104374 5.524712953144978 12.433982366476087 1.8333425926564038 -0.12543358171617755 -0.5181109684505206
P 4.093691837702597 6.0244280216221435 12.55893550553694 -0.43508413383532807 0.5102696180292309 1.391209008173462
P 2.306027977398712 8.560951379684951 1.3448554700456614 0.9540440805497052 -0.7643030950047094 0.2519390563402951
P 6.090367663515671 7.594784429640637 5.84979944967033 1.0519324056577624 0.5668333733568882 -0.08830556651562856
P 4.739737848648751 0.8597166279517509 12.463958951933199 -0.3075083089651671 0.5157226707240022 -0.5559069562523716
P 3.9452215803631385 5.988601267525578 8.236347808668336 0.0519797355014008 1.0366387127234857 0.8866163859243505
P 4.80230152530365 1.0623277994750815 3.862711726200761 0.014173463286904622 -1.1065115264552232 -0.5693119168043679
P 0.04275831480978106 5.5527677658766805 3.6431512233176115 0.8707809615539907 0.4471117544238235 -0.38701093247718504
Ni 1.6664901775141907 1.199144658089756 2.6733284820389533 -0.8700880492520242 -0.4460401186261996 -0.3104087704414138
Ni 1.9513349878621928 6.448526884741049 4.773889257429034 -0.2575908553094338 -0.03155592042941017 -0.312770585805371
Ni 5.8083301397698435 5.629124156126832 9.350981405394098 1.040533934012834 1.2639301457184295 -0.5861886379550486
Ni 8.831723650441987 2.319820690993963 10.071465644523002 -0.9239148652644926 -0.27583720311413135 0.9401786354215228
Ni 2.343587847339707 5.2909770069176 6.9690835739119805 -1.373559670522815 -0.794756012177928 0.41138601888743986
Ni 0.3943750237224378 8.923885696127535 8.995317148853097 1.7713589518647557 0.9365819192092 0.9193768681848231
Ni 1.6060116558596205 1.1055293225554954 11.453021647903462 -1.2013746915837118 0.9545665287120786 -1.0663886902924085
Ni 4.1841659007688285 6.83971460010584 1.6997271871536375 -0.3729277149112416 0.08789007624476476 -0.08584296390774894
Ni 5.5490036549020605 7.772573230015027 8.04532414136112 0.25688020239565434 0.07085523224966507 0.10687561620833208
Ni 5.324808872464066 2.9359433736886404 4.8115547391168 0.15423816465269566 -0.016170696222591506 0.1932042615032479
Ni 0.767996887872335 7.326368113234622 6.674045876003927 -1.4943007318593298 -0.2975439986636037 1.4364429403105972
Ni 5.024988858022791 4.56897177810231 7.002918147451953 0.525639672727398 -0.36336681069568383 -0.558544908095851
Ni 8.136022065223923 7.194245110031944 9.090281065153805 -0.697558028268676 -1.3025105770947891 0.3955829904169123
Ni 4.495395594519265 0.05630369833140015 10.297658023504601 0.3467266310358416 0.46555890538541755 0.42624159584303367
Ni 7.849335819291215 7.257630211383943 4.565664415365857 0.8747700281087257 0.08265479598775442 0.38998261351099933
Ni 7.290523305848011 6.1317728842364945 7.118609948719137 -0.6371556159212188 -0.2092438314646138 -0.38825174686282166
Ni 2.1491990467678908 5.170715015275237 2.7073083845637984 0.18281340518722708 0.0809727802996412 -0.1874645308059933
Ni 2.3142241710796596 5.2503390510237375 11.507056950340564 -0.8914351474692325 -0.5130458952227873 -0.14811353981219652
Ni 1.1470970228867334 3.2493484888896362 3.8670580557793692 0.41872677552322723 0.21691934573200058 0.7770385402935069
Ni 3.7047968901736645 2.499441900308036 2.5788664472015284 0.2218859457086566 0.26340360533646895 -0.13094474134239384
Ni 1.1468533034711106 3.36311129611539 8.259679880723967 -0.11928041763058812 0.10432585320328483 -0.6551170854956458
Ni 3.7785716599472168 2.5254386379744784 7.175022869455316 -1.0055905851684295 0.7586078443921451 -0.706073521938855
Ni 4.095533273287303 6.581769191926588 6.062160300483079 0.11757449068307493 2.095716471176778 0.16660439952753245
Ni 0.5416212679967676 7.404114606818325 11.232919546318929 1.1047608623127039 -0.4996435057739524 -0.05408161233575202
P 0.27277076996514343 5.5556382389940175 8.084152254927856 -0.12745446880094824 -0.02052434520559691 -0.7625421464495448
P 8.500942243571581 1.5560762555919967 8.00044546763542 -0.12711919694871654 1.555563435324553 -0.713311691558507
P 1.7823110598052039 3.1815854647014485 10.556429369703466 -0.0033509187501039065 0.7576516511264629 -0.19637880257648763
P 4.067315980945185 6.229955702152427 3.8796755001926164 -0.960819451600326 0.703412173056608 -1.3768090306980483
P 6.973173546771934 4.086244855558563 10.327700503470382 0.30221003668070534 -0.5622110440935285 0.953661757509622
P 6.380962446743368 7.829648706495899 10.151711616113593 -0.3336574565567092 -0.3862979655705605 0.3512288897815693
P 2.4471324923993447 8.373124950044907 5.968160429870836 1.5640215933942354 0.6339651340083791 -0.428037768511508
P 6.613777675178394 3.883181449119577 1.4951482070152775 1.4687809903216704 0.6990829495536347 0.6609766296002165
Ni 5.158682497459483 2.811827004621425 0.2818479642003428 -0.15079905706415966 -0.2631259261950501 0.1418629309167944
Ni 1.4164701636651933 1.042044928108243 6.9780009965302705 0.03956567810776412 0.7384907619272959 -0.23774039624240995
Ni 6.7670320543800795 0.8252023480415398 9.236068603592406 0.04610913565323672 -0.1159140722615165 -0.11307094638576655
Ni 2.719863545126387 1.6176650545844042 9.309920099848656 -0.10127806751589655 -0.3955616502606736 -0.509495973088
Ni 6.2936928426603265 2.1114586439264347 2.559393265893259 -0.21251556023735013 -1.3618858337293125 -0.04640147008267493
Ni 4.0126686719755185 6.683634881011935 10.519464355669491 -0.07825718114069104 0.8101422648260111 -0.38038082875517715
Ni 8.359232943354403 7.082747990706982 0.5250582770439362 -0.36456803009263666 0.5754928488040992 0.22248398430397165
Ni 7.643013793998901 3.7648601861571733 8.23682351286105 0.789685539633556 0.051948110932516986 -0.9773418747353813
Ni 2.925012106565702 8.361272965129617 12.395735568848837 1.3135421523186024 -1.143970699742946 -0.2251443047449542
Ni 0.1084262546881142 4.8661289322617804 10.182269517510193 -0.17837285291737023 -0.04131094293364498 0.6265981521203468
Ni 8.493459154847455 2.4901805625143663 5.7035623843095795 1.1074564068669959 -0.4674692350342529 0.7659486010279325
Ni 3.705726634611041 2.5912248269026135 11.52497123005335 -0.8157655245500597 -0.8090022376842971 -0.2404074015516118
Ni 1.1482885400297786 3.306008739699448 12.724633114902929 -0.7672542072132335 1.0440020950670923 -0.44575909705067096
Ni 3.239022006983244 8.447594771485237 8.066542173152348 -0.30049691064434053 0.29444376247172516 -0.08663872033616693
Ni 5.678481851112979 8.027142672955652 3.4528542009347536 -0.5411082006766422 -0.3926043674045625 -0.20839948118644755
Ni 2.971264635663914 8.36796170909171 3.490652374304357 1.535884211728071 -0.169304829177831 0.4820818427411052
Ni 3.3302994414565297 4.161626368146223 9.403391009062545 -0.266920874461108 0.6883735335559307 -0.3136432182183115
Ni 7.264355061926131 6.328544719094401 11.570629805909043 0.5045928793594278 -1.6625598933814656 -1.2825989257725265
Ni 0.6262857823261518 8.980031428171031 0.043314356143202185 -0.48386130323903115 -0.24781474975927642 0.9581362483412079
Ni 4.594517183517598 0.2737492582856443 1.307411141160962 -0.12514099017642322 -0.23438767772009308 0.9837462355998284
Ni 6.025908391405927 5.72464411376096 0.5550348625010498 -0.639993085370014 -0.28253312707706824 -1.4708502141458732
Ni 7.86061009892503 -0.01436771088322078 11.428105399646281 -0.021026995873628305 -0.022496124219987066 -0.6948771390024032
Ni 8.867983683499661 4.9871220821510125 5.793664549600861 1.121580504973204 -0.4699490640333132 -0.2516066127015409
Ni 8.076843380452676 9.068528655977211 2.199936915778066 -0.24355468893134186 -0.6854036522943293 0.3477388743504398
P 8.728341484992765 1.4680935465521316 3.7120091795470977 0.27717340542705166 0.8514696628198883 -0.49395905379466537
P 1.7934589664086957 3.2522640952320883 1.629310329328667 0.05762896336737817 0.01488488753163243 0.24991456971109866
P 4.757050953803001 1.2261975132238971 8.45585595701035 0.7162977707700244 -0.6246798520517113 -0.7044928077152964
P 8.645910162642089 1.719377290704359 12.491966826110783 -0.5951988118734589 0.341990659012753 -0.4636915131593756
P 6.442524165800707 7.851222388101037 1.1754542282267082 -0.3615873501977579 0.09455309008723717 1.6722964039429393
P 1.8575481460724939 3.3536513721312122 6.109218908981851 -0.5109447897193845 -1.2576301716423308 -0.5590930672898371
P 6.868771370435103 3.982203745022657 5.924219624563032 0.5093165100873421 -0.6916506616453056 0.8546542311954572
P 2.306380016554612 8.559245343775592 10.202126331231943 -0.2840004556512141 -1.169170338937025 -0.4709800764009889
