# total energy = -340889.067372961 ev
CRYSTAL
PRIMVEC
9.08385474459951 0.00000000000000 0.00000000000000
0.00000000000000 9.08385474459951 0.00000000000000
0.00000000000000 0.00000000000000 13.29513962883549
PRIMCOORD
 96 1
Ni 6.530292449235311 2.1981384603253744 11.199347540299952 0.6808188611371242 0.956918830994339 0.2777717011326829
Ni 4.961410785559534 0.6533126611964187 5.957312858849187 0.9187117237969984 -0.26456188731062824 0.23899792279859486
Ni 3.079708410684106 1.7760389746758074 4.633608980858404 -0.32639254746417984 0.8562287747714286 0.15598265814762813
Ni 3.821105396077196 4.538203069612137 4.749382711561994 -0.4598271451079629 -0.011586162175702627 -0.4025511942046293
Ni 4.004517510367991 2.4811822951620295 2.3946676610921203 -0.6155033277587657 0.35563087550400685 0.696824235426445
Ni 4.953943856831534 4.645746827776108 2.336248481843171 0.5176818513329019 0.5457546983097181 0.18286894101551085
Ni 5.417629230214411 3.2274028075071484 0.19973398477555143 -0.2504161919378655 0.045815772782534 -0.5300542568553259
Ni 5.56892991743285 8.200958707068306 12.63149992840277 -0.6219046032994192 -0.01675845040526146 -1.3998882811150148
Ni 1.9610316797192453 6.669075584401217 0.16623272790345722 1.4724664095930577 0.3998049989180598 0.08117821144222792
Ni 0.710639961086359 0.45713318884333215 -0.15711253758361376 0.5288139566903215 -0.7200297270086309 1.6136806511822595
Ni 8.429753760440713 8.78783932060827 6.937643388068845 -0.32016867804165505 0.5057838143437354 0.536180938578354
Ni 8.570417253570968 2.774409131341857 1.3035595213640054 1.1665239024531135 -0.6401157269908073 -0.3876475376199195
Ni 7.285805745143379 0.8082423484475043 4.888490140347837 -0.8784222801493323 -0.8300269195650801 -1.1607440625465428
Ni 1.0077265272132991 7.500148385369499 2.508992516939122 1.9246496650025176 0.46006985724638827 -0.6798896644546355
Ni 8.253663233199513 3.9523761832406 3.6492097930289273 -0.8866827203859117 0.45349400380108346 -0.1528042604196465
Ni 7.771301454141738 4.175784510657163 12.606265887875384 0.052768035730651065 -0.5361997076314313 -0.16447604033061997
Ni 8.22652067475759 7.470862037171117 9.301598535743246 1.060439157577193 -0.3248825385775566 -0.08271084603667046
Ni 6.932798059865055 1.1631785361211484 0.12029113174548091 1.011181963213278 -0.5177065339232503 0.7255437148483247
Ni 2.1003325946144638 6.741810010587458 8.881286752738045 0.4537503427862637 0.0026551782346599436 0.605948337080479
Ni 0.32160934081563464 5.1661972104305995 1.2351780784459603 0.653759800136803 -0.8550972322701467 0.4436127401316296
Ni 6.486808035827851 2.3625471501648625 6.785414330879601 1.0847929038312092 -0.7935069702621753 0.8009626552092722
Ni 3.2677532909740252 4.583386163885943 13.4396577969997 1.2839513260353628 0.4265943511967621 -1.382579100412606
Ni 6.237874076141606 5.533421128627802 4.422215868318391 -0.3332409378445809 0.902937234571561 -0.17059192342037072
Ni 5.552215624416404 3.415256926844163 9.251781767084825 0.5916481184077229 -0.7434635325515391 0.13914836019910876
P 0.32750930457334215 5.658414972055139 12.350347352156344 0.4940824667464072 0.3415905953608569 -0.24630756908613063
P 4.395613799243031 6.299744211867157 12.688801793498989 -0.9704983694509867 0.037002288255962086 -0.5471623772905222
P 2.5870727917341565 8.668513802638687 1.2399434687266275 -0.33396984559080545 -0.10812902899945893 1.5111116327690814
P 6.5834330004017305 7.917923956086551 5.666188935078766 0.32402610411453225 0.309887350720305 0.3740096351215107
P 4.92979897050669 1.2739470627747052 12.478113588099236 -0.7482532406306985 0.9666900514484901 0.27611282537302123
P 4.491357629891587 6.539031117649345 8.175460326363325 -1.183276182210788 -1.6126753498461968 -0.20679434148285675
P 5.289737637073898 0.9618258084023739 3.4714405694021626 0.06527028196271985 0.033468306960774616 0.7615391591063271
P 0.41370146179429285 5.943720686761955 3.7442305488274235 0.7487252951711105 -1.7601417429926978 -1.3226538848118834
Ni 0.9701102840713949 0.145545156753645 4.55890335815881 0.12151702027059072 -0.286417549733139 -0.3075437901887929
Ni 2.252750595985632 6.7259314322218335 4.765005125219431 0.6622426407968337 0.023481370951391817 -1.1227218176664988
Ni 6.286672544665708 6.137470227929226 9.303420757036234 -0.5293096653798174 -1.2709099194703726 0.5758558885704728
Ni 8.8713471987062 2.5504739403410794 10.025426437373776 -0.05601379636145838 0.42692782327678086 -0.21309611533116846
Ni 2.7176168705055406 5.332940450979451 6.826203564538161 -0.05712528425808226 0.5460182363837499 0.3905132892034887
Ni 0.6238591700678725 9.262352649032238 9.335461330040369 0.17716906241725616 0.44779746763693845 -1.1482312747915129
Ni 1.7229983459132916 1.400939354280095 11.057820172568684 0.04049101813551091 0.2476913368075347 0.2735152398491741
Ni 4.434447278941567 7.097206749704544 1.5573124660748288 0.02240356450618077 0.8290064487203659 -0.49149619407646966
Ni 6.179764656344755 8.04936733649306 7.847269732672466 -0.8441487036784429 0.734334059446445 -0.39294555279406523
Ni 5.442373650962672 2.8277131918964797 4.5396392270718655 0.26490230136918247 0.34096967394740635 0.7311093818615602
Ni 1.399567692190158 7.603649828102863 6.680169696390882 -0.3952328061663451 0.09374422103269661 0.6118518470491074
Ni 5.525663516542996 4.6950085729001225 7.011936603755968 -1.6353221407114351 2.1691798304732517 -0.04472228260803911
Ni 0.985625508241009 7.4827528032355355 11.199107726530587 -0.8881562196076447 0.3598747383820253 0.20706482153542402
Ni 4.693954845731694 0.7331352193613194 10.359998439132058 -0.523704403377898 -0.865779137464025 -0.743291525750049
Ni 8.526142544787186 7.391441893778298 4.943624597664859 0.0004710260991475759 0.6348022851976938 -0.8322848623613215
Ni 7.456891068334546 6.171843534871743 6.77522951276545 0.026741529759902332 1.8099977472828763 -0.7555901406117439
Ni 2.7185434237053654 5.674411640534466 2.3779424674497935 -1.0464726680947718 -0.7011375180898183 0.6340862329672757
Ni 2.3475497057245627 5.491789821619991 11.02246853445341 0.5319049369108194 -0.8291193201491464 1.5179057728727794
Ni 1.5275773754443753 3.6006220699385105 3.4871156694180208 0.24737354845679976 0.5160093487264854 0.8320544915180702
Ni 1.4214870340644434 1.3278960770272452 2.4621934048785628 1.1381214400510204 -0.551384900012302 -0.9089150494215508
Ni 1.091906610573846 3.4982742767774786 7.750999946825186 -0.5140465685731598 0.16241890069127513 1.057511699517753
Ni 3.9746861308755954 3.188805508036018 6.913911817141961 -1.2010545892401314 -2.1133400977958123 -0.32458968992748616
Ni 4.534442353683437 7.064668381451876 5.96451908094155 0.0463868147946556 0.3380080202159211 -0.07515591650754799
Ni 8.774086364289303 7.468818169818563 0.2982592917945614 -0.8018152330175545 -0.037243457732490694 -0.23393696333591968
P 0.2461679258691209 6.032215601200116 8.022101237624492 -0.22467327864580663 0.5023912437224186 -2.84161843796648
P 8.78737604400836 1.7086276874611082 7.802797904237348 -0.6660851544713755 -0.263251653139637 0.4118660438476519
P 1.9566623455122287 3.476463941161996 10.0413140995943 -0.24335877087045185 -0.8792643164346535 0.5327235761573729
P 4.267367935761408 6.489342431345018 3.7882109407124376 -0.27799512999739867 -0.8620726351467155 -1.098942970079346
P 7.503382237713986 4.404361551511965 10.381297353716654 -2.977423335614653 -0.5155285524353249 -0.19776025630504654
P 6.355410074695843 8.207435495612179 10.187480592023121 -0.6227774928226758 -1.2062705862234324 1.4450191120153821
P 3.032390610508743 8.983196704092887 5.74276946542977 -1.4630643995528674 -1.9395196401358148 -0.6150202174747601
P 7.222854630684698 4.459627724725039 1.6933622693012507 -0.12912208631135827 -0.7698975583733515 0.40693981019062825
Ni 2.946411923877948 1.6796501903293346 0.4353137693729497 0.15353111128334201 0.648864676828031 -0.8832364137085241
Ni 1.5932899817927293 1.1421221604623866 6.621564298116478 -0.5057313638392452 1.1730478196145604 1.456501401623369
Ni 7.1534630631017455 0.8142640358608749 9.24968157983189 -0.19939136415056627 1.3059260305342413 -1.2889845175838963
Ni 2.8247155197793994 1.8266996334544596 8.75071451401647 0.4228847635556588 -0.27917038125242244 0.6490924765681207
Ni 6.3756670711233845 2.6042594452054146 2.33471966906346 1.0050326557824305 -1.0324375301579445 0.23189062232985228
Ni 4.146107556698071 7.139110572359363 10.5634667966571 0.875424116752957 -0.029392337119188088 -0.14668477778546996
Ni 7.258608683572052 6.611011583878866 11.715052517154557 0.9077999619805011 -0.6324648953137688 -1.1690271284909417
Ni 7.492645121221899 4.357552447211015 7.979862220723855 2.673755226331182 -2.1173852143994627 2.37410986505386
Ni 2.800507046470253 8.850608757968947 12.454421986133914 1.8716461162222926 -1.4173792388109268 -2.2507352227492397
Ni 0.35843801373768774 5.018148543266449 9.807000604369996 0.057591682371539527 0.07374952307832461 1.0567005164703673
Ni 8.788093668545478 2.4288138716621317 5.626303544982782 0.7607763127983737 1.172403501162342 0.1184959740560798
Ni 3.651964017834681 2.8409120330665316 11.397378302281707 0.5776610601000117 0.8127277661650002 0.1252309787870682
Ni 1.1560386261695577 3.345738185292607 12.56142071300387 0.20251165494710285 0.4797511377253997 0.05520852685134363
Ni 3.569546202324781 8.505213343097028 7.919662605914458 -0.06316917645931702 0.9902619252311591 0.3978275634767149
Ni 6.058358935603014 7.864647147096629 3.49458804845896 -0.7614412000758822 1.0395592288043902 -0.08263602693467705
Ni 3.434687292475781 8.732591315104997 3.449105186973446 0.23981167694914185 -0.5293392330661723 -0.4388400013333345
Ni 3.5236273158040556 4.526076123320314 9.047103440087072 0.47187893406617437 0.7403054465385316 -0.2902703478203259
Ni 5.459678394547634 4.843584103648489 11.454374949853278 -0.2816422398316827 -0.4834118744064384 -0.21744770743164488
Ni 8.352313897416145 -0.2506980443078718 2.442343365150553 -1.4399278135354039 1.630187133477715 -0.36239879035545974
Ni 5.069654000550823 0.487061765583161 1.309384997511531 -1.072393758835908 -0.5928382820610822 1.0487347246560714
Ni 6.325042747764333 5.852309854900814 0.5077974811639445 -1.1265257647936213 0.787477990459276 -1.1245946092091794
Ni 8.0134588580724 8.953819517345503 11.479967802649222 0.05160923953585951 0.17418426875731935 -0.24320656156330378
Ni 0.3672611620022932 5.15459712772299 5.690200288736578 0.08869663130646015 -1.1794166992553816 1.1729526887975927
Ni 7.741460990794441 6.500579159856619 2.4242228913955493 0.14197554523525874 -1.2274935001579503 0.7781734252288984
P 8.604045684411666 1.7037496573796778 3.289576343986368 -0.27124546997839094 0.6810919122928528 1.154631779001218
P 2.2389703881019645 3.455770919699244 1.4589824619361742 -1.7926669693139126 -0.5568006717112347 1.316144622938456
P 5.014742097678858 1.4773436578460344 8.15389616321564 -0.39704877632916136 -0.01880581985259342 0.15284514095991095
P 8.60947782964201 1.8403708350793246 12.266946663546237 -0.6052415408214415 2.1235790019150005 -1.0241534357722812
P 6.7527833073069505 7.943794774842442 1.0649193860507158 0.4186498995387048 0.967092171982915 1.3004313259682572
P 1.994887206932449 3.4261757204342542 5.834226624950902 0.703130380150131 -0.16950460389346292 -1.333727626127542
P 7.083235780867971 4.104930442435272 5.678261378241189 1.4548317272304299 -0.6598743976749732 -0.17321701974804363
P 2.5554791443911125 8.576249088416922 10.099147370202184 0.1488977262763887 1.1685435039863037 -0.22458457558674225
