# total energy = -340874.16041999846 ev
CRYSTAL
PRIMVEC
9.19048885952411 0.00000000000000 0.00000000000000
0.00000000000000 9.19048885952411 0.00000000000000
0.00000000000000 0.00000000000000 13.45120943476415
PRIMCOORD
 96 1
Ni 3.9365896692910285 6.851840310423329 11.661485984243782 -0.38681989951230156 1.0207482667454741 0.9849083742287297
Ni 7.971453236072394 0.28522774113928645 11.220366413739459 -1.1133295778183212 1.336199741817118 -1.026719910947877
Ni 2.2456316220407433 3.761584380222384 6.8471366182194995 1.203650889212398 -0.9556083397130316 -0.12748635048014817
Ni 5.4843966618971995 6.838789816227474 9.768805896778833 0.20136442871653706 -0.839893785056831 0.12346874468032283
Ni 9.077574524059829 4.819372887240802 2.8808056078952267 0.04067202379806544 -0.14666472318081195 -0.6932830550424061
Ni 5.6664234844627694 6.086952683702028 3.850018940328156 -1.7069314775183053 0.39032662711397936 -1.6242239739157445
Ni 8.335295499959516 7.135320939628368 6.816265766104093 0.35865140749788554 0.9785423228013858 0.6025526811353688
Ni 7.407690267789189 8.226323873424125 13.181768381732232 -0.7023212539852742 -1.2468785895527816 0.8863549047328476
Ni 7.726140707145798 4.512171606261465 0.6969083376942009 0.12962936496507999 0.6870525007516619 -1.1777272273681008
Ni 4.615546225074832 8.142966139370317 4.887173880783817 1.9491011131766627 0.8451177524599316 0.7020199206947716
Ni 3.287070249358861 0.5262170641012848 9.72718860602736 -0.5162692872560916 -0.75092358837401 0.371692814062876
Ni 3.8434808265458105 2.1505743956550174 5.028532790098218 -0.8043814510828341 -0.4570189862352064 -0.1811064497984494
Ni 6.23693227157679 8.509887217028997 2.3414250065849815 -0.710750358589234 0.784548732627623 -0.40327290286200224
Ni 1.0864995942492999 1.8377025830426936 5.047902664441307 0.20094225357745393 -0.5185552550767909 1.043881767439144
Ni 2.9863206915664904 2.6619240059107843 9.040019429389037 1.034258385416767 2.02503273150797 0.6275538311653965
Ni 8.382865470352296 0.2889489700828793 1.4628730897111037 -0.02980037119088416 0.007507364120638684 0.021654087934665934
Ni 2.1981627470255374 5.904172241049093 2.0795438643229707 -1.7876985695650438 -0.5681225244819571 1.1130413571539413
Ni 2.4827554253838846 7.2698513157121205 0.3177482860069159 0.49395288314707836 2.1047266450951883 0.6425791009296353
Ni 5.177020761629327 3.589731428836259 6.401538522488667 -0.7006757479620513 -0.6233500774966941 -0.3718938743300886
Ni 0.718780782156677 1.3923223018980877 10.41223110354109 0.2805605767317297 -0.7093172256871332 -0.29311964434366294
Ni 8.205433892221887 0.31291500791001425 8.598699506227339 0.0741380167659949 0.12125451063782343 -0.2821541464710947
Ni 7.700572767108565 2.9022644803585385 4.412104644392529 0.24383133963149617 -1.0587733398389958 -1.3224826493413417
Ni 2.4566544369921743 1.6886236630772236 2.52554542251521 -0.34714572085113116 0.9984989684289706 1.2672946913152885
Ni 8.358216579202095 3.290213396552511 9.27107107673556 -0.5535376846892467 -1.1350525713177098 0.9201705677307119
P 5.836465909541441 1.5315030653502228 6.146395846666375 0.15460043308812083 -0.3669329307803874 -0.6389880411442672
P 1.6616311972650917 6.242428183921242 8.019879760027887 -0.4928218548664286 0.6183220281544836 0.801784122669303
P 1.2568912579050435 3.4007657871735972 9.902658933832843 -0.5692088155676004 1.2506969348576074 0.22372762690308565
P 6.925207983075099 4.576137408798897 2.9993105285358017 0.570807784623604 -0.5225790315242033 -0.9720294613835325
P 1.5868298083495527 3.9120326830295316 1.4383510273073143 -0.2517855614815664 -0.32814089761385423 0.4364560744821903
P 2.8928626102442005 0.1695093767241929 4.5291969868937345 -0.8940288763383378 1.0018545151647649 -0.41238283558307043
P 7.942585910530718 0.4386813338070293 3.859878496788236 1.1847013446930887 -0.4696292188000493 -2.24032302627698
P 4.086817400365288 4.462046679962738 8.221164332972327 -0.9596709398181794 0.4024974581485585 -1.2150503892985913
Ni 5.653336228311433 3.155398115313778 13.185198272178637 -0.6922170756717368 -1.8662884514548055 0.09548640053478394
Ni 3.225089592417419 6.532259440935672 4.196602385165703 -1.6566471274414567 -1.0120160290787992 -0.4032165957027701
Ni 2.4540167666863923 2.7240241392075406 11.650146759075582 0.3883517627757957 0.19678657953786755 0.05936420089093002
Ni 7.00639676175551 4.907656723329102 5.315878019873227 1.8449989459484095 -0.68570909934989 0.4225626043295496
Ni 0.8833521092108466 8.09888855474826 9.437126667742284 0.30599392920316976 0.12562307201916428 -0.42815809613945616
Ni 6.205923562128329 6.208092517501724 12.447951040734825 0.40327110308978936 -0.2890596153416764 -0.07437507247746546
Ni 5.647766792056019 -0.02321333678865574 9.607486164686982 0.8421231886079819 0.8887704561528758 0.7719210165612834
Ni 6.131443840323251 8.26348101992683 7.390081291113654 0.45420851336960477 0.8956203891951736 -0.7366976745826151
Ni 1.4320160233290025 6.696787572692151 11.920918780270743 -0.2474745928110383 1.1761994778696645 -1.9257788935109543
Ni 3.5463615118572163 8.861717511962608 2.4615042579690427 0.91834302760367 -1.5369427348995723 -0.11212915129778754
Ni 0.40418391478339394 8.988592210817385 12.754638573386309 1.787770817563876 -0.09256022802692447 0.8808162343028055
Ni 8.650896887766326 4.954610930967569 7.738574519538455 0.8204058515355483 0.5651017353777622 -0.5443416200122755
Ni 4.616897226938769 8.375476317300558 0.22195306336490328 2.158441361009825 -1.2692163338180333 0.38069501756148627
Ni 8.462850294990695 7.315868093485816 11.105102978523446 0.09436385689456651 -0.12474555451021742 -0.24490940318702337
Ni 0.3143183955605122 7.515329273438384 2.2860330111146725 0.6960637031113368 1.3591625212608787 0.5297084434801329
Ni 3.2341606049324256 7.092943595447319 9.226601977287626 -0.8688238378276198 0.4958351877714558 -0.396622230314704
Ni 3.444475752240842 4.989819693829768 10.374716447021328 -1.6254195368857425 -1.1110513233071058 -0.2369613519845403
Ni 0.09332022398923524 1.9849066432786184 2.7889200192186485 0.07201762798888241 0.40914967335775343 0.9259820322061666
Ni 7.8261332260548855 7.1778453316313415 4.466029837839134 0.22846411314680656 0.7805709789267976 -1.075427403455909
Ni 5.905550814379641 0.986654123162137 3.955301504631001 -0.5725005989449946 -0.33185331346843494 1.2010219362299832
Ni 2.9572603657585366 1.3000406031511986 7.310476952714486 2.413903857122346 -1.158298686329844 -1.898048003254589
Ni 3.643992075126632 4.03783209468648 2.2790519157687767 -1.3525013071906191 1.1194526599969237 2.045096077916749
Ni 0.12728183751173092 3.4333644511966246 12.022503091852169 0.5851278007907019 0.9926234834848001 -0.6185140895606315
Ni 0.3228471692321697 6.097374698080972 0.5297085308231196 -0.5452651602678094 -0.6150724108689343 -1.304101832841309
P 4.156904068490354 6.648133124612674 2.0625543265972963 1.377050457284893 0.7254812370415054 -0.40403780605248485
P 5.729268047358022 8.214624381092207 11.61567047817635 -0.1299785207743826 -0.7259846590404853 0.5713482305081063
P 7.453403759430164 7.4520435670773555 8.925509614260392 1.1666095201883844 -0.34056446808918767 0.28425088109912333
P 6.157884876803162 6.729882523114175 5.9031033871934735 -0.19502048877638026 1.0402089465732471 -0.09933585618786119
P 0.7629649764496301 6.455188001269163 4.1086043732812705 0.8386542562227751 -0.36207868801187965 -0.35464897120671174
P 1.5740366478420664 0.09944200862575578 1.3064206405249752 -0.36384400744241857 -0.5164238105560848 -0.17993351253627077
P 6.917350115090975 1.7822931256435308 10.11857844125438 0.5165929891440973 0.8762036752314588 2.5359659512631296
P 4.1761765236514155 8.689818608132132 8.057274021143447 -0.620468385073525 0.20328401433675314 -0.21989745452371806
Ni 6.10736475948301 0.9330827635370383 12.51756072248752 -0.4924855545729325 0.5650860516484784 0.5483736239898039
Ni 5.515681086011771 4.24857000448293 9.664088547541514 1.1075775058258923 -1.083940840243559 0.6570662388022168
Ni 6.259899303263721 2.0368420958848 8.284774463590477 -1.8936599014892226 0.5164387229544203 -1.8677928039144736
Ni 5.305990891946537 4.823885417276129 1.0273560412221259 0.42399907966576006 2.8002257339523067 1.3410118184937807
Ni 1.7574604247159247 3.7763902577924697 3.9673667784199576 0.8468360207026191 1.0439918106544472 0.30407382936232147
Ni 7.185308008594041 2.5221274797043383 1.6449486218676859 -1.1830033881653754 -1.1606111365131044 1.623872761223913
Ni 0.9519140752323252 1.89091551360185 7.7680732316655225 -2.618591950895477 1.4825849860842983 1.0541597523263846
Ni 6.145707479049988 5.2536786292966715 7.51428982914715 1.2208477127066586 1.1732465658889277 1.987285594666184
Ni 5.3759213217608055 3.108094669098238 3.342316116056132 0.38793318718113834 0.7539968279826951 -0.015181849946760952
Ni 7.378878085180734 6.627178809988343 2.0324646660358665 0.15344369377585831 -1.6267156299893468 -0.8126187513909618
Ni 2.7648666717472454 8.27173407893238 6.505757747229215 -0.9620378973884592 -1.6201415763162548 -0.29584167126051625
Ni 3.4489882822761695 2.648276129938359 0.5961952844576798 0.006048777297241195 0.6602526069499983 -1.1758811752982974
Ni 7.794756897051611 2.908164774213284 6.805047855388979 -1.2189638654203845 -0.3296110544014775 1.1842151490852895
Ni 0.9058936212630819 5.594351670741715 9.871896529486104 -0.665940401363395 -0.8415326062118346 0.44160830810709106
Ni 3.174891142207728 0.7383280329349616 12.975534730531125 -1.6977153582366762 -0.8779378843137461 -1.219349273784261
Ni 2.4471239000336515 4.924328270139863 12.91539400946152 0.2668781941486307 -1.1904577875608917 0.8479691058657978
Ni 0.85269171929057 2.101708566331523 0.5044392816741731 0.36461405283922366 -0.24574115505969937 -0.42014525313730866
Ni 0.717551094745828 8.513278507422145 4.882910412996877 -0.12412874686182493 0.05946550235548468 -0.6308232459452877
Ni 6.9618412717121965 3.7520906052193426 11.506608784850028 0.35468419532002143 -0.5316825364873682 -0.7118464198668902
Ni 4.672848923181281 2.1321750369366357 10.800863792107014 1.1248823156529273 0.505199402595175 0.2841390381116074
Ni 4.075191431944333 5.951650306553169 6.435811693583866 -0.8842437719271159 -0.5295796312117526 0.2599629550860362
Ni 7.983244633293016 0.7140063231885453 5.933382371825632 0.021967762520342812 -0.8893080738239008 0.8495737313487562
Ni 1.345459999148323 5.706677825714773 6.093760997857162 -0.5514810592705341 0.8642382753394664 -2.134250622696234
Ni 7.447163417487216 5.544042934665581 9.985814477131504 0.735815786198294 -0.49495715604187657 -1.0164396120677914
P 7.955948881348164 2.2151835324133713 13.147723134761018 -0.6095224275849825 -0.8906231930908984 -0.31727618698520843
P 5.016233158843069 1.2373155166112606 1.1964784983648784 0.370617064500194 -0.34977930181923633 0.361075700668662
P 0.049281239420433054 3.8043844868914665 5.726771910580842 2.2029592409165417 0.6160561149384423 -0.4794351491468775
P 4.541378979891345 4.792839945872186 12.242901124500214 -0.011366332855412683 -0.8545665565776572 0.1501591094873156
P 0.7934884280857388 9.181583286605246 6.918979588767683 -1.11475885406568 0.1426694859784898 0.9926502229576776
P 2.024195983199239 8.96806065868109 11.262388086001225 -0.40972740023809434 -1.2265725310055777 0.36714787500467094
P 4.007917053413586 4.436046786948601 4.624149441706339 -0.7396259039730037 -0.18397477248517993 0.004297341823773244
P 8.284554810906476 5.451568235652415 12.097936786401986 0.9518671275030445 0.05658740947674125 0.6042586080828819
