# total energy = -340895.692225592 ev
CRYSTAL
PRIMVEC
9.01975017592450 0.00000000000000 0.00000000000000

0.00000000000000 9.01975017592450 0.00000000000000

0.00000000000000 0.00000000000000 13.20131611279091

PRIMCOORD
 96 1
Ni 6.331846722501467 2.0333584056370473 11.5105706743386 0.7042153856841936 0.4914884807669857 -0.26928011872190394
Ni 4.376184446579359 0.3841881493720777 6.159351212413885 0.8907766879496273 -0.040850972578090936 -0.06794191525761202
Ni 2.6472967345408116 1.489602754387327 4.6644213934561325 0.4976961522395945 -0.12381867182057386 0.75090764753441
Ni 3.4282177021040448 4.3136144382403145 4.759114340774373 -0.47464672661929863 -0.34329575097742165 0.2682102826964929
Ni 5.0699565860365166 4.529303728915185 2.7745203135551155 0.07165124578839918 -0.21340721881368407 -0.9817618581799481
Ni 7.235391196388661 6.227244677423206 2.6345337877627015 0.16843091121330994 -0.5458706550622922 -0.3590370729720785
Ni 5.122803303473226 4.662110533410512 11.242346749589931 -0.15444359579528238 -0.248761687053578 0.32846845615660203
Ni 5.769690780490373 7.722953802813204 12.397316765130704 -0.7931454731576985 1.1211698997983466 0.046728000184158236
Ni 1.934492921796155 6.549105449741278 0.2705474124448097 -0.8211915806616373 -0.3458506561887915 0.8698695054833148
Ni 2.6107847850300065 1.5570975464301513 0.5089186693832226 0.5281966348212968 -0.22983836778651384 -1.1883443407623147
Ni 0.6504809455658382 8.562692562560223 4.534559537457662 0.25123071741936087 1.2998458857784323 0.30624281198918224
Ni 8.39765818998137 2.318337418679013 1.5140065909971179 1.1679804323939822 0.5370862240014428 -0.10351929814158946
Ni 6.702341988831956 0.8806433276895814 4.806928939477862 0.576580168331007 -0.36113560737232 0.30330995461310345
Ni 0.7104722072731786 7.345468229943468 2.4243817218419528 0.687234534855481 -0.5780783501430884 -0.7252210414015833
Ni 7.628977023674599 4.067212897544621 3.9174507662977094 0.2884448645758129 -0.5856641329101462 -1.1168843850491152
Ni 7.799414226727012 3.8349182464326486 12.656986358625407 -0.005529671568977574 -0.09704217505767804 -0.14669891885285705
Ni 7.915516453531132 8.7863282533139 6.685674392117278 -0.4552001878589128 0.034201071361741095 0.03325130585396208
Ni 6.865536332334671 0.71215258676771 0.4569937704346552 -0.6079237156392949 -0.25254840778951987 -0.34417146871415566
Ni 1.8133125755319104 6.4145488136735445 9.31487570345933 0.5160240040145048 -0.5229204740240221 -1.3057928473904867
Ni 0.17463409290107332 4.840349820535764 1.3585475854144784 -0.4853905953993641 0.3411252256886641 0.5759412491954276
Ni 6.3266693857872385 1.9380737626943243 7.061041225624344 0.4197212782260126 -0.2121422360583314 0.17916783801483982
Ni 3.5447889559275727 4.2999585361752555 0.41363853631568653 -0.5013808001800333 0.2339058529876681 0.026088212446619588
Ni 5.912365191894008 5.522594719015943 4.741938932113682 -0.032926061304059416 1.226918601491087 1.3038393232085417
Ni 5.390753027810549 2.943415139293707 9.305792814833495 0.47384531376392586 -0.014391749945297795 0.058480512734396056
P 0.14458930440786907 5.677030884906258 12.44723116172108 0.737749255775581 -0.40361794490624675 0.5564564009979384
P 4.134013168808707 6.15607884697848 12.649422395962421 -0.927782575750015 -0.47572787549861945 -1.6277155320087708
P 2.289311861977983 8.514391799311616 1.2962265221857348 -0.14050101757226124 -0.1537457983973094 -0.11062377039685466
P 6.19028174039374 7.747036536309709 5.820407934863967 -0.380736412322383 0.025760653903871764 -0.08630987624183846
P 4.795972648699509 1.1436592485727501 12.747125233980205 -0.8458011516802014 -1.496974679147067 -0.509590075463703
P 4.01875879853967 6.061705198823453 8.166849091755866 -0.4072606838651567 1.275027798293488 0.346077684597933
P 4.606332397102505 0.994201984888453 3.7647121174276337 0.13133529191259316 1.126003573741564 0.6833971633872618
P 0.27951575024090486 5.654337192967231 3.6692263340515883 -0.23481036707980854 -1.4101287278961006 -1.5505330719894974
Ni 1.5326089241668521 1.1412419554727267 2.6370421803414947 -0.7419357830531028 -0.5028779535508501 -0.9248456046088782
Ni 1.8524402526509498 6.467404550860628 4.813662183131473 1.19200199211956 -0.15526403481404874 0.1861401555676149
Ni 6.010572233957655 5.547074321528868 9.091442957089049 -0.01789230689938854 0.10467423768163908 0.9472190872080719
Ni 8.368758909785564 2.1302575838965767 9.969462439395059 1.4957559762486174 0.833355726827997 0.718850361988549
Ni 2.4323831423980384 5.1924267566041316 6.937159464123319 -0.8044886660846596 -0.14988194456652895 0.12835281224550152
Ni 0.4559808524677423 8.900455154786286 9.196036884391976 0.5276926986016847 1.423574054767729 -0.31602405974566217
Ni 1.5628070484164012 1.2818328045401461 11.33197059719842 -0.4179536448026286 -0.5861169041768486 -0.2175724059349672
Ni 4.17342947793969 6.799214107840366 1.5169632651694605 0.4791024483978072 0.5231896685250086 0.6439672395264135
Ni 5.554425418083045 7.750779732714595 8.091839043702073 -0.4271849335929095 0.7592999853631632 -0.5438461684330957
Ni 5.300122576060409 2.8863020799304624 4.981595503480279 -0.6969525334741933 -0.3228842772006052 -0.7493922393311481
Ni 0.7368188981133615 7.400515766471245 6.892657819731913 0.4759353635237352 -0.48295961736036824 0.6780433552745161
Ni 5.0645266963118365 4.576630359123484 7.037239006364447 0.6700004303653816 -0.618153106676787 -0.6641658259614756
Ni 8.163965477561547 7.145491344418752 9.132472899561801 -1.382319161883 -0.42915028484939644 0.300001973285793
Ni 4.473489513605684 0.43182866689336435 10.559548038436837 0.22694947627449302 -0.7199009147402505 0.32050497833515124
Ni 8.0978597270762 6.927592214902442 4.888698388461348 -1.2493694742954355 1.1617318803811088 -0.3162279482263522
Ni 7.290546969920916 6.189812713374333 7.02812996046253 -0.6749233215882957 -0.7134014230588359 -0.0374098081070259
Ni 2.4452723656813737 5.285519600206161 2.546600241374155 -0.8043403134322534 -0.3024787169610597 0.15858204344368818
Ni 2.1871812285019843 5.164772201959831 11.528102363139032 1.7006500153849677 0.5325122314775151 -0.8069353278529394
Ni 1.0041868485516103 3.2710305123498955 3.700302981987489 -0.0330139930321754 0.8576076573968261 -0.06286887161007883
Ni 3.651492602842795 2.6093777039717843 2.5714316141516367 -0.13982301766863017 0.5119079249636023 0.1802800972424121
Ni 1.1127124850422239 3.3778604357703435 8.074057507816303 -0.4793798704289099 0.30718769240095484 0.3057720430003508
Ni 3.661270012247368 2.6298074385671333 7.021397618783956 0.055087170782130934 0.17695154708981137 0.17331857832291442
Ni 4.013671659329173 6.878064765603077 5.964777157362729 0.891552132663071 0.35426664816662856 0.27889064522847457
Ni 0.6427753728219943 7.376433032974742 11.153818801651791 0.17832528750888643 0.22822397211154247 0.9315996355032602
P 0.16883800131124052 5.584993352097896 8.088433185961144 0.5147322817862748 -1.0131627410887325 -0.6976583012919663
P 8.640749482290088 1.3508970331479109 7.870096598551733 -0.9106387169808767 1.8194280394578406 0.4619843006602818
P 1.8517457318722117 3.286778996501542 10.247508872300166 -0.18483454938231392 -0.5125784686680657 0.784244828233959
P 4.012508111531027 6.183282414104119 3.8372137729026337 -0.31642798005230016 0.5055626994718647 -0.7442016962691441
P 7.179432665073188 3.950398110461016 10.484722895265694 -1.810705057762546 0.34204928016483027 -0.7815438843630281
P 6.212912294080155 7.6331712075981475 10.20068374021262 0.09506988182265562 0.5913508988822782 -0.2299908342039781
P 2.391875443471896 8.462979222184247 5.856644781988388 -0.05376870908102353 0.025315595946653176 -0.2411933877880169
P 6.872806251135488 4.0852072995392 1.6232339640667681 1.1910889933869873 -0.20285026923344418 0.6779785634748517
Ni 5.357704662443061 2.8674598214008005 0.6592932416804766 -0.05916828283004003 0.3158978185804431 -0.5837010956465044
Ni 1.6029900363291074 1.2491362094372145 6.925859520855746 -0.132182727514553 -1.255621111632102 0.1531117643577363
Ni 6.752987887177601 0.7152057722690458 9.264789029636827 -0.8762972633865296 -1.06009668663611 -1.0100715037579184
Ni 2.694686503001723 1.466241600920681 9.142188974663837 -0.3854153058552911 0.7859890646185753 0.06849033156191431
Ni 6.332216532266769 2.0187373902820536 2.64774862403451 -0.2534092131279184 0.07014380800493726 0.7733114691509069
Ni 4.013148513807526 6.925391395811376 10.354571505280243 0.548431730921249 -0.23449874937666065 0.020914381555163983
Ni 8.014643510132847 7.297266683948967 0.3474958048538084 -0.3633536980695613 -0.9215322239649292 0.2104568779361085
Ni 7.61579916837932 3.8311750500277615 8.197872523164564 0.32639897522208305 0.04175934332497324 -0.4256211886502154
Ni 3.210201315832883 8.206836351085473 12.462016336532866 0.4621717340807396 1.3128813788061517 -0.5287316813891604
Ni 0.18132313977785514 4.867300834650952 10.2820301629036 -0.5149587959747841 -1.1231357652754657 -0.5914426872651363
Ni 8.777272423939186 2.3251022314589296 5.674044445557684 -0.981490349686116 0.35072212534847985 1.0584506663922544
Ni 3.7638967319938947 2.6024775949362686 11.511349980770847 -0.5470834444234707 0.9808208344229173 -0.06818796983014708
Ni 1.3503017296232784 3.314451590646589 12.629871185053425 -1.359727135515097 0.0038355716960062976 0.10169381489707649
Ni 2.977293321695531 8.213132136845983 8.103152516595205 0.8960415358929924 -0.12677184091162683 -1.4190550838514528
Ni 5.619421739272487 8.124657405435043 3.6192993098106894 -0.5483952212563588 -1.4549975633843328 0.32828256539804107
Ni 2.962789563095389 8.216460424733702 3.400632599537618 0.6840206559038735 -0.1815949593990937 0.49427015727718093
Ni 3.440412404608642 4.263726198926021 9.146585200995744 -0.1391936116147474 -0.24640809921973691 0.3894858763802389
Ni 7.311599067292018 6.112215800913499 11.31743617144701 0.04604794339799811 -0.5571369720047308 0.029945124298864558
Ni 0.45634164248267123 -0.1049889923692729 -0.043937909993078894 1.3421382187887403 0.8528547160928732 0.7213062797282093
Ni 4.420471420911882 0.36105609756491114 1.6337555028771322 0.6817861101464 -0.6627653460695231 -0.44562488546565193
Ni 6.149566587209013 5.580122686896355 0.20166899069473318 -0.48890015121451935 -0.3553930484615879 1.2398209113750518
Ni 7.745602396000367 8.903747363672512 11.275151581697342 0.5107725258075784 0.017322807549163714 0.4059702471885072
Ni 9.08388079837614 5.041147503344443 5.798863359122486 0.4575100669390121 -2.0136972518904934 0.9278483959909439
Ni 8.055746512583623 8.881775251763342 2.4463754811520184 -0.9806755670943047 -0.0556039625175494 -0.1500215554681868
P 8.699143346206332 1.3334889149275917 3.772804637462489 -0.7718258857443159 1.438925854633451 -0.2530333178457384
P 1.7795967486368045 3.343062238830451 1.5518011490109949 0.5179055373079339 -0.6101055537819621 0.6720809670434941
P 4.6682169044131845 1.0327072992317399 8.417449326250294 0.75523841369928 0.030581215220966688 -1.484805904995017
P 8.545040911079825 1.72027385043212 12.406320279953253 0.2179984377287923 -0.16886645608883175 -0.07366570511526667
P 6.228002336454557 7.841013315448314 1.5549301004154659 0.2524455636630685 -0.05746749808884942 -1.0310414211413663
P 1.811319210699428 3.231370669958836 5.861991690009634 0.4081104334599617 0.5039830136895708 0.2593358630249985
P 6.946641927690688 3.831824472054633 5.960750740796122 0.2475470979201866 0.5053960919870134 0.8900534366303575
P 2.3137012669871764 8.447474271292677 10.084657279311635 0.6570780658767587 0.47132897509997534 2.635310292091423
