# total energy = -340858.80341755005 ev
CRYSTAL
PRIMVEC
9.41641335499115 0.00000000000000 0.00000000000000
0.00000000000000 9.41641335499115 0.00000000000000
0.00000000000000 0.00000000000000 13.78187277067964
PRIMCOORD
 96 1
Ni 1.0025184251384371 6.789441036304573 6.204502868351024 -0.5677368590077642 -0.5196356326251631 -0.17574878503096183
Ni 5.911238097463769 0.650587517095334 12.34192885932797 0.27478356503863643 -0.5273525416534466 -1.708501650218903
Ni 3.599555753225187 2.1850786695474977 5.781398943217173 -1.474632306896125 -1.0377913382706903 -0.28856699197597396
Ni 4.82002647694301 3.6063920691661115 7.040924240440483 0.14797881400654514 1.0339992182181097 -0.11903179195489179
Ni 6.855572505799216 3.7365080659590757 8.144066456411863 1.2282915705792137 0.0943592289088762 0.08970296108378746
Ni 4.83354844621459 9.16593655219795 2.395578818766487 0.4936551494010014 -1.0553288329338213 0.4693692802704432
Ni 5.699980868628181 7.181653476485534 9.441836515610468 0.1062670360900557 -0.6898660589410571 -2.1329727844250748
Ni 9.270034999480206 1.7697206858640668 3.1167150447612686 0.22958228591164975 0.25129859454281883 -0.7169644578197458
Ni 1.4429429006052572 4.782897559925015 1.4427140817659123 -0.656586728062637 1.375810671340521 1.2631858113532375
Ni 2.6355316250103016 7.4846077364956685 12.163604593814403 -0.112154090998452 0.7555685433451891 0.3059779883635698
Ni 6.277837893899121 0.17528558899271587 9.696622055835197 0.942192580527758 -2.062745929788028 0.2414461272287713
Ni 6.017502319768632 2.5110937253418246 13.40747416254821 0.05105670946649916 1.8656166221987613 1.3219599440686525
Ni 1.194528505512249 5.012403797429351 7.99977028306871 0.7693733104387653 0.8699137284576889 -1.0390578636879395
Ni 5.667946231119883 6.917739665361175 3.902171964003532 -1.0281304181421582 -1.1706170986858808 0.18794198466304407
Ni 1.6163838142635005 8.940695949846836 5.486343170550355 0.13263627011220383 0.7385681521324506 -0.7275612594989856
Ni 5.697240692403927 7.958253317526649 11.492731297887758 -0.1973187978922537 0.40006082368260776 0.17524176348755627
Ni 8.446616752298215 0.9852769726758582 5.131528956803242 0.44483221436102743 0.16898498394456704 1.5163487127983046
Ni 7.282484428407598 7.310027436847271 13.322880873447813 -2.0699676443474484 0.5280922480329485 0.22682092111642874
Ni 3.912811569212417 1.740934710889679 1.4925080744595867 1.9755816759656941 -0.5004855420592735 0.3410704611913287
Ni 6.813255145140106 0.8108652268226985 3.3961979533742293 0.8142390606032042 1.732803460189061 -2.367696505328348
Ni 2.863710148261648 0.8197006472736202 3.443166080484059 -0.655743149115419 -2.220538644561201 0.29157955355005266
Ni 3.0670105079924412 4.92275954431971 12.774032050501408 1.4552315337720099 1.5242165455821557 -0.7982280298869285
Ni 3.5969944888506262 0.9305619624742952 7.969809139734228 1.6589325810415234 -0.30845447492852035 0.5513316781768633
Ni 8.021267954271368 4.657753429270905 11.819265198046196 1.4330228588854548 0.9202428157295441 -2.1753124257335505
P 2.8072399186504597 4.1696724868935915 6.021961933032575 -0.4803260363922632 1.7912081253801988 -0.23905654395067216
P 4.793293280033528 1.6800952655807095 4.187291537523156 2.2985541420047317 0.17015432166231986 -1.904522041014707
P 0.3731121877641984 0.141192523571627 8.994119028165349 -0.0464678045442361 -1.3973315761314322 0.14274790462490897
P 2.8263646537413925 3.3705297527910814 1.2985374968696586 0.05594000570072947 0.2905007186635771 0.7270339262406059
P 2.1839957820361944 6.666829920785598 0.6941139452018471 0.6185901942142057 0.49368240309451106 -0.953073746216636
P 1.445278171064416 0.013268667758066706 1.7526543786859248 -0.9441620455493029 0.6344510725058622 0.6998612224805559
P 2.576773207005663 4.391890420626198 9.593175224342351 -0.9171819174160333 -0.040773325262620105 0.00041086228517348596
P 9.275844926388677 5.549977407279801 3.8574355268083016 1.2336204389912948 2.6016769203076935 0.20989534900568368
Ni 0.6732773062017406 8.677384789163549 10.933710865465613 2.6389124076203845 0.06330235960307162 0.5301311328398483
Ni 0.8013433498537417 8.2879031087937 13.683800689476048 0.33182708821618984 -0.020743660305254596 0.11289379737795396
Ni 6.1325238062953416 1.6901331619898354 6.281639299884453 -0.23758638716304886 1.1241734625113609 -0.2080626666723191
Ni 8.395090139586456 1.6653774118401246 9.06324868360433 -1.2915095979985953 0.37346584680289874 -0.1700018552448556
Ni 0.47525202111296677 1.1017674196526825 12.715155927332496 1.6301580800119924 1.438498280177729 -1.5323294044972773
Ni 7.311524646536813 3.089270908659583 4.310556152114169 1.1949577323137741 0.0010929759538626338 2.063169390478692
Ni 2.3761094429545655 2.785337341682705 7.837075380087852 -0.23971834590438712 2.1280149261991674 0.5458171761165375
Ni 2.6759468702147746 5.412620188780816 3.972541761053286 -0.6920301564719115 0.5526316279352096 0.3092983109860544
Ni 8.631395027379149 4.190350930152916 2.5042075024112482 -0.5495653303050599 -0.8979035288023955 -1.5065075583381666
Ni 0.5322844105887191 3.9876626372763386 4.994840303637323 2.7441332618341128 -2.2926393191821934 -0.31318067675959615
Ni 2.145284907610382 1.1013625138875864 9.667487673574563 -2.717827276949732 -0.7202616405137788 0.031779606404442044
Ni 0.8787377911072553 2.4475800187005925 1.0003959656162824 0.6705534746553742 -1.0305904496468767 0.3124808224790941
Ni 6.862418238153282 7.642191410423173 1.9890411892729516 -0.7207678907262361 0.5084981279511049 -0.9330885613439609
Ni 4.767341645414811 3.995930248014812 9.553373929274722 0.5011393735931885 -0.34151346226601825 0.7183325418118661
Ni 8.234719207368988 4.650512207564884 6.137288511345076 -0.5653693872168521 0.9070242601567411 1.2488431694783202
Ni 6.091430579344661 5.6546785050031305 11.247813216994288 -1.2463345441238536 -0.7240491325806692 0.19967881348399802
Ni 5.868148590927035 8.987250696419743 4.879196392201943 1.383181252772979 -1.0878280911131073 0.2555375723248308
Ni 8.102371520661425 7.321590792185364 7.68657755704953 0.8624300184861341 -0.9024448683161749 0.2684753634324215
Ni 8.135941033511832 0.04037663791059132 13.493031692354322 -2.076618316894746 0.4097070885231202 1.776348177549231
Ni 3.9942729593018607 5.522528562971544 8.178838445220475 -0.6072793971870767 1.5340492154018612 -1.428640670657359
Ni 6.253590630059065 3.1604495755982147 2.431370605118351 -1.081801425303053 0.4869330001858194 -2.093970949240581
Ni 6.800467656093583 9.166595701117874 7.182243885589524 1.6655565141159445 3.201923836128021 1.2476059546371094
Ni 3.615507157087344 6.095093564056809 10.434710650409107 -0.09597002503942181 0.3849903025027305 0.9500928092114412
Ni 1.2454148021303686 7.627445307443162 8.76648383195228 0.5380578438860927 -0.5387237596048657 -1.1456840828896269
P 5.560344878148889 1.8480746596167268 8.63570774459808 -1.172774511348516 0.35645517117751513 -3.847426281352038
P 8.686641123281907 2.7496020538096917 11.389091429925505 1.415034392727834 -0.9595647532576185 -0.7083224658740317
P 1.4339313932285842 1.7586564004224883 4.850654302327928 -1.146128883736529 -0.7737369867240997 0.10370596023109879
P 3.470258984375557 7.587161892022674 7.715933225018994 -0.4670951395242859 0.843858940352166 0.38713923052493326
P 9.002175711249446 6.597289709733634 12.54736109499406 1.6783359252687997 -1.2549780787314644 -1.2448929265813204
P 8.203550879869733 8.373055732834716 5.729276271553539 0.4849409094564552 -0.6220840663000771 -0.22441488277809737
P 8.588004195621878 2.585878878513754 6.826919302250126 -1.023480578074973 0.21533348930211946 -0.0007103958034632927
P 7.853458055671903 5.696110722826915 9.097358698569074 -0.5029206338633274 -1.3351232209234878 -0.08214391778960692
Ni 8.492437018646063 3.1554023781542266 13.601564328585038 -0.8731769725899929 -1.1303497665254016 0.1837577713783674
Ni 4.6726407784480415 7.004248252894606 13.229081157218708 0.0800330420941912 -1.1158551724536525 1.3792299814347149
Ni 3.9348742252035818 6.801880118064848 2.008777049576785 -0.046044086743256184 -0.2784934097900559 0.1007543338019426
Ni 9.223423754428449 6.327424725503676 0.8737141346961215 -0.822716501946596 0.12327976859796833 0.8373242245574418
Ni 2.734950114961099 3.1107214977965327 3.5739016772617513 0.10976399349972064 0.6964871638020005 -0.175365176439298
Ni 3.8593357589803103 6.320569576736467 5.849178285011626 -0.07931647564314083 -0.23649109721634107 -0.16562223811992122
Ni 5.117651047114903 4.385863916215467 4.375716789413896 0.14176291500382038 -0.10313517532929334 0.5491606386674736
Ni 1.3992224943880236 7.488298970447243 3.2318495282456783 0.21501904338549419 -0.0806015130031515 -0.15098597626398513
Ni 4.011307250675321 1.896493855991703 10.484710862550584 -0.6207033839024665 -0.47438344565558305 1.0955401150453843
Ni 4.573872021004027 4.3544695948008085 0.6429159653087348 1.397369371347903 0.630567935401372 0.4200388094664314
Ni 3.162888426601933 9.21304686714622 0.4400675934087469 0.11982009218414202 -0.7877304727897143 -1.2484096814853274
Ni 4.108550549190369 9.223875742259255 6.141739649837191 -1.1988429263007934 -1.1291740010497455 0.11778609247324875
Ni 8.77341337038331 8.845496012983551 2.2801006362024028 0.8518378447925846 0.7099242631435129 -0.28840038449112265
Ni 0.8125601811882169 1.1031422159713808 7.197762134447159 -0.2227999728824937 0.5682292252631505 -1.1913779853823159
Ni 9.130935744549994 3.9526994952809504 9.317207462755213 -0.20598727220052912 -0.28912877801671494 1.2412059646480367
Ni 3.5384526483482484 8.673552309014848 9.759977566735648 0.7890867297072927 -1.1161691041496455 0.24805360524295988
Ni 5.6768353251257135 7.49025758438073 6.978161963567964 -1.6244582014137379 -3.4814176621581328 -0.3721250165042881
Ni 6.155961258605204 2.302473092185932 10.463377036936594 4.796324041814113 2.0853011893807247 3.2071848274166443
Ni 2.9445406386705937 2.575181833184704 13.107980434367674 0.3248689117308018 -1.2121499278223447 -1.3321070598049831
Ni 0.9601257331741931 4.347379035705057 12.784767703124338 -1.5510046123092773 0.22685434545752545 0.008163766757714973
Ni 8.07988512607888 7.303379449169182 10.426276369158023 -0.6521713726037608 0.22586781317454005 0.9211072206123685
Ni 7.115277180249205 5.001574922316316 13.744661792535243 -1.8217759708647272 0.40323485053521524 2.520359869294756
Ni 0.9078684068026318 6.305371485925653 10.862968178455445 0.5378981783797768 -1.72419180726065 -0.22492987474130294
Ni 1.6678350956701262 2.922138991806325 10.95289492395934 -0.7363942844095833 0.9613832945235958 0.16906520236319916
P 4.9171944441529245 3.577577844952298 11.780951696254967 -0.6270416674156685 1.0457123928899796 0.9317878402546662
P 6.116308742865215 5.638538772878139 1.9233701823809402 -0.6265099632819147 -1.0705896157476336 0.49579225034866226
P 3.608265935381324 8.020684136656579 4.314966800029773 -0.5915997816682909 -0.7356255245643589 -1.0190181714282451
P 8.253928690178196 9.387278759508373 11.360342178962371 -2.8030673171661595 1.1122281172240265 -0.06032605058356706
P 6.278544124884752 5.384907684904591 6.192498824877896 -2.1143325436160683 -0.14031229860022287 -0.16046563361964625
P 7.5487052607516905 1.7149077449658297 1.224124292016829 0.41889106901523343 -0.06659671408362723 0.9439190763005615
P 3.0438272988374058 0.32226826500521666 11.724693335939467 -0.8928934771823138 -0.2841359527878139 0.5106467988629915
P 5.465163774111888 8.93235300780323 0.22665400596369414 -0.1902320662488014 -1.0705955292849045 1.4706720366967962
