# total energy = -340875.40204741654 ev
CRYSTAL
PRIMVEC
9.15152430020477 0.00000000000000 0.00000000000000
0.00000000000000 9.15152430020477 0.00000000000000
0.00000000000000 0.00000000000000 13.39418086360201
PRIMCOORD
 96 1
Ni 7.1425818371669525 7.986068698265047 1.3559200690789237 -0.27132440284544246 -0.446302885369283 1.37242632824932
Ni 1.949164898952587 7.5185081603362125 11.764122755201415 -1.2499271465711184 1.915814840319707 0.023695286734410806
Ni 8.140400007333804 0.9375645328975978 1.9785083470905176 -0.4105779211638478 1.3513666793655434 1.1007442849541431
Ni 7.2334747784425035 7.186500003214211 6.6787807455003 -0.6667253591585356 1.2624008535580966 -0.17696517393656622
Ni 6.382648394700129 3.601326221973162 5.636351638881987 1.313732156842221 -1.0378954679487222 0.008173794060043987
Ni 7.642474711133495 6.209785248530789 13.164082705603368 1.268955366847163 -0.9888676159867937 0.7050268258418955
Ni 1.4798838744188585 4.403045525280116 2.7416411625204837 0.5846817143922188 0.7766137940512626 0.8968684026696618
Ni 2.5131092928534415 7.614068379103762 5.34898004248003 -0.9358576394486656 -0.8441296775150494 -0.29784790305726766
Ni 7.121679755222393 9.094537951090246 9.757701343251396 -0.16263127381239734 0.0616087739507326 0.1432631536984307
Ni 8.03924820710035 6.54614953131199 10.597047139515904 -0.3278511342875773 -0.3802602440169129 0.014087074220685418
Ni 7.9387553166304725 4.3924938175384005 3.972285097647016 -0.41276978660884395 -0.247184058153813 0.45162609735440934
Ni 3.871158921682146 9.114717062599768 1.328800441393063 -0.06902409257819725 -0.0956406667244611 -0.5540277369517878
Ni 7.511992274896403 4.167531042424064 11.901653695603875 1.680557358400151 0.22214048492162392 0.17803758106513853
Ni 8.570613173802155 3.6450339029570555 1.9080141539123487 0.08748846993097191 -1.083258983685186 -1.525558918542663
Ni 3.68992213060069 5.7350224608250855 4.1638356568333394 -0.10345939143793151 -0.04127391904812247 0.1392067242408699
Ni 7.383825174356321 9.08910194554074 4.764511524596224 0.35339041620926237 -1.8856887103582878 0.3729536830531706
Ni 0.6368509289356721 3.792336841214332 7.575347363816713 -0.9072916548855149 0.3773379281637953 1.709521349732669
Ni 4.947680202498387 8.024843707546614 5.063910969640795 0.8620785486839863 -0.5849735346010247 -1.8798271093711882
Ni 5.594455044595478 0.26341382042881134 3.2164789927270383 -0.2921539379962839 0.4673885023949886 -1.3209438440993122
Ni 1.7241655177402728 2.51695293314097 1.0991932675979623 -0.846854275535064 0.5195602993025374 -0.5269010559383248
Ni 0.41175454156372066 7.458300280689429 0.5929922477976255 0.006279148140492412 0.7983056772023993 0.14661124423505717
Ni 3.204442907712379 0.5554041912429466 4.416155084117935 -0.4605645374946197 0.935432121875473 -0.5433013516732191
Ni 8.246502782318574 0.4286720497435418 6.920197046502608 -0.14124920859219545 -0.7086155716344184 0.01698342193187398
Ni 5.452487445118271 3.552008656474376 11.901546622767293 -2.386937355835831 -1.3114929830990574 -1.0749782317336325
P 7.203393717430347 1.8507951621653436 3.9288345745014075 -0.6922705546174917 1.9731866933709565 -0.921446349119342
P 3.4855411340736175 9.112612211966121 10.45446638789759 0.23397295878017768 -1.0761822793440627 0.202927916548915
P 1.4808356329662467 2.6477007635883925 9.77444405731338 0.45362307317978007 -0.009843725563299176 -0.2959609704472
P 7.085174324015369 5.294339950335467 1.9931745802447862 -0.6812094117073236 1.1364944459705588 0.031153799894985058
P 5.6349779950554195 8.72227223771863 6.949744573636757 1.2964456018476316 0.28412129749979453 1.6151605781618956
P 7.8499123168416025 2.653155072186885 7.151447834096852 -0.8848896330412308 -0.06040832588472822 2.0604496775546837
P 3.645775176441079 2.1800487104146167 5.914655904815172 -0.259846741223146 0.36038998745554707 0.804593309983324
P 5.913623612852237 5.892245651633983 10.648079700704887 0.1445196518133511 -1.4953145178358247 0.39934477145218966
Ni 4.432751373788013 6.8236329054980525 6.85907950532111 -0.32870962563313066 -1.2931121665990246 0.8133682279624767
Ni 4.733497923238118 0.8678829950945066 8.610971396821203 -0.2961597167215673 -2.1988519036163874 1.6508284638771504
Ni 1.0770246146634177 5.2736849595522495 0.5071747420065106 0.34323173050870565 -1.441461476571111 -0.9312738767327253
Ni 8.756041363101914 2.43095605746977 5.312520368895476 0.7752053437395101 1.0955439717001263 -1.2600974022359008
Ni 5.715163652672856 1.3199792869331854 5.508973399753297 -1.6666425480912717 0.13622450168409442 1.149925117554168
Ni 3.6187964822324274 2.068125565851589 11.137998328125294 -0.26428163706604807 -0.25502643701636724 -1.1109165975014546
Ni 3.410297299683003 6.747043797006804 13.410655890658107 -0.7776987995853252 0.25538870545179243 0.7826003506520005
Ni 0.10048465409783319 8.089380258279112 8.933181931819805 -0.5770972171767416 -0.9494443769941647 0.19016161802218218
Ni 8.409290100019895 5.172093886143078 6.127262291557555 0.029234728495401263 -1.0067660935337692 0.2485729680815396
Ni 5.5305133429550954 0.8493136367434977 12.073675816672205 -0.6710597248678314 2.3714683136659542 -0.8934622052015903
Ni 0.03869630617091629 0.5190460995802767 13.41829100754355 0.6055220481763377 1.1836857589443808 -0.5602063549586739
Ni 3.672781325223213 4.657329784873597 1.9433353778498355 -0.03874318220646876 -1.331752761789358 -0.3127178781905646
Ni 7.0029021188132745 6.947169334644113 3.7222023029487823 -0.9624567300934328 -0.7429251435495657 0.5056686289221098
Ni 5.473984376154946 2.763275366424572 7.92851110011176 2.263528003638534 0.8405756416152038 -0.4484309874558793
Ni 4.996869646654257 6.531104425043664 1.905844327454794 1.0398178817824157 0.8600373498842415 0.4678443589854846
Ni 3.887485241379647 6.498991725593814 11.100561271724768 -1.547654722000438 -1.872182191231421 -1.4066754792401774
Ni 4.721125062122074 4.216857759447344 9.742337763930676 -0.24352486413467092 0.670005315461388 -0.8765931973603935
Ni 1.9571541798359493 0.5942212975371851 8.92802504776737 0.5167742519169681 0.7277569204495595 -0.09993029523875048
Ni 1.671223948541817 0.3253723867113188 2.2066110102587855 -1.2607370927024288 -0.7434262515557004 0.7936033866307235
Ni 0.04473173657478519 7.233255141854645 5.500173293799756 0.08011248918187494 1.4607666046576262 -1.44308332844525
Ni 1.3276116583612776 6.1175195785811205 7.103336439526389 0.6507145855525761 -0.19638214501059728 0.8229679558357698
Ni 8.709945134225057 1.4856584863746454 9.005658345203399 0.9492921676870166 1.5692095653530782 0.2664580758920766
Ni 6.261930635098257 5.249195480005997 7.453245893711329 0.5070724512481718 -0.7635263647396849 1.1425198262290324
Ni 7.926464819234876 1.382365229409568 11.509646313593556 -0.06601487343822823 1.718501698854408 -0.3427565906445
P 1.2291138002311168 8.480360839241191 7.151046082171559 0.45511431301332583 0.4850890049985452 -1.3969050301169748
P 1.2354649582300326 5.608548392316415 4.608268462060646 0.4773456136077004 0.02288898878303155 0.8362333054861082
P 5.716673654214385 5.5825306081796455 5.248094551609356 -0.2248170033125225 1.1791387630036465 -0.23972914453766456
P 2.1324150254227474 0.4810498850331602 -0.06694980774159782 1.366423573698666 0.21941871511508662 0.4830318653592004
P 3.3862104872144925 4.372442827371795 13.281656916541513 0.17480621861203444 0.08570103901324594 -1.4909978927383418
P 9.041303533107977 8.3935769324635 11.132895438067376 -0.1585481048819592 0.9581372767824723 -0.11007895363697817
P 1.0935156618018131 2.3313691679248096 3.1831537162817187 -0.9106919388163154 -1.184086079706593 1.0690839777363845
P 8.066611265337754 2.517904691688358 0.08209466562690891 -0.6963318691710588 0.19013076478424676 -0.2991239415562139
Ni 4.362028392497491 4.270531450605328 6.6288610096898015 -1.2384628546852607 0.7415367478424714 -0.97645535836537
Ni 2.4622176651416674 4.238848872806702 11.2119344096657 1.344253722469846 0.6801002378035449 -0.13040789500231734
Ni -0.12578587386671322 6.080318631512543 2.808425327668738 0.7464560395209596 1.9146264764385603 -1.0227807237944706
Ni 1.274395543427998 1.7131745368228408 6.878715931428132 1.2181292853342311 -1.300875612594527 -0.45182175830498317
Ni 2.2242780282946746 3.8709758911922636 5.769811066037015 -1.8394178523162064 1.38140333493695 0.6860315156863153
Ni 0.1844617883131816 4.296073355468404 10.285297712166525 -0.37752664713583367 -0.7179016249220347 -1.3302268120631349
Ni 5.677770523589902 3.895492825311998 3.2632377919772706 0.1273102299136001 0.6143190776426776 0.23693589806324358
Ni 5.951144863278108 1.2365722926938203 0.8500750435814081 2.177769629024791 -0.5357392230552451 0.25858587223285145
Ni 7.380494019440463 3.79815721079259 9.239493523314781 -1.4519734318460285 -1.2096204765322716 -0.3863992670351152
Ni 1.6206800787608193 6.095729798760633 9.669567586610821 -0.3483731655003291 -0.06336997961621343 0.0834153283028628
Ni 5.41427983035534 5.784303420225896 12.91578079757169 -0.13891644669396075 0.3024658614452533 -1.0464343586576688
Ni 0.7867492395394797 3.012215135713491 12.219229898598655 -1.0417464662636962 -0.21905824645187433 1.3070717141029102
Ni 5.4690791590261005 8.011702118373064 11.179694504025383 0.07704439177951249 -0.5354620581344585 -1.1183864235159384
Ni 6.068430801194687 3.877171473274779 0.6561798638196925 0.7567036853908968 -1.0633087658155043 1.9778614731388064
Ni 0.49600530636144313 0.3365729375396663 4.794018785022599 2.335247126550391 -0.006127453053976544 -0.5285103094069736
Ni 2.96951412242395 2.9770458270826063 3.8983627433933523 2.4411637212795636 -0.5031450911693077 -1.6232189296899981
Ni 3.0809705392377777 3.036814433553672 8.18184909207255 -1.097419591456284 -0.44804866441579605 0.5393264261858711
Ni 3.875222198557533 2.177806586913558 0.19088615850805038 -0.23035798773540972 0.6538294770324741 -0.5329032962683469
Ni 7.3975250065240115 8.487636301214014 12.531006780521519 -0.07512737726245772 -0.6199796183625644 -0.5902584371490479
Ni 3.4793180974176194 0.05127690689297631 6.841922227199542 -1.0123572144683015 1.1391604228384962 -0.37435776248954883
Ni 6.071935835075933 7.23853557148775 8.854504445438998 -0.15547949325896449 -0.23103033121208597 -0.22105033718123862
Ni 2.225705666115757 6.820905751198808 2.0326606629795445 0.38984094572681244 0.32273592454819905 1.0400058294235057
Ni 1.2739379672032924 0.9201583333097909 11.21173307612683 0.9450709305168175 -0.7177895248242026 0.35007369313120357
Ni 3.010979679906785 7.613427772389174 8.696238895990222 0.6629250115758389 1.0567331694805155 0.17255830311812217
P -0.3443645454939559 8.3654268431196 3.079522768062809 0.32257703037283153 -1.4841435888206695 -0.07459773001123282
P 3.203353876297579 5.502308344464233 8.222245751494473 0.6980611931573397 -1.3971060903841876 0.18591364137910563
P 3.726134713023904 8.02239109898219 3.1965350753970134 -0.45377836781072173 -1.204026784494578 0.2630927589642694
P 0.7751707307495254 5.656465774567602 11.718904157523543 -0.32745698417295216 0.4380509297731359 1.9681717566548684
P 5.281582725190671 8.153212141625565 -0.04699216312483163 0.3090239742787452 -0.7418473371043546 0.6836799847350032
P 4.767111472705002 2.2732203812892027 2.213308095883579 -1.2020123251677106 0.17229733614725165 0.7445390250039049
P 8.26557455936431 5.706991341299611 8.547536689637795 0.7353961821623721 0.5077051997361643 -1.4349385878509289
P 6.107407144015123 1.919532262640642 10.122371291292895 0.038098606643934385 0.8780628399273847 0.07049862024119471
