# total energy = -381174.7698978526 ev
CRYSTAL
PRIMVEC
9.15224774107073 0.00000000000000 0.00000000000000
0.00000000000000 9.15224774107073 0.00000000000000
0.00000000000000 0.00000000000000 13.39523969243595
PRIMCOORD
 96 1
Ni 8.491620322931032 5.934976486823636 11.136641925460669 -0.27349569946514835 -0.45507986023096464 0.2513500166060445
Ni 2.467015872624834 5.1094528803533406 7.696677122300039 1.1431479467313346 -0.6452350504952437 -0.30395735838911525
Ni 5.454758040593673 8.262182620843383 0.27444662670875997 -0.5536911795479755 -0.9881397366818336 -1.6297996682313092
Ni 6.457341034538047 3.0221820767388667 7.560742445447072 0.2622697488423419 0.5388551429764074 1.9341221232693269
Ni 3.2495513708057806 5.121680283520164 12.553335763977607 1.8061251517013475 1.155855881216306 -1.296639977246625
Ni 1.7599406582092023 6.758276097059246 11.166607300242479 -0.4635673288766855 -0.09562652565707402 -0.18910540884352595
Ni 5.739209904684149 7.46975354270485 2.947274588745466 -1.494015596518743 0.06332164287678127 -1.6217785976990458
Ni 1.2672660026154325 0.8805093965046954 13.57728101969719 1.3754460889122506 -2.402685362698707 0.03718432235978112
Ni 2.363275142912301 5.717006551328824 5.511846101965962 1.9134450545359498 0.6936869753490441 -0.09932480044426766
Ni 9.399816184495576 7.336057505683175 13.026776970652904 -0.4283105625569204 -0.3780269838110199 0.16965218521492073
Ni 7.6983400857397175 0.9376111862488036 6.520534560470655 -0.43108195465447047 0.6540071402609188 -0.46730391310098235
Ni 8.77901921083866 4.244629521489079 7.82977185663604 0.9187433483658822 0.24909361647170003 -0.880714932838251
Ni 5.237291478732226 2.9364255141092737 2.976623102020206 0.17923597224861387 0.4583994115225009 0.0579359530848357
Ni 1.5307043055748997 8.003851272200599 8.987321626898506 2.565973810479129 -0.8144203233760748 0.9114172470181142
Ni 6.084167279505065 5.104538123242125 1.9144745332026019 0.6003829271775595 0.4717740330571939 1.055460216305363
Ni 1.9152085434825263 2.9657218595711017 6.280304527683667 -2.2641386406393393 1.9969084624679283 0.008679015831236666
Ni 6.939664497780261 4.576160548670976 9.624827859508768 -1.2609808332821186 1.0842655705728295 0.2274950643653179
Ni 6.315133406988567 1.9882251770640518 13.07660729945686 -0.209478058962607 -0.4187167482208982 0.44302472883864347
Ni 8.914875178359864 2.360749122497598 13.500526608081737 -1.8704173860215145 0.9012503337874413 -3.143350763679819
Ni 8.113998575428683 8.750976723336304 3.4022035436351836 -0.589964560057713 -0.3849424799839306 -1.1191886077022597
Ni 8.626011930791538 8.116863229014921 9.92012605256107 -0.3578674781440095 -0.4269257663942519 2.1646960836702847
Ni 3.0458131807633713 2.1064081539302135 2.7253289167718604 -1.0349183875982693 0.23675797772448257 0.6676568698338695
Ni 7.3428393213617795 0.6672592752412688 9.247229907850905 -0.8969478497573456 0.7373646187426527 -1.5178666921047277
Ni 4.736279125320361 6.878591547681299 6.618052676850013 -0.4497052261826126 -0.14531797934493038 0.7633474159596596
P 7.596045411192123 3.902335450801055 12.008805387124177 -0.3576242517849519 0.013817879719698781 -0.5946676219603371
Ni 6.842229666856605 8.179299864047909 7.519779729613426 -1.0804724220789845 -1.562836829057515 -0.010337377370266066
P 5.30961254147492 5.47394115214881 8.248293169461668 0.3295889429142904 -0.2841876319613557 0.28552794803933407
Ni 0.7173778998534261 8.220878526163837 1.920636741699774 1.2704682039472637 1.2119830632271773 -2.0822796289455816
P 4.431005897304344 2.1154597270828996 1.0397475269080854 0.38950387410236786 -0.33766143550977973 -1.0050311131205336
P 4.612403450273237 6.2658760089018575 0.6730883419156325 0.5278104551264716 -0.5401008424580505 -0.7336511744468075
P 2.094409556960374 9.013362517789645 11.142589056132676 0.006456040037988881 -0.689586065806793 0.4542234257679403
Ni 0.8165507426493714 2.8334078119792094 4.017219042306708 0.05490950755368607 -1.0042713521363738 -0.03789394683229603
Ni 7.784755610216625 1.7096582083600045 4.036843292209629 -0.17250765238584484 -0.11032397976824872 -0.5549402214637281
Ni 0.5795752492082827 6.930905796559714 3.7647323191596818 0.3330447626733748 -0.20443741121490597 0.1544284262866308
Ni 7.14069362245038 6.388415455758594 4.225769484284084 1.0664642807253504 -2.0054686933331136 0.27605548977252453
Ni 3.3923996557068143 4.443562781394824 1.5015122957388962 0.6705863847758387 -0.04059386226196234 0.4183367391736602
Ni 4.795759584288313 4.608037828034783 5.978188825186029 0.14473665292016363 0.137797245487853 -0.27658976500943977
Ni 1.6841691980159899 3.1323293799669516 8.808160883311327 0.6983219030178941 0.8961713766026372 0.1793465296845492
Ni 3.3766577893543173 1.1726683685343786 9.893577211912627 -0.6241844004725314 0.2163004812010791 1.316986659223777
Ni 6.367008347968773 2.571873176578649 10.247545889995559 -0.5692417256880647 0.23497003258612437 0.8509724114684957
Ni 8.005004455433397 6.89499237588111 1.7182338646229636 -0.771044270383285 0.33793294400361157 0.5320895421177998
Ni 8.22895996104131 4.518107840372203 0.6188978822219484 -0.41928907578460045 0.9225956322324369 -0.24700459515315523
Ni 3.1129266144627104 1.3254376901366378 5.248067335385383 0.6928637081168003 -1.1355598499714314 0.23599410297526455
Ni 6.247333554698276 0.27765906571441495 1.960969782879321 0.27433953552268237 2.356731264566096 0.560772511874789
Ni 0.7327472697172336 0.6823714669396662 5.570785663084246 -0.1619275628771534 1.4049222439944966 1.2493735880604935
Ni 7.303704309429642 5.392733256715258 6.496129176275557 -1.3672982629941357 0.607405895462612 -0.15436980513455348
Ni 4.257396907280785 3.4550284879452673 9.36532227746306 0.15624876732482124 1.2491511876370422 -0.009180895168319672
Ni 3.8514123436003023 8.261038589858464 8.586040403403226 1.0764738424425526 0.79643545676288 -0.24645257930442718
Ni 4.354923260683233 5.489774540980101 3.6740728973411163 0.008505723478165996 -0.2491008155605516 0.8829795605027116
Ni 3.5994601117294303 0.5854638054938622 12.756139509511533 0.8612133724702135 1.1593260991530938 -0.4511591850203197
Ni 5.983007483694511 7.553963375442831 9.75201573306343 0.4587830201141647 0.2052185123553046 0.12456891972303707
Ni 8.297510297657709 3.075191896456114 5.804800404336363 0.4794647168332323 0.8838686479758843 0.23304607609053413
Ni 3.508514224552241 6.075747211456055 9.586705086192085 0.420247840153444 -0.7824481413448525 -0.19681974676864814
Ni 8.452000241861287 8.046583117549325 5.465110148170016 -0.38492679625464676 -1.6289946558315105 0.6750495627535149
Ni 6.021016769137489 2.469514436295899 5.460047124643156 -1.0663562943925766 0.5101462050774892 -1.888525922696767
Ni 2.451502812469321 7.797577909495607 6.687693961413631 -0.5474112600765347 1.0618928593045842 -0.3774767677345047
P 9.293924676531393 1.9894332737841274 7.588684258222755 0.13520325950843165 -0.01987385610579158 0.09729902826349049
Ni 5.697832592021567 0.7147219175188362 11.153586397184515 -0.7545444729560489 -2.698666387750565 0.6332778781333674
P 0.2677874511517384 1.3302426202733013 2.2280433586964694 -0.2213084759386318 -0.41253735888306375 0.7585631071971387
Ni 4.943010100419319 0.7232371689457917 3.866763408968351 -0.08019682136556512 -0.9892530243506705 0.2869932197309509
P 3.5706396831573293 8.081315898251493 4.725546284232236 0.5436332810913412 0.0882546586730351 -0.10455956648064574
P 1.1391711412959251 5.980865857690741 1.6040668941262648 -0.5492025476490026 -0.31390469940981425 -0.8102654206674367
P 0.7270316909165739 6.393952565725606 7.218694570227004 -0.6390016679910221 0.2416916675806741 -1.1475370769379656
Ni 7.127477776512586 6.342727434344834 13.084068211928116 -1.7495606250427416 0.8032473374783908 -0.9568231859567391
Ni 3.3533927752449864 -0.024644257864749757 1.760884254965564 0.5608234197173826 0.4850008161601131 -0.4595440666499053
Ni 0.8868372606884842 1.0511082122007336 9.556646358481908 -0.6557182094147546 -1.225486754140567 0.2682748173858412
Ni 4.125320818133756 7.7364225891657314 11.170745946733525 -0.7480717207475117 1.2823253603961655 0.5123180159178273
Ni 4.077774890400486 2.776242871724734 7.1176949387543385 -0.047389545027557094 -0.8946081458805755 -0.12824611146430817
Ni 2.616417167007489 2.8896117662063525 -0.13037194059189192 -0.35583604953627745 -0.9231903283936425 0.7356990581147718
Ni 0.8356606362214729 5.757148310527692 9.258548492803307 0.7188267078394652 -1.0405732718912013 1.0105713262124725
Ni 8.24979047721473 1.1013449008105347 11.425670828715612 -0.39848602299632013 -0.020648529488287017 -0.012192685411449971
Ni 4.281860865862311 2.8188191288595115 11.856005863103917 0.8082638168563757 0.0012986642067655055 -1.8384097227666663
Ni 3.1690207417153013 6.850484994443788 2.1223147607445396 -0.9492610573387652 0.23314274956939848 0.6594715058095997
Ni 1.0752518421064825 3.2361890889019165 1.617341314450487 0.6277348368279512 1.4583603092089785 1.3082099414724113
Ni -0.08912733552356095 8.6259844740479 7.617698714449899 1.0563973834076517 -0.1434215336531659 -0.06835689130784357
Ni 7.851475497257152 9.325774499151564 0.2309725340570172 0.4737234434740809 -0.9848952616026071 0.5694224742403032
Ni 5.420748287473976 0.6027221993199694 6.643743951872161 -2.283044733515223 0.30967934847455697 0.6304342380369853
Ni 1.1322794986427678 4.6611849314702205 12.918610213865913 -1.6184456766710709 0.5918005848251873 0.04309168898315159
Ni 8.516679177624717 4.9394041147548515 2.9121921921743072 0.6831588221242105 -1.2862882016986557 0.697975832532385
Ni 1.7895481800989286 -0.023221083319509443 3.7727158249848465 1.035713629806055 -0.3931903218150196 -0.9176040925551164
Ni 5.311122662375015 5.746998467629482 11.19519251604408 0.692809200729781 -1.0134044247858933 0.3710713784287932
Ni 0.24704205088359557 5.159213652073416 5.172156761024405 -1.6134160846669634 -0.399759233281789 1.4187414092657762
Ni 1.0204481818048812 2.4829682406785567 11.391740700152464 1.1841148760619993 0.3927635186902461 0.9027402880694065
Ni 8.580552715574763 2.9591505455937215 9.671296567666637 -0.21590170310076368 -0.8402822787445013 0.6905414877415269
Ni 5.956960186229855 8.065473357172323 5.155278185485291 0.244848725152417 0.8334909668542806 -0.19773891614880784
Ni 2.5699878135155014 7.72187051503755 -0.3153269723114924 0.548783457833713 -0.4139977454786741 1.627155545740243
Ni 7.790228654448482 6.361507846993279 8.748859808401809 0.3158273703538238 0.7850495835234416 -1.7514151617529772
Ni 2.360529468548493 1.1599650484778286 7.625736218537552 0.04043522519691101 -2.150004543096381 0.01212532250862428
P 6.862483591413627 3.9332151351460123 4.009288619519244 0.5462146686652721 0.7043742798595611 0.026044246582561596
Ni 7.499406825833972 2.6101570294580076 1.8071653420419063 -1.0265255355488838 -0.07533512239788961 1.30152892990781
P 2.4578270157539577 3.953487364198792 10.618607306217985 0.8550051867769726 1.127471159426026 1.2339953058322102
Ni 5.64755014217237 4.248546683581444 13.223726938443193 -0.10226434268856582 0.5452834151002544 -0.6188434478755922
P 3.2817764355890033 3.3881347081950333 4.633869132449486 0.5610797587025627 1.2216704657182704 -0.7089253895653532
P 5.035896264146933 1.3573515784919623 8.659192490253366 1.4203583760439087 -0.07165098867808306 -0.24482661366522995
P 7.331353250273184 8.20939245507524 11.813583363733512 -0.3265426998887989 -0.3546422863384925 -0.20659019589185065
Ni 1.879240209316646 4.839726983100754 3.484074977039989 0.6978254229974498 -0.15680978203461382 -1.6100281420313367
