# total energy = -340865.01298650337 ev
CRYSTAL
PRIMVEC
9.31811669105630 0.00000000000000 0.00000000000000
0.00000000000000 9.31811669105630 0.00000000000000
0.00000000000000 0.00000000000000 13.63800566703068
PRIMCOORD
 96 1
Ni 2.6238605800809145 1.3767983607547776 7.654835818751026 0.20520282862602077 1.3120162025923792 -0.18718608033362602
Ni 4.934203799355391 7.7983599777385235 0.15258043679073588 -0.6597910939325475 0.5391317936765618 0.48373609051507654
Ni 8.315366375140426 5.882033331064066 12.821430657852728 -1.1027361185731912 -0.1025556486767395 -0.33551199326694475
Ni 1.793178413885482 4.207875224186271 10.261399178453145 -1.3509786998985056 2.282643384311746 -2.1894048992708743
Ni 0.3527867008066333 0.7249746527853252 3.6810065318703358 -0.627886531914467 -0.4546072914699203 -2.187880235096232
Ni 3.724320866411519 8.287766112918804 3.435099563578294 0.028302960709751256 0.28987696903664917 -0.8990103887133292
Ni 7.359290309986061 4.059912846125122 6.3006907319621455 -0.15722038720947118 1.2159857566286671 1.4626941606976422
Ni 5.384594979126514 4.438386799756314 12.297185015440705 0.15607033276542798 -0.08875936622359552 0.17325944295020484
Ni 5.819285131941717 6.815783188155296 3.436081693098266 0.23428689047617068 0.346001579944359 1.0373367672317746
Ni 2.544311816209888 6.51593550482324 8.307318317584446 -0.3616387722609837 0.7805468105570815 0.38575623413447757
Ni 5.305568029801203 6.928662856133933 11.65463097015122 0.12076908636097264 -0.5164279243211428 -0.10900577517745744
Ni 6.918748379765328 9.44297965408204 13.34559336902445 -2.0318834358812166 -1.4856973064610348 -2.0629642164464213
Ni 1.4488274042973612 3.0461669555522506 3.6809655321560295 -2.105451953296987 0.12212097240317678 2.2579949896354465
Ni 4.523489161292461 2.681558359850084 6.372399232283789 -0.05989924745879361 -0.0432608675711642 1.8371632519540746
Ni 6.932455329707261 0.7061856018927941 10.40121659054268 -0.3582662562443249 0.32314704394368865 -1.242974369402369
Ni 2.5491199645239853 6.384130741445511 1.864792801226559 0.46279445526640295 0.9542523399057695 -0.27959744148751203
Ni 8.879308127306105 2.562361008621529 5.0725880850675855 -0.054926219724234435 0.4796135837062708 -0.1179580992747388
Ni 2.1426823421125487 3.6957049294491293 6.022612033303333 -0.11452104856873181 -0.6342633819750882 -0.2570884617517185
Ni 8.212885725608558 7.492753698169816 3.759438985338206 -1.3607581478827724 -1.9772099555977367 -1.8273560360556658
Ni 7.109713867263609 0.22597365264569128 4.327857160856777 0.153331079457394 0.5920394403088707 -0.627398536534455
Ni 5.044567575774325 9.323428214411747 11.66200905510297 -0.6050163121845128 0.7577917762487529 0.8205688594759739
Ni 5.065151295979444 1.5672327155904542 9.064896129548444 -1.7249112019251776 -0.17809106001089328 -0.026864171380695665
Ni 5.792896224915508 1.7309893017764 1.9307874322726126 -0.4594281098973313 1.7616970032949593 1.505322279780814
Ni 8.442540034424926 1.0671107459892195 11.933800820297591 1.4284594078844883 0.13072285513957485 0.6485319760789605
P 8.586048352613714 0.8367585102179578 8.825522093006429 0.9313430394077639 0.1821857989055572 0.2882497178458713
P 5.344769347548118 2.1356844363298215 11.25083689750085 -1.6355442840245704 -0.340019394218995 0.5038539443108743
P 9.218850988580128 4.5011722713462134 11.291736907956407 -0.1391974682694893 2.0880424995712876 -3.045889241696535
P 3.671748050930632 6.080798082397423 13.550286306321816 -1.1654298980579865 -0.8416776164301312 -1.111481211755673
P 7.631220915122311 7.924303645593835 11.977728286929992 0.016589271817248848 -0.7873643476995472 -0.7298760236750914
P 2.4246671953707195 8.973821786898915 1.2235041562104372 0.6240635586239509 0.10292460198038403 -0.3794801713177787
P 9.25705526782005 8.46591918969638 5.170427380577647 0.1699002966699848 0.8074495484851966 3.2639599274241595
P 1.2015525364461919 0.8934434106814246 11.784014886761504 1.4123095375975034 -0.36288524307357506 -0.5111224529478294
Ni 7.123774905647277 7.483454217515806 0.5921393056798072 1.3073985013147098 -2.3390101931372493 1.9131285517367955
Ni 1.1033116300982668 6.426211357310751 11.809026576111698 0.5569875909110602 -0.4768077388263595 -0.8751801190629509
Ni 0.14219446370760994 5.053755239025682 5.62920952460622 0.17585137204709714 -0.8571381739595754 -1.2338762637558427
Ni 5.334370329101349 8.20939143177564 7.591105490108705 -0.2294982108382757 0.4055925521341144 -5.123839132918511
Ni 7.015805885268504 2.467772804093616 8.29494851741591 1.3037593619002255 -0.45434838138157885 -0.9380389633707007
Ni 9.008419954903264 3.308136493735458 12.85227921562143 0.029179449777433617 -1.1689955039220576 1.0651481330170882
Ni 2.9368188538740854 8.134045138621005 12.337417848727096 -0.35837012881204083 -0.003220306709510583 0.03784766697539288
Ni 5.060883598444838 5.7483369899581165 1.443487191508971 1.2839382134092405 1.05213115193213 0.5241144943321232
Ni 0.900544747561606 1.2933546240246565 0.3616407754734073 -0.1954334079440828 -1.4848025625609074 -0.19331584738044771
Ni 1.2982279991569685 7.276992701633137 3.877967295774218 0.26797322698502235 1.5002271246460939 -0.30982050203811157
Ni 8.181856396372233 8.082143227556037 9.695422349559173 -0.862497895609592 0.41561085560206484 -0.31089136650478716
Ni -0.05932658660115405 6.884718616891135 6.884697185222293 -0.49048780741661335 0.8745190884401843 0.5075311360521454
Ni 2.635415045021769 4.349575827698828 12.296980948680861 0.5813932734489342 2.1600002208565123 1.9460265880163965
Ni 0.30826194288172687 6.290120260164642 9.238698577551112 0.38155685134114936 -0.5724473771095561 0.3294673297347616
Ni 7.850578704777675 0.22890233678352231 1.7884606513051962 -0.23702048735724987 1.608828979516913 1.2896645743700563
Ni 4.520814861745666 2.3329582889611324 4.1088450733379505 -2.4908762580133423 -0.9657539127874659 -2.3076293648331228
Ni 4.4033599983751275 3.6812898026237244 0.8034658103895882 -0.6819092659878255 -2.0608376570217217 -0.6095383684245824
Ni 1.216154025609352 8.66268986401575 7.81505431595468 -0.23397552988333895 0.7745383995794726 -0.1923113173753333
Ni 3.8742027765515523 3.644669603254727 10.426719344652863 2.551753038894057 -1.1498999207431873 -0.477046851420359
Ni 4.405717481947737 0.7038980041968428 0.2712317463696664 -0.5741085668620628 0.43525794040903104 0.6010321307257843
Ni 7.140491607343965 3.120068940589279 11.0030206470585 1.5288288475431864 0.9284024687222011 -0.21936060818364156
Ni 2.9380674815370487 2.185023865250647 12.784089236236614 0.02252414924444508 -1.2699154167675872 -0.7107953528945565
Ni 7.6585509519541874 5.229802421386617 2.280219610999643 -1.8138826841595794 -0.14041128607193237 -0.4151845666979237
Ni 3.083094652778546 4.201865038793649 2.8198075328674053 1.0762185318986368 1.301547184740255 -1.3525956666766383
P 2.981732177273213 6.652548416515066 10.596935249465421 -1.0029343784925049 0.3448972911365866 0.20239904062863853
P 5.490327651452218 3.9249865135899844 8.652468821601538 -0.5147492510671393 0.3004328901756245 0.05550934592121408
P 1.1994559601464398 4.663363413895011 7.842112263773433 -0.5060373251154381 -0.07359345711643456 0.007161293635129602
P 5.691962382787013 9.005559293018713 2.0270445115351277 -0.5554968652981465 -2.6033404240530453 0.18611418742568592
P 1.7652147451052371 3.244624209028311 0.7336917511338487 1.3803484113098743 0.8581306197798316 -0.43626684128951965
P 6.981766804277424 6.519867750149886 8.038991028248702 1.5052582593120978 0.08868788955571177 0.9416392791274493
P 5.317336811430476 4.170360485596046 2.835791830576713 0.16463750560914872 -1.0290323611311374 0.5525971751528483
P 7.097740087062804 4.246899497712318 0.16671881554457313 -0.14849843395544104 1.3307567164246756 0.32761536412768744
Ni 7.045493405672989 2.1561936115998375 0.09452856857983091 0.3180459752716974 2.464486198055588 -0.19441782219537482
Ni 2.883351499171971 0.5094941315669694 10.210011627440384 0.5205589157703808 1.4897791898398922 1.4410644982430085
Ni 2.608727958255151 1.9589197589685263 2.2047745458059973 1.71007516535361 -2.866682065803327 -1.501421659174827
Ni 0.4244924056932107 2.4781159138390585 10.150330952397494 -1.3702159508615628 -1.8597717333822101 -0.1473830894040752
Ni 0.26401393302838766 2.5837647231127723 7.424967193246242 -0.133830290420305 0.16559626997799223 0.6719580683123847
Ni 0.9643785073013821 5.1860165901309125 0.36539038570905225 0.14642329659396716 0.49279922915860935 0.013245295045680413
Ni 5.11368936684792 5.906139299452768 7.149165842354805 0.03392339222032222 -1.2491802411027648 -1.2333245050174308
Ni 1.1188915215346447 8.349591818469262 10.086382579819999 0.7732453917996619 -0.2191649472330677 1.8840208357375616
Ni 6.562991995106557 2.5607955649843808 4.880605991016848 -0.2460095782297376 -0.10550573244399894 -0.28076780764652937
Ni 5.531588273031333 8.282622512396747 9.576894039123161 0.429785347330234 -0.5535919349659498 4.220227497987745
Ni 0.29796821915578997 8.137520796220148 13.430735798463212 -0.09881597912864917 0.14817884583249322 -0.40897818077689563
Ni 2.7239930641570598 8.63142758185723 5.680038920417402 0.09403964078592836 -1.2479021457212898 0.6120043134665718
Ni 4.866358590295424 9.491806586574036 5.259715440219787 -0.10011464333541467 -0.3968680277769229 -0.3104254826119621
Ni 9.083999200980093 3.123386190201331 1.563201698224798 -1.0687445921190948 0.46342077599649223 1.2841145910861047
Ni 7.023595830986693 7.793011378644935 6.147440322567177 0.30204214364427334 -1.2857104748183146 -1.150999067344637
Ni 8.078574388788017 0.588151151651835 6.641026564983319 0.8435041281159085 0.20783306716001623 0.6454299401148691
Ni 4.3619782412764705 4.495273903356245 4.873800970253697 0.3814900026589559 1.5999085370988317 0.30532827059471285
Ni 4.609551288868049 5.943942899666514 9.416756609536433 1.1303795913220724 -0.5105598955761401 1.196646689980423
Ni 2.8853548943028446 6.18205805861699 5.954681097567999 -1.0111837629854907 -0.2725256222423951 1.1982256044317687
Ni 0.5487327217814351 5.182969565908606 2.7215191041233524 0.158901631566636 0.30173335415460295 0.48679698882858746
Ni 1.1164222205593815 0.9078613329418953 5.8543864782580055 -1.1634249518128155 0.838438283557227 1.781218875377971
Ni 3.4119962245667175 4.228142128417205 7.960149509449458 -0.2299314417209524 -0.4050436216091799 0.1706510587930803
Ni 8.390265398684448 4.357170092962374 8.751863310820172 0.14448777013415115 0.21039465723960543 0.059019930177633836
Ni 7.222770579463113 5.963455036429537 10.293066798696284 -0.04451608013450398 -0.06403718088656714 0.06797611092965714
P 9.418473006667162 8.228819705486671 1.9722605069167691 1.0897435629682652 -1.0888421341999184 0.3594564198976842
P 4.589759608598392 7.196344399969353 5.383289510950535 1.2237366042186795 1.0892164868202014 -1.0642878418993218
P 6.0516044221879906 1.2108986076846409 6.587988775469731 0.6928927615825228 -0.15529103139724224 1.0457177922066183
P 7.382827873244608 5.393149010429501 4.604122553969225 0.5369404424521979 0.6824368563565215 -0.8368781381589588
P 2.5083997937243616 1.0941053306131345 4.382178055065812 2.295959641804678 0.7202901797588692 -1.5228597744439452
P 2.0196738810768893 5.371195527041877 4.274233261790948 0.22858135545096117 -2.2333486518416765 -0.28334790966887974
P 3.734841020377829 9.127039582884775 8.45458183687901 -1.6247983583619758 -0.2906938085109897 -0.005602176678125835
P 7.687930974501375 2.327684234802646 3.043662245732814 0.9470596788120722 -1.0551699387584539 0.17590716498569706
