# total energy = -340869.9974058921 ev
CRYSTAL
PRIMVEC
9.26622149485194 0.00000000000000 0.00000000000000
0.00000000000000 9.26622149485194 0.00000000000000
0.00000000000000 0.00000000000000 13.56205180173811
PRIMCOORD
 96 1
Ni 4.415122906993068 3.463509753775235 10.624077888818702 0.7634458892107369 -0.30956930525925397 0.025034831481440756
Ni 3.4757782310906427 6.494333292865457 9.671017351796738 1.4966864584826869 -1.603723797079864 -0.45701667224236125
Ni 5.956355002851913 9.23851553492032 13.122099249246125 -2.0924488561690993 -0.8509880951977797 0.26979331091289666
Ni 6.660569307244923 5.571556621071754 2.7350318482867615 0.648422961304922 1.0238114790518305 -1.467854364742343
Ni 6.984256957986476 3.7956203998942097 6.862330161754153 0.40602449746521047 0.4197855558050448 -0.33631443456358207
Ni 1.3421843910157405 4.200461618859586 12.569661947145752 0.6158288294189845 0.1346219330836649 0.05975655123334225
Ni 0.37686649614421547 1.0334709542784908 10.760172737781582 0.8023183979062182 0.4866766612006393 0.7978125396160647
Ni 5.86629659573073 7.773266455667473 1.6107648956527172 1.8718379205181248 0.4516651781224608 1.4196916889941873
Ni 1.6746008224454467 7.612154661798144 8.117823490555372 0.7878520859692432 -0.35567638402996166 -1.0527482166908384
Ni 0.4611483407590351 6.283712077322245 -0.08878800814841678 -0.45011840246063123 0.7455103877782386 -0.04843624112451658
Ni 1.1819250895278448 4.269911949281775 7.789364662344253 0.6881740159506149 -1.3031494962303685 1.540856725241998
Ni 2.6442923738825854 1.4913056942157814 4.577870188963733 -0.17933547394095567 -1.0292768730417756 0.7837254653953792
Ni 6.638571297315333 7.111667504124584 11.656529558728087 0.06848904601033365 0.9438347441168713 -0.036170279272969966
Ni 6.408555880094515 7.662757497613431 6.138144370081765 0.2380126760671901 -0.5230269176948993 -0.41240417573930915
Ni 5.562058743996004 9.006007504105963 10.189901665710487 0.7216734332596411 -0.09847427951851427 0.17405057139293253
Ni 9.027690462503285 7.719374111206437 9.394826499411163 -0.6384599365549392 0.2372148627562431 0.0025549052113697933
Ni 0.6983089414072775 7.442119496588379 4.744805803069267 -0.16900709543175407 -0.35719667732923 -0.7391723613753528
Ni 7.828298545377598 1.1081381674261903 8.889260525713 -1.0070666554933236 0.23718143841514636 0.19778930977076903
Ni 8.952170756974152 7.580454917918982 6.853895120288733 -1.7981495896950388 -0.17281901297867658 0.8131072609916061
Ni 4.305077260015893 8.281787427413887 7.6099381816064176 -0.5478491189449017 -1.060803225784831 -0.13804509983260096
Ni 0.8306991549995388 5.6678975263952385 6.137547625414761 0.6913801815927383 0.8395122333476962 -1.1733974896444954
Ni 0.16972196692180375 3.5865651757908035 1.568966823542188 2.205626503336059 0.7547254786186034 -0.7837712310316503
Ni 1.472782517362685 6.573689214111039 11.320109192972106 2.109051754833103 -0.4849054282328294 -0.1159598378977874
Ni 3.859214478304816 8.191339838988137 11.855037042855566 0.6882136109392986 -0.13457822432992306 -0.2603460494570678
P 4.028953124425387 8.776788981937356 1.4169905974864998 -0.10487144129410972 2.154475177273225 0.1963798310177521
P 2.5111367703913414 2.304601958546085 9.142680565292773 -0.46912014037411465 1.4449360653832726 0.19320374728261566
P 3.3244515671647203 5.290308264971112 12.023735092297496 0.020324570489964996 0.6639064016525017 -0.7548897721106096
P 2.9379482006216953 6.288011604115559 6.876028417052769 1.4069986669075512 0.5101886282796503 0.46849741918845117
P 2.4432894962951073 3.181742489268503 1.1527531708840637 -0.42135727116753885 0.4227418102198913 -1.162148141982921
P 7.663526594001029 7.581372273851177 -0.020626609142067414 -0.3085580903859202 0.5425385053652656 1.0142328342244595
P 9.052801922869413 6.165493622949155 1.8936691255420781 -0.22282028459746786 -1.8043901712881119 1.1953907060861348
P 4.031112154043582 3.835252029409314 4.258660903091165 1.8019458235126773 0.5841345836394972 -0.6573449463849002
Ni 6.813878942579831 2.556680249247254 13.501321218905126 -1.2751293568683588 0.8002972537111314 -0.01916423163327667
Ni 4.389538869328536 1.2750413497563422 8.80190692865856 -1.0896880271399816 1.285361319009012 1.1041756792331952
Ni 6.032439947894822 0.6251104243732426 7.589486704051406 1.0849692815080734 -1.4323291752525398 -1.29829396791028
Ni 2.0325642266535358 5.425910150948208 1.4839325617385382 -0.6426364365301319 -0.5005889004063573 -0.43730196742225336
Ni 9.071825475685525 7.9353048716905334 11.875326361533673 -0.022869962619638032 0.8479907031323524 -0.24277538756315606
Ni 4.935106194781143 6.104827670544342 4.679721716235459 -0.9816767546653093 0.24361125320089008 0.03520354448432647
Ni 9.111651695852913 3.0859112261295714 9.292080781761086 -0.27255647548033063 0.9110477794938374 1.7253668014053574
Ni 3.2991733148109197 1.4678158226186828 13.694553443111412 0.25241522464576527 -1.598539681775763 -1.085338491922034
Ni 4.965573531195841 6.658104492315997 13.548463120976225 -1.103539588311093 -1.9937087245837082 -1.56634638487267
Ni 0.2570486919337856 8.880885714687574 0.4291224258817604 0.24544239287235792 0.18386061550481883 0.6759754170018939
Ni 6.313836563540062 4.335322207113695 4.532112660390309 -0.6490791068316821 -2.440356909107552 1.6457813883715462
Ni 2.744311969156384 7.611024182770591 0.32048339133394965 -1.7521471548229954 -0.3542581635261963 -0.6695592290629049
Ni 7.926548292337769 5.589338500201865 8.365358552836794 1.0850613270012472 -0.8454172859782214 -0.705773731310249
Ni 0.952567574036177 0.1999113166903822 6.128161869619613 -0.015121171912154603 0.23626406880719955 -0.4049569754326446
Ni 6.36046419031584 0.9514185625655497 1.8395293729659965 -0.17947302796008446 -1.5701143365555346 0.07686055790348054
Ni 2.340119385698621 5.5803317328675925 3.9059116017421243 -0.401060982812348 0.0574520714698817 1.3400193726735246
Ni 7.809126733016889 2.335412145157664 5.123878586561517 -1.2859943246073207 0.14979889793441942 -0.8965071626755012
Ni 8.535969150404027 4.209672243067678 3.8222468874816897 1.8878224688718392 1.8841115956791552 0.5960079380383154
Ni 2.3773881287217096 1.8393264427143294 7.133693312718786 1.4406052992184029 0.6453016420671209 -2.11811463636632
Ni 7.84552445121547 0.8111010964481137 12.343664363583516 1.2702979969179866 0.7032432515789114 1.1538007984594902
Ni 5.929742414596739 4.818472264290936 11.9695415956365 0.5957446570745998 0.32571094801612294 -0.15235714557989888
Ni 0.8933897768102563 1.8649568114865478 13.083772303723475 -0.43578913032215266 -0.21677922060971055 0.38447839586331845
Ni 8.090338024231382 7.973629963968876 2.651191075817118 1.088595308296435 0.04661872829980358 -0.740162493202764
Ni 5.252196295788127 2.153516216380133 6.091979127760698 -0.6551492242851621 1.583987494993201 -0.9585224280360332
P 0.9704513816031987 -0.02075262975497492 3.8017416658417615 0.09627495787435032 0.7669140502649954 0.0848147797535507
P 8.51306305076378 1.5601351877949712 1.092453234229974 0.6459410754233327 -0.9564418913579205 -0.22436603181803294
P 0.6606992014316156 3.6432559191561085 5.575793137558615 0.2610533599367375 -1.7084008629749805 -0.49613060752468746
P 7.921600130036842 5.735364885408442 6.03588605568455 -1.376341089922694 0.1715018368291498 0.12981988370933126
P 8.036482744656496 0.23917415058830135 6.714138260574305 0.0704759945333754 0.44230867660822537 -0.0413335686414643
P 7.87895697852211 9.107259506844224 10.552307296523567 -2.6412580250344253 -1.2638679250219267 -0.9333508138664118
P 1.9292180578478404 9.11342154416654 11.844634782557774 -0.4000477110564852 0.07164070426543791 0.6119420927700687
P 8.843894958310605 3.1240139290910185 11.586426886309669 0.6170660442601953 -0.14923608345241393 0.27746522563585757
Ni 2.5571157616595084 2.163644196520421 11.218095506823477 0.09473126753631428 -0.9809733008403815 0.9801019539790218
Ni 4.597547010398226 9.378064831272312 3.7464352959741314 0.972348535285848 -0.28244905200369425 -1.0114187618144324
Ni 8.146556190298284 4.567774640598827 13.15466167835041 -0.6110113534256832 -0.023921286702287835 0.08437152156854502
Ni 6.8162974264010705 2.6391310884863 10.95206228648711 -0.4095474230168043 -0.033805378585219197 -0.825371680181256
Ni 7.420232681317237 2.9247067700448692 2.2532670912293495 -2.520665830570949 1.4645600102617873 1.187350866500794
Ni 0.03637918575550613 1.8800329539277623 3.46149713045733 0.41174803021254897 -0.2962905858724768 -0.09260727921477599
Ni 0.8685581563345546 0.940373226493068 8.582120493392788 0.6959477463587627 -1.2654069873742724 -0.6280395125525636
Ni 7.425801680461164 0.008271955966362793 4.593955422930362 0.2502840372353754 0.4890024811203384 -0.516218122303182
Ni 3.095640758743754 8.591557213406391 9.649996928239336 -0.639587365291163 3.1509041505470443 0.9337382791128176
Ni 2.240201718861733 3.298163296663352 3.272238262046247 -1.2322924642084907 0.5210463969297606 -0.4848542632799198
Ni 6.579526933679549 7.420195616431087 8.53152043744396 -0.2715288055467646 1.751531118505551 0.675821665032849
Ni 8.130293971500292 5.054121544206441 10.637639930660717 0.4580970497907336 0.4421950338484965 0.833967392270067
Ni 3.524592686149228 7.149232766236866 2.8142339502548235 2.223253729499519 0.5896156613587265 -0.8465303165367422
Ni 1.7515197274267145 1.0042916226574798 2.058977591145658 0.8159025643485561 -0.05413766238466805 -0.5994033368731095
Ni 1.3800925033249039 7.5191403300065565 2.423783173336902 -1.1304073592362145 0.9744367852734444 -0.07615504719602367
Ni 4.341363783556026 3.7976126375247325 13.334304062050066 -1.1874426548836516 -1.0712503892600842 -0.15844628919677228
Ni 3.3254337866476757 7.760562465939811 5.243130224636017 -1.1724284408630068 -0.5213022216943086 -0.0038381427991675834
Ni 4.1063538729265945 3.8893574969657077 8.140594303361175 -0.4016186550880309 -0.8125009948661748 0.6279793487385895
Ni 2.3042869070138168 4.497453285352129 10.124261605584442 -0.3066996970209428 -1.4648695710824062 0.16279505308377126
Ni 5.557518295442719 5.5590750206609885 7.350089237524054 -0.7342468990492773 0.9879271064503955 -0.13711307493663485
Ni 8.801168410802036 2.3347635096500516 7.067117364217472 2.110286655681469 -0.2710194700105139 0.46790503702009095
Ni 4.29700638105689 2.2277942482232658 2.1228413166029996 0.28692997059318326 0.0254768041148658 1.4386967693417803
Ni 3.0119111809325587 4.321432141029257 6.034827853184988 -0.5734663052923737 -0.6680780165316881 -0.04184059018486988
Ni 4.181354670049638 4.734918744688949 1.9887396318927957 0.43408500314685244 0.12679266684723325 1.7813525727423583
P 6.331266326251754 7.521058437864782 3.7771806190349495 -0.975227656605856 0.19307313524202233 1.0070062345690336
P 6.150000500538761 3.045955278860661 8.604728220699533 -1.0106098927598919 -1.3671337123918132 1.2817604890316314
P 6.100574474858713 5.879612156079855 9.966074231232291 -0.29252906194751555 -0.4882491478940817 -0.6303956714895659
P 6.107505608568626 1.8884281506405716 3.8640051148396086 -0.18887966598596503 -0.29647364841756035 -0.2679256615765386
P 5.014601109349785 1.8294579167770868 12.288711036756457 0.38780283225086115 0.2865874996521 -0.9171803747541365
P 0.9055053614702983 5.8984133195790704 9.343412869211361 -1.0568072172515606 -0.6889486893331103 -0.7191270126887034
P 6.016288923755279 4.695907952016845 0.8450256601183845 1.2583961032740778 -0.18508394638895864 -0.9930256040192253
P 4.14698625436773 0.32972830056173075 5.863539894823378 -0.7701693239774995 0.9328790164363159 1.0794295826367668
