# total energy = -340896.64329515933 ev
CRYSTAL
PRIMVEC
9.03451759932055 0.00000000000000 0.00000000000000

0.00000000000000 9.03451759932055 0.00000000000000

0.00000000000000 0.00000000000000 13.22292972964641

PRIMCOORD
 96 1
Ni 6.504120870602179 2.0300380339768345 11.529389687570426 -1.3512710343279437 -0.5936687483821775 0.21514657010229396
Ni 4.4578387739942125 0.43848669754004066 6.039282292148631 0.3569542223011207 -0.3915221900839773 -0.9058294685176915
Ni 2.43541683834777 1.5974111245472233 4.626623438558926 0.9251726489309937 -0.13417096158917538 0.9227882078592172
Ni 3.4327914424782326 4.409883554613759 4.883929209945723 0.20521234170771757 -1.0408576359008397 -0.037923257408334694
Ni 5.096271994178668 4.712548928476712 2.735546223122537 -0.6116451303549402 -1.2166401023832143 -0.49591849151388134
Ni 7.215218715782299 6.050235741277655 2.688777235901966 0.25837324200141304 0.7033921184519498 -1.4521189562849572
Ni 4.79784380906655 4.38789353879386 11.597593971230722 1.7988041925599023 1.26221136325511 0.1082105329696717
Ni 5.595085779490193 7.7148636767123255 12.38297000624851 0.15054888872656655 1.3439529033999758 0.05063839098215796
Ni 1.9604812830329554 6.337226227117796 0.3072449708305405 -0.7530678884105224 0.9364168543862453 0.8375275988174995
Ni 2.783164454996794 1.5469172057233063 0.21104813786195536 -0.3028373858520591 -0.15508662869592002 0.6049162962715389
Ni 0.6494996007833856 -0.022597135402107973 4.801417864226104 -1.374025297305324 -0.5619220520982 -0.7049093264274247
Ni 8.60479979763398 2.310876013336552 1.418635186977076 0.2963993435361992 0.18616663793017615 0.5650695965882462
Ni 6.769049064481683 0.8425898280269298 4.768095852990058 0.19379510100971142 -0.6939841948744887 0.12805199317563107
Ni 0.7287964651436295 7.349164473607205 2.3837375908157306 0.2439444681705928 -0.07366030579862798 0.1608772672357681
Ni 7.532772974637527 3.9206011853622154 3.9755924870436288 -0.030325647566734868 -0.5538300191186849 -0.6761718492834161
Ni 7.61646874561351 3.7344991574763915 12.84109142087211 -0.817349838318044 0.47402786208837716 -0.4229886361233748
Ni 7.9905519810443755 8.898746862020268 6.783971377189048 0.7161216502034764 -0.0038425136745417698 0.6746145320986252
Ni 6.797381311651446 0.7944033249961114 0.5692739880146432 -0.3381085503495274 -0.6217318251669809 -1.5304506994173255
Ni 1.9853894480351992 6.451006941676467 9.3113361148817 -0.34899382980346344 -0.27595958762460865 -1.1134357643788824
Ni 9.048701785018906 4.844398678220181 1.4261591332280257 0.547127924508161 -0.2783106043552884 0.1843403833547148
Ni 6.426866710669577 2.0112010647966825 7.032919316351117 0.8686636581006717 -0.1693505948141019 0.21906827375420335
Ni 3.532279550205728 4.436336622124303 0.5566536703898213 -0.6225052129978956 0.19124276690150288 0.21864455595322344
Ni 6.001566795007402 5.777113239941845 4.689776523433312 -0.2569043707653704 -0.2090589691473174 1.6496467848642236
Ni 5.461022572936587 2.7498812921863967 9.229842959294741 -0.27364996565482547 0.8334634560504548 0.3758968248418946
P 0.09788538430660446 5.474565314807593 12.418433198153952 0.7899717034154073 0.6054865669527121 0.23755964769017154
P 4.010187461808442 6.256611226640821 12.589921893834072 -0.2766419584036139 -1.2227225611318686 0.470892401783189
P 2.4267527359766596 8.396102441249568 1.3513307412689823 0.5198040398822275 -0.025222264901898495 -0.1582146328019404
P 6.31298661641739 7.945270978871272 5.868468474932664 -0.5535078598925758 -0.7771822649602228 -0.5072058915022426
P 4.781400987048384 0.9271673679199307 12.566226161092727 0.08883058578116314 0.3708644046243097 -0.23539889259342686
P 4.016367071841643 6.159273334100316 8.148167271509607 -0.16802647668603965 -0.32003549489790045 1.2056509503615622
P 4.6257814215193145 1.1484678763457405 3.8755478530324408 -0.3531348485550305 -0.7493418457091869 -1.1822996772301315
P 0.15097220967954003 5.626543969746925 3.5937937735888537 0.4332221409259248 -1.0367603259030145 -0.25255612109900377
Ni 1.3586107555449374 0.939607898644664 2.4501033501459735 0.24321376065215533 0.7390931713979852 -0.02560998725862041
Ni 1.836130182891178 6.523265013380472 4.635958805587152 0.6065900844295359 0.5680412776220605 0.4754926195593618
Ni 6.102229390021909 5.559426538552994 9.049719975151568 -1.4900440134655049 1.148660906129764 0.8503432625249291
Ni 8.46247000748333 2.390723079818173 10.313396019835578 1.2231871594731127 0.21736208969637402 -0.27530858430417104
Ni 2.3904520442904014 5.206899662097593 6.852294013029805 -0.24247328294170498 -0.2341501077879903 1.3710651862357355
Ni 0.6587139052758733 -0.012194791846219952 9.036378703022873 -0.347983129150762 -0.2640291547356098 0.24119904421497168
Ni 1.3744211613316353 1.134075889821049 11.435771305922712 0.40869484520852195 -0.00328098474411693 -1.0529919572705284
Ni 4.084550576111477 6.816073728550119 1.6522181220697518 -0.006989029723323447 0.20449243282255752 -0.09371902422171602
Ni 5.71796425326441 7.857383191732417 8.042411015476505 -0.6865565349518499 0.3487534316578832 0.20998070963063836
Ni 5.379784190745737 2.8097259367184466 4.9684362806015026 -0.7991844802629269 1.1887608594744432 -0.16574462263039844
Ni 0.9810401963234051 7.203546119052921 6.846978102878437 -0.9777429668285418 0.6417375788649464 0.41900008378927195
Ni 5.056185839621195 4.668189447098034 6.84295864600158 0.20554581378773634 0.696222340176388 0.46673235686822845
Ni 8.163310026446226 7.1878260584421465 9.149844112917568 0.2808158872756454 -0.23069711624238334 -0.20578261238889073
Ni 4.562783730347517 0.3499619769109207 10.327214314493153 0.46092114950309 -0.9580436886274016 -0.2448934623474234
Ni 8.071157947003758 7.209183658030577 4.6564418638726375 0.22139846454927678 0.7345225213081673 0.2742184365637858
Ni 7.338341121531511 6.0982632367988465 6.809174067464804 -0.06514326946655231 0.2345144331059445 0.8303354519444346
Ni 2.3957914441875086 5.042489510951118 2.738415585909883 -0.7009053474743542 0.5553197162903339 -0.8974384162405189
Ni 2.4056661719160006 5.194395889749712 11.522580371661034 -1.0327753731133376 -0.7371715288952402 -1.2776840049694125
Ni 0.8319489732066025 3.3298431145128475 3.7173353809543523 0.7809833838738679 -0.12260793934192431 -0.4381959399914324
Ni 3.5120060927283854 2.842539304614039 2.8258191229057865 0.7248937399691516 -0.6014849019924867 -0.284478166618581
Ni 1.0316154258056538 3.3979362736067573 8.265494937675053 -0.031695017110435736 0.13237556025164943 -0.6625735417736911
Ni 3.878644885663115 2.7731180714340464 7.120376157000815 -0.7263078467078589 -0.3267512163551792 -0.49607918546146185
Ni 4.13141261886325 6.869964625988778 6.091380741296957 0.21798249688919236 0.9476955126238582 -0.7436039147841452
Ni 0.8954634387846848 7.4578948928317255 11.422059618572728 -0.20438084694535769 -1.0381736613107735 -0.36886562902672604
P 0.14458932300051025 5.525492890475944 8.021399437911862 0.6672730041318895 0.3213097336246337 0.01696105333437079
P 8.585240067046437 1.6430806109767995 8.12227705444507 -0.8637603072617834 0.52799917409851 -0.44868475533789826
P 1.7007660058042662 3.2816801012277694 10.339140781166877 0.9109040548271216 -0.6044275295605784 0.961357326381667
P 4.003980748222464 6.201301909940155 3.8875149750353324 -0.5472968459858575 1.0396523027388287 -0.5376097006050806
P 6.784732987022087 4.004522819278008 10.503912313017047 0.018700404622980695 0.06358338117860017 0.569868046418154
P 6.421111722963219 7.770154924377806 10.299591276954393 -0.9892723076243802 -0.3144988813503874 -0.7639999619419939
P 2.421214576692519 8.508591219792525 5.73910863823766 0.8176108052889145 -0.1793349597203234 0.0647717450597465
P 6.874987817770152 3.995325680368946 1.7469865978069787 0.2571185436587056 -0.44336128624245585 -0.8837241519782201
Ni 5.0577849492350495 2.8016219744380644 0.5051749891483327 1.2018290055123109 -0.42730346144864473 0.014290448480743132
Ni 1.349341340495136 1.0705632311464852 6.968986552608506 0.6168441580573764 0.6754848505187205 -0.08557762606150422
Ni 6.988235495790871 0.7080839301112959 9.296486078315073 -0.7649895795487729 -0.5132078747219484 -0.8222056237484484
Ni 2.8646648381978235 1.681892898553745 9.062083712476767 -1.0014575368366623 -0.20284975501281197 0.7901701925794585
Ni 6.241252546733743 2.0103789236957743 2.610364850814018 0.3826017476658959 0.3512797976241628 0.21823600766089515
Ni 4.115267935925633 6.799757389778247 10.481856345218725 0.9908717909010161 0.1309272578408971 -1.2967675039634248
Ni 8.208979512875802 7.156720214371517 0.3473600358443098 -1.2519850575414115 -0.5856592478141397 0.1740102050733003
Ni 7.577484802202308 3.9576878800790123 8.399336798547646 0.578295608360217 -1.2823341021469141 -1.6235464882327457
Ni 3.080544636068194 8.28286379774644 12.19574589127771 0.21709058120254224 0.7471463807197648 0.885957669294429
Ni 8.982523943654584 4.848590694383054 10.19764216663473 0.8389100809873229 0.36097568475568803 0.6362091928475494
Ni 8.640522280194325 2.395032544709747 5.837897474303504 -0.008425247949217748 0.1394170404794631 0.002154841559473708
Ni 3.8044082546063738 2.464553157583256 11.24351044739415 -1.2504853330674335 -0.5980087705184282 0.1643729390938524
Ni 0.9770559740651571 3.353775551615112 12.57147521581391 0.500966338350434 -0.007113985336961942 0.07985974974112053
Ni 3.0537392223715463 8.516126007464585 7.858228822579066 0.5149156014416746 -0.7366858475080732 0.8119592634300921
Ni 5.639391053763317 7.899547285336142 3.5337485627662524 -0.24973202138664732 0.595089282878788 0.17319773647433398
Ni 3.1582324528452315 8.374320219334294 3.4700669586127106 -0.02952834847642011 0.1346299035034649 0.8091001967147421
Ni 3.526642011228071 4.250903148540317 9.379037175912098 -0.2754548800740482 0.43452851844217427 -0.5257972813511849
Ni 7.156620834678001 6.0094900669359355 11.498289264210353 0.14846166718023462 -0.42571837634971194 -0.4212310300023197
Ni 0.6753003761237583 8.827310931417172 0.20350070186526537 0.31437521128832957 0.9984866271337967 0.2241965961197042
Ni 4.587005272012738 0.3217535026321738 1.5311628139456812 -0.6202948356101381 -0.11507640685156954 0.5006814601201635
Ni 5.9899845434539465 5.622360988101645 0.44066311282804954 -0.19071980451849735 -0.18019782194125097 0.14316853710209534
Ni 8.045111432784871 8.827572932427351 11.278313216063587 0.020046120017597736 0.07722385478017023 0.5429907624113357
Ni 0.17612340320501918 4.891631136193242 5.682660068868593 0.04915280757556696 -0.4159291581734321 0.6668045491359033
Ni 7.869805653421965 -0.19244606613920615 2.438652099097608 0.03693132580871059 -0.35220796586538694 0.4313637475609475
P 8.56687289278109 1.4737285787072834 3.6605561482414033 -0.39513407580495175 1.1200648396596258 -0.1262967010474212
P 1.8769842714440055 3.1768616281207582 1.4945215209461893 -0.9956319312938208 -0.07083903429974897 -0.030320505360412295
P 4.77663979627719 1.0604716749957757 8.117265607536565 0.37159279814990204 -1.1298897961698477 0.7539981135342756
P 8.510922125331364 1.497778464538249 12.537730389154541 -0.048460152383916544 0.8836022816883751 0.058672059919911854
P 6.171117586663951 7.7260664785269 1.322729265474966 1.3289001228319113 -0.18714931355841963 0.8590775570741334
P 1.9740420939391463 3.1382571344484376 6.171590995385792 -0.9266991128778492 0.11987228557831615 -0.9846687474140977
P 6.906021385700042 4.029602640114507 6.0540392731840535 1.0723523640750112 -0.04398257622853716 0.0948197134850625
P 2.4150801392472805 8.476563854927472 10.073254024970822 0.5305859609890797 0.4509797220196621 0.842663120271852
