# total energy = -340860.939337983 ev
CRYSTAL
PRIMVEC
9.37884379332262 0.00000000000000 0.00000000000000

0.00000000000000 9.37884379332262 0.00000000000000

0.00000000000000 0.00000000000000 13.72688591958877

PRIMCOORD
 96 1
Ni 8.898599986220097 7.117904589233702 13.807737181723056 0.09556559051215155 1.584311453991523 0.3396105888163506
Ni 0.1325840236354538 5.780012538754624 2.0449902739110026 -1.0899747051424649 2.03297306940097 0.6860199457220895
Ni 8.838762963562848 8.57860321881529 7.089620810357924 0.7127460488630241 -1.2007815380844031 -0.7206920431829781
Ni 5.37878560626605 1.5360201231490431 0.8548262659521215 0.675105869912747 -0.23578918605331006 0.2535439389335698
Ni 1.884059633147137 0.35530905173189226 10.894507957517904 0.07208833332581778 -0.8025734513398178 0.16303262301587407
Ni 2.536461378141004 5.199677828572403 1.7033002410820242 0.15056817200027617 -1.3206926473204543 1.6171264436390147
Ni 1.6348918931886536 5.3592776114185465 6.05092137624003 -0.6907266071691394 -0.32072172233164764 0.798984705547295
Ni 6.774976549039401 6.3066815054188545 3.21165183750048 0.5449859384644937 0.4303777294985942 -1.2768658799434913
Ni 6.792468092496418 8.714221298380151 12.787774801502442 1.9672227624780376 -1.9956229108872858 2.8565146383520226
Ni 1.3295730161378585 8.494221762256156 9.021968358058839 -0.5111795314380099 0.8378698126482665 -1.7349526453215798
Ni 2.308377278767708 2.915685543364075 5.893583770488703 -0.884670060831257 0.17065028746213193 0.7591030388610088
Ni 4.431362954578389 8.996064929708204 12.801748340696337 0.10340591249217676 1.3247513907708606 -0.9052352865771183
Ni 8.606786644063726 6.325945650330765 4.91176796115427 1.112169238961633 0.5329542041109402 -0.7050155129879858
Ni 2.4971452654483417 5.014398771739495 9.495079437907364 -1.1370040386171256 -1.207695748705733 0.18910669439510658
Ni 1.9060530215689626 7.261991764638609 1.2184590414470715 0.41386893321029367 0.9825645565869013 -0.18120260905668145
Ni 4.476146933134558 1.5349978291882844 3.9866997833699855 0.5368142012869788 -1.702940096970725 -3.4923574489990883
Ni 3.5907371958371357 8.09832201297594 10.782276962545225 0.8914778277817098 -0.8220133052319845 -1.4633544199894604
Ni 1.2100959265405717 2.845925704096894 13.527310693674549 2.090527727886987 -0.8940782415190343 -0.5068983875641528
Ni 0.06232991930651144 4.149059759910178 10.45762172348621 -0.7897073940104271 2.042321086274773 1.1764054232328838
Ni 1.4589823011887546 6.79724192392785 10.44626957109995 -0.7771938349244486 -0.5021230776626965 0.455994401625434
Ni 3.7849261541628927 5.465352333401851 4.314868337270287 0.647833150239723 -0.8265821555495894 -0.35320529678164975
Ni 5.018337886083703 7.011576638471127 7.089634878623438 0.5557611747031267 0.331455563809384 2.162867000881346
Ni 3.818849431741462 9.116939467013317 1.2470035521770615 -0.22251843708633293 -1.8408826097871909 1.0624901265689508
Ni 3.0479928911110665 5.358480409706028 11.94897979304688 -0.6920684659090145 1.207179985411579 -1.3777747370454274
P 8.600043255460191 4.590156156868338 6.280942206832561 0.5638488368072676 -0.6485826268112379 0.2842215705230847
P 3.403010260804614 9.137291557791723 8.72980518503333 0.7370121204992405 -0.3154067378766374 0.5367023582994629
P 6.807080330944692 1.9498240850080504 12.687705353125319 -0.21112022255172025 0.3948260576462297 0.314218116885175
P 7.8069400976287 4.410072979432314 1.3134751688511968 -2.0724022219308695 0.7497881892179861 -0.07584960014046292
P 9.395725595302771 7.7625687881943035 3.32294963752733 -0.34218940528712033 0.182727273231324 -0.5199205108554336
P 6.561082640148929 8.483164105561345 7.007191091167909 1.0856429105363303 0.12926298276459672 -0.7488620778592909
P 7.726816636098782 6.257620774146117 9.814764827702104 1.4796446725090517 0.17374898099211367 -0.5148670075919262
P 3.9744444483376618 7.552820328208926 3.1291808513982877 -1.5418687114462801 -0.684985333809988 0.626650859735153
Ni 9.074368895564845 0.09559855359644755 4.687059307620212 0.02694747512312133 -0.43887008324032156 0.003159371564588107
Ni 5.618846489014474 4.067229348831104 2.654532579071156 -0.47882631191828495 -1.5479177458538373 0.24890078373460361
Ni 7.838049722104263 4.305142476377566 3.5361964062041107 2.1222407427195513 1.2586665833266453 -1.0261249576763554
Ni 1.608968769266297 2.5246909293267645 9.615065798716293 0.7069332988359889 0.768695053424818 -1.7763422640119604
Ni 4.943541607762142 5.953643071741088 1.640019307026697 -0.6729723685095119 1.7943746960336386 -0.8473954927505148
Ni 0.4546450745334987 2.013947239225544 11.300864179613257 -3.0753278586726265 -0.6942143086074237 2.9258734885618187
Ni 0.28622917863127084 3.6272396554267927 1.7218046996561234 0.9751227555968754 -0.3384600201516752 0.5775705572687343
Ni 1.1825408838184719 5.334414296831656 13.485265337471972 -0.5430786941394518 -0.3028150172545559 -0.5072115479291974
Ni 6.020354786813347 3.7422805519650075 -0.027200522431121078 1.0734599953168933 0.32072660742765413 0.9893414702994188
Ni 1.3484620073027016 4.135329132767511 3.96049435625296 -0.3222638700077869 0.6719449556862621 -0.3323258822294793
Ni 8.271699317183135 9.075925783615174 1.870041075503596 0.6781906794856578 -0.6223221504528121 -0.33858240466215234
Ni 7.48047192808698 2.572222909080203 10.13803293578134 -0.05562633111505259 -1.0294123701783755 -0.09912245462547445
Ni 1.7221151393818217 6.596065727062963 3.863981365398036 0.3469819415797573 0.6338232091138762 -0.14790322357360333
Ni 0.10956646548413411 6.479289744444562 8.315212462421114 0.5627615172803598 -0.48215460496056967 0.7173750629946032
Ni 8.228903653486423 8.5945284953783 9.891882369833645 0.5269877021148602 -0.013890899049479303 0.4221324587706666
Ni 7.499764209529921 0.9253992509660711 7.773659270841984 -2.871528081041719 1.1323629403006885 -0.057417875797836596
Ni 9.392536788452698 2.562046863691 7.0874242851688445 0.1792475422128397 1.0111732214625295 0.23892644613071112
Ni 1.4608299333930614 0.5969662136740866 6.827602178793646 0.31762997078020133 -0.4092365766446049 -0.22601282339283654
Ni 6.308651062590959 0.5275196277857068 11.135057478021881 -0.7783814274746467 1.909370884466576 -1.1171402098136631
Ni 4.873819283869668 2.8693071613828685 11.791724721119905 1.2830185298084484 1.8588818745780888 1.5632399780332045
Ni 9.168063543894926 2.5695686963197013 4.768253833098007 0.04533754759453482 -0.14349892385832058 -0.22688802690893828
Ni 7.564618913554196 6.354269758234354 7.043663538457801 -1.3596960251668455 0.41576795000521943 -0.45524003995791273
Ni 6.344778368433548 0.21342121516916723 4.875967976955996 1.4573840613386384 0.6197402486582488 0.702668610022364
Ni 1.8706854020641845 7.771488068530831 12.447650097683104 -0.9964305159357161 0.4076409500227109 1.3731256683091901
P 0.6207218868227613 1.6584515485044855 2.0643585239877242 -0.08355802452831416 -1.6819362410255483 0.510393802311921
P 7.061003144647255 2.959109589587125 4.7546498203449765 -2.294401810399255 -2.2680428607897523 1.8329481854314624
P -0.1322360685350488 1.1364907613659498 8.681719853502967 2.545327080763055 -0.9852505880594966 2.2358040553607044
P 5.350799136734823 3.0261401853443908 9.535120535216233 0.3032582754395616 0.18742545003794173 -0.5149294853987455
P 3.134297010623919 3.5475757572370323 3.021740569775658 1.6589297528280462 0.1701890315549972 0.3627014091975431
P 1.2225416520995323 7.524027278121505 6.105568146806601 -0.5924762707359732 0.20719646201728187 0.9817909116456704
P 6.856272366028905 1.0418676075118776 2.6591582247724967 -1.0394563846779388 1.8301109730929837 0.3438269408905433
P 2.5059051054423653 1.1822220031334647 12.808831243440968 0.9306282727289262 -0.3205306893667641 0.38624165841132835
Ni 1.3595665582158964 0.1344879289018208 0.788156755676408 -0.03352204301684549 -0.052046069962961974 -1.0963608111744667
Ni 6.065954724769388 5.405749781836519 8.573661506082045 -1.2801733470501695 -0.14443069164397063 0.2294799560058306
Ni 1.928684171360803 1.6353420776851344 3.8579957873635764 -1.0974740988433034 2.9584257114662273 1.6216209890752589
Ni 8.44235675672409 3.5875014947686794 13.152759068371202 -0.37161208142361163 -0.38678930338468226 -0.9452892171752107
Ni 6.0945039249212165 7.242361844823309 10.86909879422903 -0.5346128227602858 -0.2737116721306963 0.33855669363053953
Ni 4.585025929377191 3.00690417696351 5.500719952906629 1.6273566060074554 2.2379820368486296 1.2283067400878651
Ni 7.713057872425086 5.660488554938953 12.529091286749594 -0.6070459410200318 0.6669847834675093 0.08561387861607836
Ni 3.274135569843289 7.95056770969345 5.510891308873994 -0.46805853187881974 0.9493901267174617 -0.6334938507989155
Ni 3.3489599846958797 1.8433554515903252 8.317134187490467 0.7604099305978904 0.482101383125131 -2.1697632137805467
Ni 2.081709384789591 9.04456293036034 3.217925346035814 0.47325216026461714 -3.391437021932927 -1.046112970762508
Ni 5.1777407132126365 0.8425296640076201 6.8050901403165005 -0.9667335030919157 -0.1348834142751677 0.46646316236724183
Ni 8.245738677886072 4.271106652674876 8.63850776914701 -0.9739271926268775 0.4922623828185329 -1.9906465407186167
Ni 5.803637845976193 8.631181016466785 2.884238280516151 -0.10426157562425269 -1.2460890037719508 -1.7474831736884229
Ni 4.979612640542672 5.613941353771567 12.798536086737071 3.4504554094486637 0.3348635610496684 -0.11912615144091097
Ni 5.830217488955918 8.914487747408401 9.223053580140062 -1.5371324823128754 -0.205907053781897 -2.191037549778291
Ni 6.34559432783342 3.081475363036831 7.239943978923459 0.1544076003510244 0.43786683878678784 0.17533612297357545
Ni 3.6522624103561876 3.9946464776172403 13.8777446224633 -0.01122106552680003 -1.3347925770569462 0.014863804485709885
Ni 5.503524227165959 7.159724853188039 4.935804061728877 0.5812657467321344 0.3475355000903821 -0.9392047015440277
Ni 2.9162482739846762 6.768936573711616 7.662347402549619 -1.9181545441964774 0.33738838435405116 0.9660495896510136
Ni 2.9993448289601026 1.7491168303269968 1.832580098090182 0.09714476207381334 1.103181947861358 -1.4711788011298856
Ni 4.0314209236735215 4.258379561805615 7.69269734068737 -0.2173212091561096 -0.12918147879438396 0.48211552419251813
Ni 3.9683013057294327 1.4452329163587347 10.545927288239666 -0.6541940594607443 -2.3736735488473895 -1.192012019421889
Ni 8.706858906093954 1.2138474640112458 13.55333698487735 -0.28390866726835623 -0.6073112788662767 0.017845255711537007
Ni 6.5081203099066895 4.765109106813215 10.79071885973861 -0.5484011347936297 -1.4697232996302818 0.42144520289565485
P 3.264100207109236 0.9923285552116287 5.6010501331379645 0.03341945600071019 -1.0936956056374776 0.8723565335712266
P 1.8163256241141197 3.8111118857081965 11.533095603660383 -0.5763407986266912 -0.6851725101201297 0.39530428283422886
P 6.844623842182463 7.219242995160281 1.081200602123158 0.21411915727904413 0.43883280224448296 -0.0654875401798485
P 1.8271019154986308 3.7676878394851467 7.8127531049395085 0.14712366509510144 0.34405345507905266 -0.3991509102738287
P 9.115748353866378 8.818429630471796 12.310133740158081 0.12790364052322487 -0.27689701183721344 -0.36181617837911234
P 3.713093590443165 7.099700253657256 13.428668705305018 -0.9566061848499268 0.5357086269276258 1.1515392561188231
P 4.185712280998662 6.252237317875701 9.508119782155424 1.0507867220890936 0.7237190029347601 0.21561631064986092
P 5.230468572362958 5.124984717531285 6.139624603965379 0.3730269594932672 -0.29038424769037086 -0.7632725968576661
