# total energy = -340872.33527479414 ev
CRYSTAL
PRIMVEC
9.22688511018944 0.00000000000000 0.00000000000000
0.00000000000000 9.22688511018944 0.00000000000000
0.00000000000000 0.00000000000000 13.50447902660484
PRIMCOORD
 96 1
Ni 2.1545607243825193 7.060449423963965 5.7340016417521165 0.7565869573073744 1.555106807403109 -0.1267006213540592
Ni 0.6823798273648718 0.15530600814844023 0.9517901107150235 0.5984029206330532 0.4292739549114542 -0.7075166821432848
Ni 2.856468331477865 1.3496995327886743 8.026252405155585 -1.3215961329713306 0.04640584095804911 1.9304824696342109
Ni 4.61931087372207 4.532725783478845 3.140520758871812 0.5262518523901002 -0.2189284057422294 -1.4728785574298118
Ni 2.018722521211081 1.5937414181086975 2.734440929998249 -1.4430959268507404 -0.792902246798641 1.9832474200410684
Ni 9.225648746923898 4.650571560608692 8.06812954609526 -0.28364050120863404 0.09479528800503029 -0.17780823866315185
Ni 8.62179524831265 1.1586937833081725 2.57285971725961 -0.8948714268442912 0.3398507298516147 2.115829439876569
Ni 4.042851997119789 6.822368106450541 2.641448690707186 -0.877691829741211 0.699259327230499 -2.444655793593222
Ni 2.5642621056772748 5.55673472425927 3.882389082861274 0.17831037511055098 -0.5505017260764004 0.18394829012261868
Ni 8.873523128962233 8.56593568561737 6.021809411401923 -0.21031135349717972 0.6163592480011578 -0.3198884277970749
Ni 0.7031412416398382 8.124318508590378 3.9831328283664607 -0.13302039292449994 0.847667772575295 -0.8040801177923314
Ni 5.795351201111368 6.195853377912037 12.635277147312957 -0.23757893096388114 0.6410618929541605 0.36166036952753844
Ni 0.7492156926340359 2.046237092726991 11.48961080314741 -0.15978609105411837 -0.02536753223051115 -1.1152381076949438
Ni 4.480833781397866 0.5710999017074327 6.791510634444955 1.826760568563512 -1.253589168803738 -0.9416837592121395
Ni 0.3041993311179544 2.7196705322508747 0.9420769687181092 1.9325298390815429 -0.677345300766227 0.4644029374041034
Ni 1.4105785210052995 2.884739507576037 6.036029886794386 0.5335303883293844 0.8316814244493678 -1.00603152936059
Ni 4.104275371560236 2.235932624516259 2.0328562638831373 0.805131184764665 1.2790626304844939 -0.16435519848203953
Ni 8.781392680744137 7.751570802319506 9.73111135574309 -0.24146926715722286 0.37773979158790427 1.0920742679839708
Ni 4.296010044967551 3.236237697347532 11.820956553063809 -1.8889195585907597 -0.4292287034958156 -0.3474406263837307
Ni 5.458800565282117 3.4261362206100903 5.260926322496301 0.9005065136428814 -1.2602606672866423 -0.12221327500666693
Ni 6.784519423567153 3.402340083809442 8.998290915331262 0.8303850742354474 1.1494975430984462 -0.6924600449204784
Ni 8.90603867222919 7.321487231729429 1.7260475696448945 -0.3483551677782 -1.0147069456474007 0.7734695919953261
Ni 3.054292749083873 7.185049281023271 0.2912493978105835 -0.11367489851835261 0.12179855606675152 -0.3578137420879386
Ni 1.9835957694468054 0.07977011287178068 12.4917372631072 1.7459245709520514 -0.062231495136396045 1.136705019319468
P 3.653255998565868 2.4371894433978936 6.155341815974493 -0.18304223336858153 -0.1488506750885372 0.12363406661359351
P 6.185722258017849 2.6527202536058567 12.999654223376172 0.23493583691407927 0.11818924144893839 -1.1898196397562606
P 4.592645175639918 4.658285236593702 8.209210465408665 1.0991741122535459 0.5525115574175774 -2.271183463301263
P 1.7773564325844227 7.955632594286597 2.1105613998584523 1.79175397058134 -0.6683911768967328 -0.47915695578482637
P 6.361826587981853 2.513302018996399 3.2401969537651976 -0.8986725457579362 -1.2918903783767814 1.1677734585894985
P 1.4309699371857694 6.601744055640035 9.80061932695156 -0.6460004679063585 -0.6404322297899615 -0.06064666714777942
P 3.743079725496581 8.151464004700307 4.485742484297417 0.09645673486785324 0.5611234674563046 0.13457899566087145
P 0.033021176573152046 9.143824729417831 11.558024465777144 2.126199213146667 -1.819584876750679 -2.37624696600152
Ni 6.687766305889141 8.845325767945258 11.296051051857518 -1.9371429123735222 -1.6583126880693377 -0.17299873308965044
Ni 6.0363297605617445 8.546919075324181 3.1490685452743405 -0.39895730620578385 -1.4609686933661032 0.3625103762326595
Ni 8.061741773506238 7.640940449376593 12.759936979125735 -0.08190686207813636 0.2721579544903313 0.49865491660843797
Ni 8.226663118669007 6.0600059478554495 6.164808600137916 0.4664379655562612 -0.5361192321024832 -1.672276349338281
Ni 2.4700094738747858 3.7103335101008845 7.79385392620576 1.174262665858268 1.405103249657051 1.7570440779039807
Ni 2.7174468529298372 4.950279244035854 1.3880307817653832 -0.25970044545326887 -0.1870377276812198 0.18801320422061168
Ni 8.066668930176089 1.000148215783731 12.652143893366304 -2.128897585914437 2.6236271993265396 2.8939151904876677
Ni 8.779408900436987 3.8816306329019823 12.554398885534717 -0.762342628844229 -0.8704963404340362 1.1312699643468258
Ni 5.963095973129894 -0.10634723285649822 8.93052590272754 -0.4077435370388462 0.6800845540742609 -0.42675401670307794
Ni 1.1326924209567857 4.3155249070588155 10.531360027450683 2.7226763775119176 0.46655392230883513 -0.5519209750214301
Ni 1.9934131752459094 0.30724789397136043 10.228710813037852 -1.127599200363458 0.03011250311466427 -1.3829629661145861
Ni 2.0129926255332204 3.440825421768148 12.891200492640035 0.11885798538118884 0.37954059224206893 -0.12362815307632256
Ni 8.547897125150032 4.721046509380832 1.7017531810461715 -0.2734589326899419 1.7486892781813819 0.18844077867633355
Ni 6.274374170534571 1.9257801070998257 7.195956381958536 0.9296126869802185 0.06534510106471327 -0.2382057659146027
Ni 5.961878024290155 1.8589313241914525 10.783083294657693 0.8416917574975181 0.03083524021330173 1.6901007791142117
Ni 7.377254525573212 6.090703794747949 8.654088423647503 1.1449996552280925 -0.47470946153643406 0.23777767723824855
Ni 5.152181944877955 6.454639825701015 4.436586253663275 2.2758201907423254 -0.8993387185870254 2.0274156299178503
Ni 5.818667539884239 7.84789948328064 0.8289738105551222 0.8413539145421253 -0.43863714129390907 0.6409243389350316
Ni 8.765420942550294 3.2883972790978477 4.433534000055809 0.508690446467569 0.04893889179254798 -0.7171362075109198
Ni 6.778771074118993 0.7979262647154554 4.808270100076406 0.7287023150819644 0.7508526259267585 0.5242358504013358
Ni 4.461715675368032 1.0296188869513423 4.120499926407176 -0.4698421061418037 -0.21789713626423765 0.5493239037182153
Ni 3.0117291278890725 6.33953443346058 8.329049249730812 -1.2724579806837828 0.48611256116705315 -0.7020656863310425
Ni 4.537145461465471 1.198775372397748 13.220155556614188 -0.7979423803257096 -0.5195808681278278 -0.18819858075854037
Ni 0.5466154392746295 6.925589270618377 7.586384645552944 1.07823659076993 0.24163278931828064 1.5909862949085374
P 0.5530142841258313 1.2311340586171633 4.513264437321448 -0.24874960286872 -0.1655710731670116 0.47459556166638905
P 2.5874677218283524 2.6641246836506807 10.074449288288339 -0.07347647192259603 -1.0218134747851952 -0.1798216695487548
P 3.6012163663224963 8.481168291748602 8.73072693169953 0.32843606025676986 0.7175038752629836 -0.35096175216311165
P 7.589325253850101 3.8710658494057664 6.652455016421873 0.042004112345927665 -1.2973385459755462 -0.19264967455135854
P 7.724185407195688 9.048308014349855 1.0848740886693262 0.5015294099427555 -1.043957614982402 -0.8648764231440976
P 6.381184593025576 5.754310015966241 1.6426983480236095 -0.9387339325551962 -0.6214220072360459 -0.06465398853495961
P 3.230406305933027 5.1473470570596 12.5440131036104 0.7913534142542823 1.3704527494627172 0.5920816064007158
P 9.093399802075627 5.956480296477679 -0.004324641069586555 0.4225811162723109 -1.3198387839605914 -1.0309835713202373
Ni 6.678687050901998 7.741725715864953 6.84100456907557 0.8561637258614481 1.4463869388971864 -0.2028045035971733
Ni 8.622016693556237 5.566173827767243 11.187866746167748 -2.0531194624418574 2.793557063682879 -1.2296869082648436
Ni 4.664808644394423 2.73758914321127 9.222370434630268 -1.9269446316842813 -0.9294072558376315 -0.8190981884677183
Ni 6.119048785927316 0.9637850614094177 1.574946253059097 -1.3282540046074802 0.8772192609801667 0.0997919698886733
Ni 0.6773253396799571 2.5225289041459327 8.594872120134823 -0.3661065782243501 -2.136684686059023 0.7098522722549968
Ni 3.8088950972682065 6.867459894176313 11.088865036578794 -0.9303104843781913 0.32210471872210333 0.433134466308125
Ni 3.844086437228529 4.805214155714881 10.080918257466676 -0.8798194176071751 -0.34108023138334165 1.7421725601087867
Ni 0.2693097103020217 5.777617127853962 3.979540801977747 -1.7001661337700138 -0.1312123931814837 0.3140507380693753
Ni 6.135860170669767 5.442044541850563 6.6950887619438095 -2.3732973964548933 -0.6812986289870202 0.14570107371596197
Ni 6.928947856812807 4.477198388648949 3.6971621315499252 0.313488437808002 2.006294788778835 -0.5726108992706138
Ni 3.773823706814828 4.768085169873157 6.1134914330017525 -0.8224069411259772 1.4056580937192567 -0.28390301084140135
Ni 2.136273038016143 0.5141903194821374 5.876663126491636 -0.2767131779611815 -0.9162226388265575 -1.0036748562029554
Ni 3.9803029426910985 9.03136745321531 1.7857916509881266 -1.5280827134057813 0.4207882860379463 0.2927571187979216
Ni 6.213873484609077 4.3864150656626855 11.395956996191128 1.6016458315049125 -0.8175907506842566 -1.0996783055834738
Ni 4.163521201105393 0.14170557943802722 10.736209795409545 1.1771541284734501 0.2693557091548458 0.44296019414929516
Ni 1.3001419326505277 6.914387832046843 12.052707304676138 0.19860049281815476 -0.15518998704300369 -0.2643104334214545
Ni 0.7091894648553577 0.010932013525167806 8.193167680199169 1.3585706533131507 0.7890029117442346 -0.5895321005059846
Ni 8.657078857124466 1.8577226022368634 6.33773334547939 -1.37728442767257 -1.01228625202105 1.3658422472738994
Ni 7.913188922598742 0.9785111701080739 9.932058151283702 2.109040956199826 1.2479445689234507 -0.6209846625883112
Ni 4.500477819881223 7.523177714213092 6.462230784113537 -1.6721709341086686 -0.6955361127426408 0.5552230428114696
Ni 4.829545451854202 4.151618519262495 0.4972608306097725 0.9117615177314103 0.6095504526094406 0.30289189323907834
Ni 7.337449743038123 2.8083870329636436 1.3253267156661805 -0.7578611960341077 1.2209050483071553 -0.7668279183090924
Ni 5.233221677146311 6.848166477328638 8.77213165611955 -0.3793611292414112 -0.33752953791760576 0.5523688611921261
Ni 3.0771385167141188 3.1705699557382996 4.206941999930586 -0.5164451507123236 -0.0003445278236123099 -0.5435990854192961
P 7.44066168032081 7.646836428987146 4.490982432373838 0.7815300004059572 -0.27640515980245944 1.173024936796425
P 1.1880814125094379 5.291268011622029 6.137664026716501 -0.05929580954683982 -1.8723043186315818 0.1570866898450843
P 6.519458693876492 6.690506690778552 10.574966286667381 0.7918313823319654 -0.2524190813005072 0.3303610451936246
P 1.12033762174156 4.151277124511962 2.8009234055661856 0.7877384432095142 -0.9161233942445319 -0.001270124961675232
P 4.741843908507882 8.225399035403521 12.542879119425525 -0.6403283572222456 0.9526032343381207 -0.05112458658995711
P 8.537747551485545 3.4464815023648128 10.07608336964832 -0.48714074532125134 -0.46600473467358455 1.3001191940444772
P 2.3369116555927585 1.7853653688942182 0.716466709172795 0.9162414078796349 -0.8652122092169614 -1.950118241587267
P 7.927306056877528 0.09653997663105861 7.905724372512768 -1.5680677384391513 0.4498049849852705 -0.6952967430383251
