# total energy = -340895.4202620962 ev
CRYSTAL
PRIMVEC
9.04524170221463 0.00000000000000 0.00000000000000

0.00000000000000 9.04524170221463 0.00000000000000

0.00000000000000 0.00000000000000 13.23862553823954

PRIMCOORD
 96 1
Ni 6.376425185302168 2.0099341568467595 11.464597170235164 1.170187724457946 0.510837574717559 -0.48265494163575584
Ni 4.47345101389575 0.2582570330906562 6.106766624799456 0.6430100178194669 0.07281826951330686 -0.16169796336485057
Ni 2.8287275439106603 1.5877565365133541 4.97481068180165 -1.452930396442659 -0.4850748639311581 -1.5195649057427572
Ni 3.6841903416278505 4.50224201885614 4.918057216038701 -0.7075848163770588 -0.2202918617486593 -0.19769032229905953
Ni 5.1157717315354585 4.803891790902648 2.5776262016852773 0.25726072566352465 -1.67291398292228 -0.13880100416201901
Ni 7.1677662632065395 6.104669937727569 2.539936487745927 1.0525026763389358 -0.0322460045178993 -0.3239600267632872
Ni 5.090074199304084 4.684711683658509 11.418950356998405 -0.3044386689009079 -0.3844660545681443 0.18236629034747948
Ni 5.669042042692279 7.811669898178346 12.286517497423102 -1.2830468119432228 0.7631646105248922 -0.19799731201651707
Ni 1.8342936496771562 6.505464606214804 0.3293906244225747 0.045847654461733944 -0.13338806067656384 0.4135948536133007
Ni 2.680756431706132 1.4035863662342167 0.4951681998269223 0.3767900260801253 0.8207416376084123 -1.1867970508798529
Ni 0.3618132940048923 8.845866675794154 4.791376794212986 0.7712944387208781 1.6125542508873005 -0.3812925419361691
Ni 8.443516225700515 2.1049091967726445 1.3976418332590461 0.5347282652922275 1.481312804240094 0.02850093565317027
Ni 6.757808764676931 0.600652001789559 4.895259588359729 -0.03432988363012152 0.0559258646333424 -0.46141788663385047
Ni 0.8124870444128222 7.513565860955738 2.4115609875885826 -0.0350518493978106 -0.2997844579583482 0.47526533403990406
Ni 7.525623168405376 3.881421841207272 3.8162725819148737 0.46171330638708225 -0.03459573569699848 0.13750979615442124
Ni 7.771545205120134 3.9247304594134755 12.60115985493147 -0.3771183559538215 -0.6481002878581806 -0.16395693460235636
Ni 8.017639101430948 8.833130975202188 7.088423210328265 -0.4793310194688455 -0.15214014447308638 -0.3982751925370947
Ni 6.77734648717597 0.8153245367961317 0.32465905838588616 -0.8077241423028219 -0.9278090581125762 0.4075566178390207
Ni 1.8142855745994366 6.597861752199843 9.124498116259387 0.3910318807111201 -0.27098450300752036 -0.14750933056929433
Ni 0.23607448186072855 4.721959989793252 1.2256058549856774 -0.6510948517101303 0.13625021271570728 1.6058603838068923
Ni 6.498680674791526 1.752009084133749 7.024428123902013 -0.35174645284793615 1.0059302278960354 0.03291654822236266
Ni 3.503249322706193 4.343516114035242 0.7385295285604406 -0.04337759565468659 0.12092309544033367 -1.1722998857049423
Ni 6.076846773650233 5.684970713674134 4.838532353798282 -0.5487268935641646 -0.32923387356771683 0.007929025039089571
Ni 5.3827420461461735 2.6683192240967895 9.30643592083817 -0.11889166683260169 1.93713108529898 0.37155680270564395
P 0.19808175231780523 5.594943421066293 12.413038722991416 0.3420472232823012 0.07618718598553975 -0.20724325609481728
P 3.8655836226443934 6.14361874933908 12.650499840435064 0.5785306071891585 -0.2209040414113615 -0.7517725666378665
P 2.4089016864706583 8.512857050088309 1.4484779017725185 0.8020756857677929 -0.33217624402549245 -0.5245335841474128
P 6.369767887265458 7.722149139116776 5.815238478436478 -0.14422808871486129 -0.4154501616544845 0.3160163464361783
P 4.644659352535478 1.2523861026722078 12.495740274186307 -0.1669882652295124 -2.028724321426945 1.1704173239702487
P 4.084071440683417 6.022530096054526 8.041789897297818 -0.26758550462830044 0.7172218252461905 0.72244322154613
P 4.687461437195411 1.1200994399182966 3.9150719501151077 0.5234550063712533 -1.7826576647070267 -0.3058851715394474
P 0.30280304038846556 5.636207814603616 3.316593519953567 -0.7036780251234848 -0.7395927367422229 0.9832458989246421
Ni 1.3021258878676785 1.082190831125022 2.488887856047859 0.046425381342074884 0.1004673986891431 1.700236324886317
Ni 1.8102875776806517 6.70940767528232 4.59932369562 -0.007154608766910259 -1.3802288550128745 0.15972412746793135
Ni 5.892170069824824 5.47471406576202 9.281071253508632 0.3108867385190968 1.0979209565727348 -0.5806851916383161
Ni 8.655391971912318 2.4452997398670164 10.06324859684644 -0.16288452747378399 -0.3129991568764094 1.0405773856562595
Ni 2.399295639575297 5.424078801618677 6.699419919178877 -0.9188317943146305 -1.0123227616859403 1.4958174256141723
Ni 0.4110130782590701 0.1800699621269086 9.534723353949168 0.2066624438906828 1.071528325511819 -0.3568809458610241
Ni 1.6628863157156781 1.1553397023517489 11.461764200472803 -0.8418043718159826 0.5240250199421104 0.1272896610883098
Ni 4.059531699414948 6.81122091808287 1.5777524989744944 -0.0825151850860966 1.0154376531658382 -0.5051423241049945
Ni 5.625118348037031 7.792801523579737 7.90964162674494 -0.02270798312047702 0.23495563440842115 0.9989648523217957
Ni 5.23703224441607 2.8490974286642885 5.094315513229917 0.0690909412603907 -0.6903679382781401 -0.7933339350194208
Ni 0.6852711442667635 7.274264941310098 6.700955801253107 -0.36921067107097055 -0.1182712596397834 0.9704325492100576
Ni 5.091042040187138 4.256971239558017 7.1572511695004595 0.7707820178608338 0.6413503707288568 0.22394822755432398
Ni 8.44821975148732 7.328798704711351 8.977495749462102 -1.4465314348948506 -1.1631727265926934 0.340973016381516
Ni 4.745929880822166 0.38801464620996956 10.39277128180072 -0.7785431498634914 -0.6761911325571258 0.02548991674098836
Ni 8.118737770121578 6.97490361546371 4.69502597299446 -0.27998079296885975 0.07948925377557924 -0.30133251917175846
Ni 7.268394579318489 6.021137128802279 7.111869381851302 -0.08455509833426084 -0.35269133325970875 -0.47198357796483875
Ni 2.3917699983164082 5.065923403437217 2.7752394104727816 0.09404015500656063 0.3598929932144705 -0.4084436484296643
Ni 2.3255407371414245 5.269341848474666 11.277760462644585 -0.5381735435283506 -0.2438961314311606 0.9821470094335085
Ni 0.9168709449606981 3.3436369841793203 3.686057279555537 -0.21538799668913872 -0.2562482252386103 -0.004858356533565827
Ni 3.8672479471535706 2.5755783589196373 2.6126032475795067 -0.1635360450148538 1.04486495728802 -0.09934742615208696
Ni 1.0918782851974622 3.3455183944940425 8.004536164017935 0.17495328571285998 0.37888804625973455 -0.24015723321401866
Ni 3.5537941344305595 2.552847666030709 6.908219378621271 -0.48957043780866655 0.4203388572053535 1.26399853706252
Ni 4.1706072699187455 6.856058182169785 5.999585935456811 0.20093119783386038 0.5484368731275716 -0.675331612770308
Ni 0.8102682465753156 7.477068309898504 11.388806183850118 -0.14655467996550886 -0.36564377965531863 -0.01845177894728435
P 0.2656506138178389 5.51039754504846 7.988729603801699 -0.15570369345462862 -0.14901856812496916 -0.20374295625104266
P 8.495155511694504 1.7724694213063539 7.904294079735018 0.10480304995001952 -0.9354364927508471 0.92642477617054
P 1.6007364586365584 3.250389585455897 10.460486676219498 1.5383907802000087 0.263297675886224 -0.3064729257221174
P 4.080091534248427 6.237924441364535 3.727877955469568 -0.8094490954137286 0.7449437166414913 0.7330521074102277
P 6.950924679192897 3.93672445016983 10.425113448730148 -0.0935704144589937 0.30993723012163393 0.5278346234961877
P 6.47727963246156 7.787582419004763 10.134327012202784 -0.2785941970339783 -1.2138725669404062 0.20155083369573032
P 2.3269246591517727 8.386142256343382 5.902917626247676 0.6300655418436568 1.1316461167393221 -0.19745558058043414
P 7.019116757859683 3.9129083282531774 1.6842050463443752 -0.22477817965478708 0.6691784486847185 -1.1406223520960033
Ni 5.5061643718403355 2.916819154752393 0.44168911163094116 -0.48992704981713686 0.6709481389906315 0.2345026060314026
Ni 1.3452445559940303 0.8512323380816345 7.254038875902643 -0.048336482321858686 0.40380872076081425 -0.7834526713499669
Ni 6.961923693340505 0.6127192590052851 9.320866699761767 0.18115015855219124 0.7068407391221827 -0.5886059891472896
Ni 2.8673235910881605 1.8193147290945595 9.209833641894889 -0.7678319340935744 -0.5239903100494331 0.36757364968817985
Ni 6.381897556650278 1.9043309576910732 2.686646693229916 -0.29623042205850275 0.024294610881306543 0.10130634965067067
Ni 4.041287446507281 6.8523315425079305 10.324221916078976 0.25074992112820044 0.5201562810153235 -0.2770062837215681
Ni 8.140998110431827 7.17914517751385 0.45581416137839464 0.6229369012186755 -0.644452149582632 -0.6589734831272586
Ni 7.63308968739199 3.8439021778155986 8.320291086279722 -0.12926426831617738 0.14618469822059985 -1.0705705895842401
Ni 3.048327926703102 8.232110832067393 12.33768462179003 0.8207256967688124 0.6246435994971371 0.04389850115516311
Ni 0.03216759376080236 4.969085043680405 10.193159074553824 -0.1593718863348352 -0.27580172189050567 0.1542440781899666
Ni 8.85254206431466 2.4483389411446446 5.753930733378034 -0.7180188672261892 -0.32008640274049394 0.12166640136426142
Ni 3.604275629461642 2.795902361063895 11.580924408184767 -0.6204120779142928 0.9224382807189663 -0.41098081302922124
Ni 1.1992181707975076 3.3571143946068984 12.779841372427082 0.34514745947417974 -0.47987866444219934 -0.5831866179039311
Ni 3.114729047474142 8.467015764150748 8.066202100655529 0.7139678370852672 -0.5762572377739495 0.2989167106414143
Ni 5.548559420614871 7.861228778535863 3.4189675677517735 0.5394403260559161 0.41335599812961715 0.37990028957433286
Ni 3.0995239958441028 8.409370437536685 3.742373860134827 0.7671642186025885 0.7543644957347588 -0.5659568842892059
Ni 3.204702068630597 4.40858758424732 9.20762298477509 0.6943960856009267 -0.7514370376753187 -0.26137834737632404
Ni 7.2585081299243 6.195339442510147 11.504047992771998 0.504261464161938 -0.5424791128822399 -1.1170875021988567
Ni 0.4576865264512192 9.10964402001498 0.4370299075294341 0.4382864428227097 -0.04624077613509456 -0.9116854130778362
Ni 4.484784701993573 0.4069987999048693 1.6666500408693126 0.9044148475583521 -0.979710374967558 -0.1993779944141276
Ni 6.008048663776302 5.6538369910622395 0.25199229855230687 -0.3900867431890314 -0.4994234193433464 1.0614858536741525
Ni 7.8849001765821525 8.760190144539107 11.704242713597106 0.09499969070635252 0.33166125206228686 -0.9782857267058894
Ni 0.1573311285202722 5.044829899331773 5.722766256943688 -0.3404274282906911 -1.2430661577852269 -0.4069259262335573
Ni 7.885343393435139 8.717170974073632 2.3846740060476597 -0.8201009187006199 0.5668516281893334 0.7007402826513996
P 8.33176226205439 1.5344257902844955 3.6766176651110936 1.1427106020835995 -0.023510681527430476 -0.11289816825332814
P 1.9620938724498065 3.0923963452287127 1.741421628492487 -0.7845937269329455 0.1949572396386126 -0.687122434757649
P 4.666087530591138 1.1086933898852926 8.188473871580303 0.3449811090996446 -1.4610049459206773 -0.7275376053499018
P 8.582894358102225 1.6894521911692328 12.392161400167328 -0.08063030935855792 0.022493553116825778 -0.060275399851289733
P 6.204429910617339 7.766298964819466 1.1449241063065434 -0.30868870242651353 0.2573921090350664 1.6676468209860698
P 1.829852435905384 3.3485666410135684 5.7604044130042205 0.17349212778630121 0.9548683762232136 0.36814469170030145
P 6.9039165570505325 3.8465524336916253 5.936861705517187 0.849641351361898 1.031082558791947 1.0954650388330747
P 2.3359156295980896 8.553054105081703 10.156130567797195 1.0558595086263107 -0.14570621592228455 0.2597672941354623
