# total energy = -340872.70023128943 ev
CRYSTAL
PRIMVEC
9.27659003440611 0.00000000000000 0.00000000000000
0.00000000000000 9.27659003440611 0.00000000000000
0.00000000000000 0.00000000000000 13.57722720744374
PRIMCOORD
 96 1
Ni 6.1221135557135975 4.3853967147674675 8.163321483914912 2.2923472418630713 -1.2079063220546424 1.0778542677298468
Ni 3.6071650067277665 2.3663468500027576 10.866275904227308 -1.1128248702677608 0.07413210322872393 -0.3655193382623125
Ni 3.7414436503871693 6.217439796973979 13.303592380168022 -2.6285277219519507 0.4762117571135734 -0.4560715347202727
Ni 4.878781443034758 1.396006234775313 8.674477376096421 1.2042949505543 -0.42971284222108574 -0.22819826107992955
Ni 2.801177740703337 3.4082099759461957 4.47293618618414 0.5541179826727489 0.8562837963790803 0.35231312398468356
Ni 5.612689602929062 5.260847088475601 0.19451432703581834 3.121129747498089 0.835703144014251 -0.16571685471625652
Ni 0.7890352250280083 7.798087283797429 8.205913092663334 0.2390524301856141 0.7812471790582158 -1.2414214230929521
Ni 8.371092986056336 1.9176196271293442 11.551519071745982 -0.9078665535523783 -0.2912010871647114 0.03676291855164636
Ni 5.11988929984661 5.272711847386853 6.408070943337202 -1.0729748281503584 0.5742366077994949 -1.0771873235698095
Ni 8.107758419040136 1.4118135445366686 1.0572724699836893 0.537104735944204 -0.19324077116813815 -1.2059417421291039
Ni 0.4368763788475149 0.0013849949221657301 10.146031234090927 0.8670718881335195 -0.5457266732852601 0.36156575293120313
Ni 2.01603497293816 8.1235935585722 13.531404100195278 0.7180790310401634 0.05195273891820731 0.7836619591472954
Ni 1.8716170161513142 5.691549896521365 8.656908441849337 0.14121218470667293 -2.1589172722049788 0.9675896804446239
Ni 0.864976175673188 5.664944635725844 6.452889861401177 -0.39469030339931377 -0.9504923586427049 0.01451336312482662
Ni 5.582549961253801 6.246364205328385 2.4141806598932827 0.30351589997632245 1.3403412747893173 0.9518864107767541
Ni 5.857971925346906 0.2635117498896982 2.370624285760364 0.3097379696266343 -0.5920163003804192 0.7687367052960309
Ni 8.853095338104623 4.562830056202591 8.491564352809165 -0.6102559633168975 0.39218039249326647 -0.22859678206992887
Ni 4.736153868163371 5.99856792695671 8.95882527531416 -0.46909262957028885 0.4448949492781628 0.3335880367713545
Ni 0.06680629224024597 4.009500001833258 1.325976327428218 -0.41886792908678183 -0.2778488342275215 -1.3237098368802236
Ni 5.322517860361454 3.9290534113106776 10.727123340058153 1.1421485589325426 -0.5671416486259264 -0.48132413863947426
Ni 2.2959560832955 0.04519647528656164 3.585067241127693 1.7508384633139007 0.34367421736276293 0.00100247312258537
Ni 5.831199685927145 2.185212149063655 4.137524368355862 -0.8101252955451467 -1.3337875328311997 -0.5163603043080011
Ni 6.3296494324630395 7.23318932140438 6.993643642388192 -0.40281961737466754 -0.1193655211452267 -0.009398410495764458
Ni 8.249634590102445 7.039410627974239 5.383533704976676 -0.12450541347495331 -1.5324258208658255 0.450381683424347
P 6.785213502340045 4.030873265735936 1.488226673624837 0.7091192507437143 -0.7671868443104077 -0.14309654621357934
P 7.812401062530863 8.965833739237109 10.999496088940836 -0.8004438065913247 -0.21945085390460267 0.2924395875575028
P 8.02329506494557 0.9666949152648787 3.176134735046687 -0.407205405147189 -4.6468637581660355 1.2813290579211676
P 8.896166546568223 3.7704608246439304 12.755506382258837 -0.18109462272390744 -0.5751686326954611 -0.0794817975764115
P 4.506298515307226 1.4347731053696235 12.927054654848535 -0.8202675261854712 0.23997648466178026 -0.30433916720856624
P 2.587853271646919 9.256126077477779 6.7189897799665905 0.4979504343422456 -0.022831396072218745 0.004063885656728485
P 4.0078580453615675 7.942384644911212 3.245011562227505 0.7427374530187918 0.43867802183417354 -0.566618943353237
P 3.0189828028435186 4.928309158302293 6.376124221884058 -0.7555988823624922 0.0815736471084337 0.40238947181578444
Ni 1.3500778365191675 2.1063240257006455 12.335210053139297 -0.40749568269409825 -0.09058999167443109 -1.2262478006763076
Ni 3.9483208892298887 1.793053573446548 6.2152199089306155 0.5291201750768306 -0.11425365383995806 0.37962286754323005
Ni 6.558206062686209 9.129435684631046 4.7309441350870935 1.068676457885321 0.4125000778872251 0.9016480834464924
Ni 7.540699011122208 5.158572681128802 11.088114427801901 -1.8770521177292125 -0.8965835244393915 -0.5682346245797891
Ni 9.07868345945242 5.940682003886958 12.582112068212266 0.81720997030607 1.1675022072059829 0.7666386851164216
Ni 0.4901536918882532 4.307983569251908 10.755309331829809 0.5759103959574919 -0.1773708940154171 0.03137928564222983
Ni 0.08745319912748149 2.1969006527604322 9.391747971403289 0.8659280043370635 0.957940073170002 -0.6552332993585361
Ni 1.6454722993893842 3.1519348940992407 7.437998808283598 -0.22904698223347003 0.6961737463266398 -1.5269977078717185
Ni 3.150524852383439 7.160312428513999 7.4090113191155895 0.7627612044388864 -0.01125191876473546 -0.28790724690478803
Ni 5.824780285484154 4.470444494046874 4.219748353567571 0.9638530962203271 1.0676104785146516 0.8483108054759326
Ni 3.981354827058637 3.532516285102397 8.400801266285645 -1.3635025433971293 0.9062691271582713 -0.2321575028379937
Ni 3.4884153751226523 0.5179222370993107 1.2765163312694032 -0.5515101127362566 -0.27039340639074083 0.15029254974138634
Ni 9.035528761676701 6.761335559073771 10.042857925150305 0.42524143671329345 0.06965632684555745 0.5521282059362297
Ni 0.41146779819237805 9.025565703763734 2.1574621570330685 -0.1470917834159015 -0.4399268066396101 0.3282951638035314
Ni 1.5388842775830598 1.5474651235509316 5.423043630448854 0.06822242261250831 0.10995322669239127 0.7498154429114957
Ni 1.4197543057782884 4.92274320416097 3.0355832610700126 -0.3295758302881679 -0.357618595357997 2.2915378585878985
Ni 3.258532192495801 5.175966287820434 11.132064129360806 0.014402034357942939 0.453253091434871 -1.4074532379464664
Ni 6.668634592850046 7.62704551303459 9.321228260091758 0.2394419523145489 0.2938441812145133 1.154630236339321
Ni 4.763278618012082 4.096597907554718 2.333002146401119 -3.170733783678462 1.4485906314167245 0.4648600795461801
Ni 1.8962185334559594 4.49211460883709 12.800080398340594 -0.8245139601666509 0.423836843056283 1.2581389929579494
Ni 2.3527659218979315 2.704849627697517 0.7319405951053464 0.8050283406382135 -0.22083976383232934 1.677835074372981
Ni 8.390369740565783 1.9293266840065921 5.340738011243072 -0.6731901409472728 0.6034571952275091 -0.7456703103948706
Ni 6.278331335280046 0.24882597988781902 13.287204355857922 1.4759194011386645 0.939005441049028 -0.17979775828935488
Ni 4.714066306812557 8.12905747022093 11.926521521381487 -0.9891895181025868 -0.12482628714948181 -0.9949089370848672
P 9.28911363235535 1.350105666289874 7.3527339567926795 2.0873940673540115 -0.5550502646790312 -0.2200416934110662
P 1.235873734129467 0.8174447826243415 0.5178545179905913 -0.3111315075400513 0.19519429535008317 -0.597296574942752
P 0.4796832044894021 7.068520568133356 3.6969837363653095 0.5822237397700295 -0.4576815595198699 0.1737050151280557
P 2.6260728234173336 4.763018873485488 1.394530329268839 1.2371873304069465 0.6949583858623 -1.7075053477439044
P 3.6710899900408545 2.004021788583139 3.103414616531286 0.4474999910011777 -0.7967244487582085 -0.76119694527556
P 8.220246352236263 6.563540102071643 7.722319805389653 0.9270819501385646 -0.2108669688903336 0.5227009018140482
P 0.678832116006895 3.759449512034348 5.0793357579729355 -1.2387454189226859 -0.18598331827477646 -0.36835449371826234
P 1.9987990682805314 3.384007352021679 9.5088788380123 0.9809321631898009 0.2577680043172464 1.1699082455443142
Ni 4.224262342376183 3.697964271953206 13.04136172738985 -1.1975573747201504 -0.6562671399396891 -0.6767156376020281
Ni 2.946912973303629 7.422060698599921 9.935719801543012 -1.1907336669300976 0.05664268819470889 0.38088425075415694
Ni 7.9182284039378725 2.865139830377367 2.906381695246519 -1.0850140187030797 4.008088347253207 0.5827158489150996
Ni 1.739017435324543 7.605978376609684 5.506149819391963 0.45811736150570775 0.008837652896288005 -0.6817596277838387
Ni 6.785853587066296 7.36784830526344 12.227868772205849 1.7585684849683068 -0.8323349988729666 -0.3632678232239744
Ni 7.664606426898281 7.674819952747607 3.160968437670607 -0.6430789233841891 -0.1312818129668384 -1.6520196559717744
Ni 3.277827500185718 6.041871050176199 4.284551829975964 0.9493657012374295 -0.3365273219053365 0.6179546175127357
Ni 0.9205911894532816 2.1993403959923783 2.893510426294711 0.8063357465957275 -0.28868629116265765 0.35455229772784747
Ni 8.328216585987683 5.115167515416721 3.524607064267578 -0.4339140247866269 0.45363052937894777 0.6051777774630417
Ni 4.6274322306028735 8.236434002197276 5.700385848720715 -1.494657086757484 0.32389446363267443 -0.7525798930305103
Ni 5.8206429262391035 1.2598258901176245 11.05761949272062 0.0990059836522682 -0.8234598078705238 -1.0111066298906521
Ni 0.19708487019008575 9.05588160065347 4.575444363604875 -2.1205350728823547 0.7982498842637994 -0.07794119256216898
Ni 8.912901515353132 8.296731838728268 0.02881401693060264 -1.2684784272107443 0.16672189894200318 -1.0005414527802963
Ni 5.184519304017599 2.3075610976801575 1.315698793106266 0.7401192986696544 -2.4878094461625606 -0.7362323049104225
Ni 7.540856713156213 2.4679533428525993 7.62176713319057 -0.8233088841149563 2.2721843937619512 -1.2678153397054488
Ni 2.8826911391030037 0.23783693109480142 11.683244797772566 -1.1005118572283625 0.19542055242827633 0.09848199282799813
Ni 5.125529466709817 7.956002679376981 0.7021070809078582 -0.71006258849359 -1.6228844291687146 1.2400507679976707
Ni 6.431469286888297 2.648253150670503 12.860893085629659 1.152802181991647 1.6940960163165342 0.5495501607964084
Ni 2.475420997992207 1.1948062691567427 8.685460858935297 -0.3708926867590838 -0.8185351168753968 0.3402718765494333
Ni 7.699291597788955 4.442790978554737 5.9403489742975015 0.6597147321686574 0.20016243798863592 0.17684227520545673
Ni 2.4546507124548382 6.926523801397985 1.984665255397667 1.3217840806124204 0.4009720226429675 0.3885721063167179
Ni 7.355566099791589 0.8766173687597638 9.043411080399837 -0.38093387304516974 -2.248229682718567 1.6382814804500754
Ni 0.21765199840129568 6.421765973501925 1.6488183654873423 -1.6872409410679137 0.7535412285025151 -0.98992382516545
Ni 8.140245038044988 8.90552662611588 6.765260484402427 0.37969897219680415 0.6824898210816439 0.7855231807257504
P 1.6028741970277964 7.117593730479348 11.770546788479209 -0.16233431139726878 -0.9926831330781422 -1.4546934018803528
P 6.076185157457451 0.19451618235386545 7.1777097458417245 -0.9268739478928166 -0.5424084075453046 -0.20620144509386423
P 7.281260612004934 3.2390235232304656 9.809886565634041 0.277458026547006 -0.13874752521626427 0.02334561670447592
P 7.225072304948285 6.957220038487378 0.7474863050220599 0.41863575847131773 0.1935891556464924 1.0124508026233725
P 6.009449367302996 2.9657351748915346 6.142554522297604 -0.4613695498944183 1.1005316547227046 0.09429880798458598
P 5.342564571860449 6.020692594668468 11.132240384575281 -0.005078185853855771 0.6519422873120901 0.03408562882979936
P 4.178779220451344 9.099481574760496 9.928497048385623 0.23396884501511964 1.194505475267704 0.048787196706032106
P 6.040461008460397 6.632873337492049 4.664388310783207 0.8324481274120632 0.477000828673772 0.26943129958778755
