# total energy = -381171.57933520275 ev
CRYSTAL
PRIMVEC
9.20343530051039 0.00000000000000 0.00000000000000

0.00000000000000 9.20343530051039 0.00000000000000

0.00000000000000 0.00000000000000 13.47015785979139

PRIMCOORD
 96 1
Ni 8.273833015848792 8.826692571190712 7.354692385755926 0.2738430555022381 1.434140774539982 0.7420530253572576
Ni 2.5051566520444073 2.2473316186114944 12.887196638100612 1.2071244495832953 -1.2526610005625136 0.3062384411138081
Ni 5.579693025598081 6.3301043173088685 2.403709026624106 -0.6863781003924565 0.8746358165237066 -0.5684840215864339
Ni 9.348849466736379 8.026619543190785 9.739557378827026 -0.16124750609099328 -0.10398235382093704 -0.19710668188144762
Ni 7.43117569322139 5.90595480310921 1.1820735700566323 0.7395729392478811 0.16577650430959834 -0.7321031132333972
Ni 9.240709103245385 1.7925714789674916 10.74622267758367 -1.5458323240797183 -0.013428871811396226 -2.1874495753167165
Ni 1.7331448979409936 4.240151440458736 3.4319674250252237 -0.9245766672182077 -0.589516673887017 -0.23925066223934924
Ni 4.0328900799636545 4.5830530287946925 3.079170303172203 0.7339126556383102 -0.003933273616135161 -0.07433804859194294
Ni -0.040574264381821226 8.451054363881354 4.366607560322788 1.6614725738545577 0.8446963486517969 -0.8004222093247698
Ni 1.8095702237647568 6.153011817368977 7.032163521558154 0.8113170018604027 0.04230570274674649 1.1836608192437164
Ni 3.825140937403466 7.805902760446866 6.565341359753189 0.2974468109641071 0.4211523542455844 0.5826420582543708
Ni 1.6002749040925262 8.750313262542903 6.530844123627802 -0.6955317418672666 -0.2158878191436927 0.3715395763144633
Ni 0.7170083440295771 3.409845127857283 12.29842896001857 -0.9217384264384643 1.1327470631129846 -0.14056940891635145
Ni 3.408317357615623 1.2592232062299056 8.74649659796931 1.8525772725162999 0.1023432755556173 0.2119632872783059
Ni 1.9579203956040203 6.022341444531092 1.9114688175094035 0.9051743514321959 -0.5619518768948708 -0.25799580405733635
Ni 5.68062709933474 4.676007724220994 0.08325519507879893 -1.1071496742598546 0.2964818759476765 0.44980781319874796
Ni 7.6078816488832715 3.2089893582549456 0.4953021920026564 -0.22864074793398687 -0.5137845731610248 0.688048289006028
Ni 2.923434374592384 2.3281101692804698 2.442166500912061 0.2100727551238124 -0.997445844574108 0.268842259853537
Ni 2.476230255239965 8.022689676364346 8.827169309133591 0.23552513375864598 -0.9580192631473694 -1.3212955710117762
Ni 2.4503962126596055 6.884859780300076 11.220438879220861 0.5115898795025512 0.5944202818362214 0.621940084523045
Ni 0.3747454740958573 3.3295543592534163 9.23237907405426 1.4066757363504934 2.162733560627275 -0.03319011359872349
Ni 5.2595147187480205 6.803289734204697 11.665062355345801 -0.30127646912284245 -0.9780898086449993 0.5385265559923951
Ni 0.4733400346070342 0.8072452650440585 12.549391912173279 0.4840636490578244 -1.625734754133316 2.0299065146605044
Ni 8.228570521580817 8.835638310196096 1.2710385763277556 -0.007055621295200752 1.3661127273264666 -0.36321742960201314
P 5.15041719799719 0.17780944754124844 5.090304961048982 0.30571959249586056 -0.2283263020173616 2.474709161335177
Ni 6.047163109240471 0.47324339853753167 7.150687200631322 -0.7274352754440826 -0.33420458730943087 -0.5049595186702271
P 8.034000698213744 9.207852839614503 11.202335722200708 0.7911310138308311 -3.3436484416947385 -1.797872681884568
Ni 6.789585819205712 9.090601075284692 9.414360438767465 1.069064951572991 -0.12058473826430846 -0.43036153154867823
P 7.074643817367974 2.8951890319920555 11.39509338917873 -0.03924069066817758 1.1234975194902586 -0.34787899947272993
P 5.994565477125491 8.229159541433024 1.1706051694654724 -0.580902964076077 -1.1212272353988433 0.27346176090341934
P 5.063334294222569 2.8439995254612542 1.5751329598385093 -1.0630380286526209 1.7983228820481094 0.32501160795625317
Ni 2.476156627758439 7.938938416128766 4.296118450197041 1.2464458728907373 2.2662029793675353 -0.5323859903122959
Ni 3.2136739067670232 1.1427813441968788 6.401288286791514 1.8043487765272153 0.45596303416686634 -0.017058241033867397
Ni 1.0133718419801232 6.4035845438716 4.539160005683096 -2.0694110005130293 -2.3647731610339657 -0.7995932856655713
Ni 5.423630375068991 8.96670443074718 12.463977591198736 -0.9960677332796587 0.26025374685357755 0.281404927009896
Ni 6.776342075966261 4.05153623966006 3.2128483586304157 -1.1629428699700746 -0.44347390056092006 -2.146009305894059
Ni 4.092776832749689 0.7833549879759798 0.8320218329210036 -1.1296180305656998 -0.08696293644480507 -0.4356320359189981
Ni 5.907390538998962 4.720865267340578 8.319667963785632 -0.26835092203941524 0.914507970128296 -1.9629238779923681
Ni 7.690427259108866 4.865948219687135 12.194304975644807 -0.877175809336741 -0.0003216450054768654 0.3303980690791471
Ni 7.290271100451421 7.6730695803391615 5.270050811354359 -0.9992499876623824 -0.5889466603161599 1.408756530138922
Ni 3.9896247311320665 3.8356144466505087 9.151207536702643 -0.5704092636336048 -1.6444169039238516 -0.37571736184123683
Ni 7.276806474767394 7.708097854675054 12.959127006177226 0.8387275326628717 -1.1843390762576635 -0.9445327986251605
Ni 8.182406090664152 1.8784211224265555 8.286746355764896 0.48688903432176145 -1.1202214198421483 -1.3417852063246956
Ni 0.7541874611695406 1.8720983624505287 1.1307966308915194 -0.0785204621044067 0.46379281462393024 0.1816101289077453
Ni 7.794352449282509 0.7747608201948827 5.210795414222409 -0.6360765239244272 1.6388718057359064 1.8882073630150837
Ni 3.8113725983581443 6.349560379302056 0.025203607269794818 -0.48076363815031403 0.2549721867396641 0.1549552453243783
Ni 1.3072743413606702 4.036608267780707 5.810783920488982 0.6712487009501859 1.9966153567075422 -2.836310652600322
Ni 4.313281936484221 6.212953790766155 9.485954881459618 -1.11406285643992 -0.034064031563244564 -0.3742868000422973
Ni 6.0466385134346 1.9860092798061069 4.048011323982013 -0.5328472462194307 -0.37266006307215177 -0.041433327444122196
Ni 0.30495858607516235 5.682219293622735 11.077412894639432 0.1160606251417098 0.5962498788457925 -0.2764295852824917
Ni 3.5716875356861464 2.93802181936968 4.817844624975782 0.03823873176622447 0.16900503854922508 0.555291691265876
Ni 4.582703298257444 8.459042945626901 10.092623240987617 -1.4608247115890711 1.3701251909199694 1.9909255054116166
Ni 0.21253124748528895 4.71898776656167 0.8153571728211616 0.05343035190499831 0.722933016698355 0.015631535889669854
Ni 4.759160761169175 7.1612113287719135 4.458905130476473 0.12408503810808307 -0.5595011013615332 -0.2692487512633363
Ni 7.6366791975950425 4.518196421005667 9.635298103955959 0.7582581743622102 -0.21247519391771796 1.5075087459091714
Ni 7.766824974627057 5.996194485154248 3.537802328000943 1.0293138969272981 1.3736059503797182 0.8517931075975782
P 0.2685231064986093 2.464560299418128 6.558875946531707 -0.4493290737901165 -2.9585295840339434 0.48035586118893403
Ni 5.901187423680415 6.344590524299066 6.435300501882351 -0.8150818682194737 1.4796693550994002 2.6937882337226577
P 7.667271416169006 5.419313963964543 5.686467599306772 -0.3760572616791588 0.19122888294443197 -1.6159043983064558
Ni 8.511576153695549 4.317239413616232 7.235562200303688 -0.5743425372497398 0.009574531062312543 0.37470923229169656
P 5.202904388889883 7.753038228711354 8.314670498477069 1.2126512929387954 -0.22373019800624694 -2.5398439461612967
P 1.4344842225668428 9.546723323336924 2.551113085325763 0.2569938451553832 -0.5701606379579083 0.7717328118098774
P 1.714158211142532 5.480949369436814 12.974550122869841 1.2127492519692404 0.5270365530749246 -0.9130601819381758
Ni 3.73861944317548 5.1610011484665215 7.037443532327071 1.8611899538859753 -0.7022040116811197 -0.49295272401733814
Ni 8.51756759000471 3.2217545228644777 4.553667380574233 0.2282777081676133 0.651058084934924 1.4826137824397048
Ni 1.1727017120019192 1.0931840319540727 8.549172186449653 -0.39848062367968146 -0.5493586136108927 -0.8202878379004453
Ni 5.118775787811485 2.451371776789822 12.793861840800934 0.23679988670601151 0.3185859069355675 -0.3217851305991555
Ni 2.129113493586658 0.1520517934729721 10.581563098242926 -0.5801239198182074 0.48480104144448116 0.821906604450791
Ni 6.752091024238706 8.633613704324535 3.3749208523390464 1.1365949761041652 -0.15995629808339548 -1.3668665747733557
Ni 5.334909259830423 4.636432952900885 10.726771217308077 3.6648897839752816 -0.8998935626492308 1.1778452410032036
Ni 3.48007654179769 4.352810690628376 11.75791213161093 -1.8654592706852906 0.36530465114834504 1.3532279009439985
Ni 9.212546591561772 7.078610497935175 6.486190896769453 -2.5952563614933304 -1.177018374226534 0.06382275088291589
Ni 0.30690235158744306 7.414609509878089 2.348212312424047 0.20124538664016953 0.008677216059023767 -0.059806944855303454
Ni 2.3390898674630023 8.793348525494723 12.9300855664329 2.2116675673238166 0.3044813492133853 0.5209836620126254
Ni 5.470705946069539 1.5245214290376854 10.502883851140956 -0.6251663047698266 0.15479275160458503 1.547219177124916
Ni 3.07487690065573 8.018686182056381 1.7089720754125597 -0.44328749558172686 0.6952795166471445 0.5343230594340088
Ni 6.679521937759856 2.8928973766295654 6.290482608469286 -0.08232338079026466 0.0015850850989327539 0.08170220226649799
Ni 7.34652249633712 6.846867999832772 8.51130741338798 0.2823629200477911 -0.4179333330876544 -2.7298816370111054
Ni 2.1444740269199745 3.378314158893866 7.668102486366729 1.147547875571243 -1.4997527561128363 1.7730018867848174
Ni 0.5777612899374579 7.454441977383538 13.093329657441311 -0.9826674007133528 -1.4163834505565607 0.26333007178605616
Ni 5.475592970155813 4.680471390288495 5.1321566622352774 -0.6028079916792844 -1.5695589782726966 -1.127477072963297
Ni 7.319574838098684 6.802479831907914 10.627456027821465 0.20605000711766447 0.5388155479877237 2.297965359380797
Ni 1.4731662606734512 1.3163857421994858 4.8628080076000595 -0.812921370233045 0.5247187035750254 -0.8666718244816235
Ni 6.187892836741817 2.4492549866959563 8.715111043281906 -1.5938620737944356 0.7968519754750083 -0.7549419655047838
Ni 7.354612315869766 1.1301910448559698 12.66681117902356 -0.8708629797448357 1.5810178708419158 2.210402584568464
Ni 2.1482382319129805 5.082330184456222 9.795862154636831 -0.5270820616008793 -0.3178914519717041 -1.4217915089460096
Ni 8.369291045646971 1.4613674567589447 3.0791031180953103 0.2695302870594971 -1.1844450057079083 -1.5840301753056785
Ni 2.358996897780536 2.624065034708548 10.43046846202979 -0.09840408840221117 -0.10869672857747086 0.18853976614804305
P 2.896974498419056 5.660637238100489 4.999691619535201 1.9845939067666334 -0.45061051160570137 -0.37803932510619415
Ni 6.23388240238986 1.1216870707397417 1.5228822972302178 2.101237658105323 0.482433312543253 0.6479737895826453
P 3.774973012178835 0.8720070774506187 11.70636185042065 -0.541713181250493 0.7832117589837544 0.5676473846177513
Ni 4.633736346390004 0.09431312246045258 3.165635656445526 -2.7331911610003123 0.4460812562767801 -2.1056650977490574
P 4.613461178664841 3.0294671514247034 7.1061278488119175 -0.5087387832070013 -0.2606890346187833 -0.22624627955988133
P 8.983684768674063 3.4417350307931383 2.4333707779002873 -0.35767438829659687 0.08571518008063303 0.42946113122159585
P 0.25694426468516074 5.713759466021342 8.568394481188996 0.4884602354636233 0.9134108804093753 1.6540533985723516
Ni 3.00791270620803 4.134422376987711 0.8563492731606417 0.4350249984626185 -0.14539922620482704 -0.4963437519767581
