# total energy = -340860.1558631928 ev
CRYSTAL
PRIMVEC
9.38081576799740 0.00000000000000 0.00000000000000

0.00000000000000 9.38081576799740 0.00000000000000

0.00000000000000 0.00000000000000 13.72977210385396

PRIMCOORD
 96 1
Ni 6.7485214496852315 4.378880444178198 9.705933424055717 0.2553002595030442 0.009001175057345788 0.5210214572290962
Ni 5.020481349036192 7.313950129271686 2.219431628667379 0.9449786279133274 -0.7056983979876233 0.08836110234391234
Ni 3.653846562526476 3.4543728928006137 10.174502365021949 -1.4525969243626402 3.6368637310760015 0.26908342933006557
Ni 0.01306560041357137 5.0264006438818 1.5615690794118222 1.7882662691430555 1.7675868864168334 -1.766542504312719
Ni 5.6157034999850115 4.7910359724454805 2.373479635381555 -1.2817201227119992 -0.649488683565275 0.06391248238324476
Ni 4.013797850198179 3.2051339946184063 4.5145139092411375 -0.25404299005717534 0.31534837383487624 -2.662019425951493
Ni 3.820130905526882 2.9818611949031477 12.795076444066364 2.2398699978999614 2.5011663270854405 2.2024421920708073
Ni 5.287281134620901 1.8432928050438828 0.7343959359400214 -0.5703832954916758 4.905978506319164 1.0916857742963004
Ni 6.510042347363425 3.8501588972872516 13.704344859981683 0.2707723869967143 0.6443210233214064 0.40134817503546366
Ni 8.00305548594927 6.226263284963261 13.420481370238235 1.9382798541914426 -0.25929112582999214 -0.5554007060399144
Ni 7.536509986977014 7.560168404727608 9.963805487129228 1.045473023185664 -0.7863518472746327 -0.39855184323724907
Ni 5.193219693389654 4.473861205369618 11.678929142337827 0.07686595722011924 -0.47215764164885776 0.281054999869645
Ni 9.536349848096197 6.525877164636622 11.141449665703838 -0.44420255119682855 -1.0316281468827717 1.1587252323443011
Ni 6.312904500801677 3.0124145123550448 5.590131395786709 -0.07974533565044331 -0.29740361643099744 -0.26892479226501426
Ni 7.665768249540626 8.57561358563503 12.25179024237781 0.5856052546477527 -2.468024807336466 -0.12869476896595253
Ni 9.10054528289424 1.1925456046637521 11.69013265079125 1.3352749160100037 -0.9522967588412954 -0.05194939648409763
Ni 0.06698090183298556 7.827240233974001 2.089272807775433 1.4096885550348883 -1.1254914099918358 -3.8320893938846514
Ni 0.3692458000853774 2.9155575879795967 7.924275393851932 1.2696241107794133 -0.4237674232709282 -0.19197501708183712
Ni 3.2824319178003627 7.124185604023168 0.28571901513244835 -0.23633760235761236 -0.40012535837195606 0.9035589273159601
Ni 8.24652518234059 1.9647368479460188 9.520238296753357 0.4850542951058679 -0.11076106730566732 -1.497316635867518
Ni 0.3747495247857236 5.950092064274332 7.526345872927542 0.6149302288641152 -0.3356672878978864 0.49194639424001074
Ni 7.5446619160116155 1.262554633875759 4.263465451667936 -0.07874723340323213 -0.12846799766712713 -0.873138920263206
Ni 0.5130959218127684 8.093880545688068 8.720121302558423 -0.5252488650468825 -0.479638009186303 0.5285625028011478
Ni 4.715792447950036 9.027140398319142 11.757243007883934 1.344547599561181 1.016254749750495 0.27774676143201843
P 5.419822682756563 0.12797778119051365 4.121815131273817 -0.7439625836751446 0.11321904192785663 0.33808155376633386
P 1.527722157490364 4.299687596180373 10.20571046342507 1.4538714201996896 -0.4898496596119821 1.0023440532066739
P 2.470344064409739 6.556683764118362 8.035967140523491 -0.7264037488557747 0.007148181009007044 -0.8274966969440587
P 0.9921807574254761 7.004777198175702 3.7847624152631774 0.4506333944238368 -1.3543900395728998 1.8778023656316758
P 4.792574426256383 0.1978263984502861 7.6350029256489345 -1.2767926035033945 -0.4852193599288225 1.3268571242599534
P 0.3893573313365661 8.559957003864318 10.811385657553704 -0.923619702621577 1.062894561096221 0.7259064975043822
P 3.441239750512417 2.3067144923147325 2.4981187841860906 0.48871246068374535 1.4538583075735672 0.4537791391416701
P 7.174082163902394 2.0106090377955046 7.576719916337103 0.6761636217533 0.7972548673403818 0.6135839992488659
Ni 4.426300468654507 6.3647804128400525 4.724112293589608 0.023239687254230944 -1.3723129425999077 -0.2514328061278379
Ni 3.2261845455432017 5.341080113922906 2.171651380859737 -0.17473242795130553 -0.5141437562726564 -0.3243292371772479
Ni 8.489084939587658 8.228682870460483 3.9440280317921355 1.4414979862360013 1.5009107809766797 1.5205126143680072
Ni 9.170845117399772 4.9655097677441695 3.964568266330874 1.329055417462853 -0.6535415134784099 -0.2689669583568594
Ni 7.501341308092408 9.130695225261572 8.347399910174635 -0.05434283641693868 1.0198944033856112 -1.6406204129958972
Ni 6.609685374067155 9.22012254342827 2.387031162059789 0.7542657653733655 0.4616197182320114 -0.2836325307888341
Ni 2.0154776812580573 1.1130431897405635 1.521093672961193 -1.5235462589880082 -0.5508495963341222 -1.5969054886064498
Ni 3.8068851934476444 8.527086624880146 5.364895191299365 -0.17058935231720945 -1.5735035647427418 -0.1773133013046043
Ni 2.7095361087414758 1.7792030706774844 7.782309878042897 -0.2765887365681753 0.012567295142049325 1.1298800259778348
Ni 5.041025335901298 8.136300595278943 9.463478731946955 -0.7055150783322236 0.8666214308596624 -0.533739676126713
Ni 6.71965667909896 0.4384537076178042 10.527097216849077 -0.8318642298841351 0.421573500943403 0.019110752687521926
Ni 6.109368937782394 5.1110625075610665 6.534726088294089 -1.4282241519452306 2.3751372778771094 -1.5866272466088933
Ni 9.123650232505545 1.247160714950809 6.128723437188827 -0.616673436807467 -0.11181933336685258 1.0837418368588754
Ni 2.738494687486949 4.3416198433434 8.06328970497249 -1.3858189475061424 1.0426579223343722 -0.5872327629488467
Ni 5.731444006807703 7.467636036491344 7.269859356365434 -0.05450892968115773 0.763074364803931 -1.0351994091737977
Ni 2.0110499361437513 2.3309169973886945 12.174985750113253 -3.9427357899893263 -1.9935840260803859 -2.5970743885386756
Ni 6.607846734146808 7.491106837923535 4.579167430644336 -3.0655376120550817 -0.45929338409167997 0.21986942949926006
Ni 1.2096655937180083 7.782643835089654 6.198429466046613 -0.49441568171610983 0.04762505807713088 -1.3927902366176528
Ni 1.326090900102869 3.2543551357513825 2.36098532665752 -0.5594306531349139 -0.608093665558256 3.086483875289446
Ni 1.790338099174691 2.800389310928034 5.318900112761326 -0.527777287895691 0.16027871441982072 1.179673038240562
Ni 2.5710283616806047 8.86837946968669 10.747418811875859 -0.49322860338654406 1.6666446049738008 -0.2890961250065666
Ni 5.738357668140846 7.135573914550219 13.54446198576518 -0.11265777010774791 -1.706443225027977 -0.4022102659254428
Ni 2.440841398340898 0.8989288806081377 3.94232541370263 -0.825457812137159 -0.362015438874112 0.10968043264697884
Ni 3.87411750114729 1.4180698001998444 10.208511575058823 0.604388963013159 -3.455018089118682 -1.1507524985514697
P 0.1371484668340428 2.0958149887981388 4.183791367813408 -0.10219363735163046 0.08263679826562542 -2.56697988314614
P 5.219148268592922 1.8443997413224595 11.908339809909634 2.853277105251331 -0.5166348981256264 -1.4479334574487
P 7.310694986147397 5.126981752177544 11.802853472969248 0.3269769592127401 -1.2427532545304985 -0.9525515551645789
P 3.366399601101538 0.9072599832268143 13.568721713816254 -0.14989814251644507 -0.7714600177644649 -0.09032054006312831
P 1.137489596028449 6.645726468832334 13.83356935160798 -0.6483077758832964 -0.8217857626022105 -0.15536045118259695
P 0.2724770553795784 4.257802253096947 6.195038301091483 0.47747339743481637 0.8525459266032027 -0.9398765308000716
P 4.225457199804303 4.330118963025308 6.151198934051891 -1.5151171543840487 1.3356199580542483 0.9925458361693293
P 6.969308333181653 5.088501645273128 4.0996961054157195 -0.504089457360448 0.3320985967100216 0.6891219816861809
Ni 5.790843333214031 6.592527861749218 11.078539099898602 -0.5409529060457007 0.7661260071460613 0.3503876248271966
Ni 2.899619581731278 7.636425057342428 3.0257399613696037 -0.9562984238015206 0.033184457171768655 0.8378230185707313
Ni 9.180085221081109 0.791349683635969 2.2703413166659807 -0.905358185308228 0.9939738268651076 0.28221096785095917
Ni 8.304798810836502 6.3025293183940025 5.691663718816756 -0.29685057214100485 0.341320886639238 0.6641763674844368
Ni 2.0806086861915913 5.253519578124315 5.043796428924108 0.14990611293624506 0.665178583496706 0.08096866653458314
Ni 3.9782727003086076 1.2934268990689406 5.781250510854095 0.7523022138890914 1.3011396648891913 0.7091192507437143
Ni 2.1783755497112933 5.246756009845895 11.993120809951085 0.6715214949955983 -0.13215058872503693 1.3238854432261393
Ni 9.290206619167638 3.7320638056686057 12.138230775256552 0.030173695369902876 0.8027685980697594 0.504333197940138
Ni 7.796452396124101 4.166086015845735 7.503815029250549 1.2270769814458222 -1.2728259055461628 -0.36211442634582147
Ni 5.661153553118091 2.2384971989434725 2.9559654525556005 -0.05028717829032629 -0.14264248939529625 0.7645892587865607
Ni 2.6115628672715308 8.688821272159284 7.845192301400374 2.2419063116037 0.40981301797336517 0.7094771483037652
Ni 4.628072438280803 3.0380898055284686 7.868257851584815 2.444994664989879 -0.1798826046936773 -0.13930648304352783
Ni 7.355863614802873 6.172079692208531 1.8796331478369142 -0.46427078270161326 0.4282036046654109 1.4889978315891776
Ni 6.314949518672268 0.5668592540142763 6.1748554756393 -0.5662193939219732 -0.4003595858699492 0.16694969868209314
Ni 1.8883863871719972 3.7281144821662267 0.29536624622472063 -0.28435912454221346 0.9630614535569673 -0.6470816167856791
Ni 2.5155126930652143 6.799130951574387 10.171454537929494 -0.007302704309000326 -1.7604351058634005 -0.8928749652395525
Ni 4.705051413721475 5.344860582738722 9.09822540711719 -0.12930720573897087 1.1103746089550555 -0.47635162512554735
Ni 7.342843042305717 2.5961032826351396 11.451412461500297 -2.429402724088894 1.6157665871770106 0.9321508800210397
Ni 4.005317592606372 0.15924591681552522 2.1679450204896895 1.1379234651076016 -0.24544367842393855 0.5086865898128271
Ni 9.149409953022252 4.7831748487044035 9.422523027721216 -1.5478902350500117 0.269526173294439 0.42103048395573944
Ni 1.534870339221511 9.264418756203172 12.885871485194219 -0.2034483078287593 -0.539941948282683 0.5040069249489707
Ni 5.459428487571395 9.321688637395628 13.980340659412905 -0.3958894659137375 -4.578380882803289 -0.645095696703902
Ni 7.326829989530038 1.0577432798913364 13.299755897835585 0.8528619151817247 2.28021112072117 1.3577543280594422
Ni 7.752146802533278 3.7493714110412646 2.3755659288421938 -0.46493592708943793 -1.649042061400689 0.21113410650879122
P 7.0797205365617035 6.113693493921579 8.203072304916908 0.5330575624580239 0.2612161107668469 1.7278779978629857
P 7.6061625451840555 8.06852420025593 0.8922047117565811 -0.39183200801491225 1.1989527124057804 -1.4545540480890111
P 8.035062829868789 8.67572565313477 6.1047648333287885 1.0422689144260695 -1.6355931349846349 0.1471545183330369
P 1.568969605091221 1.8749530587743561 9.658030287559521 -0.05575642893501365 -0.045068867314180444 0.7630833636649955
P 9.231154382950354 2.269031754763529 0.34754703478050086 0.6125414169169644 0.2595513214699143 -0.20592093773896794
P 3.7941835686917744 7.216370882070386 11.959688520093298 -0.2393645621093942 -1.58786806099453 -0.684317361208686
P 4.3800905694318955 4.92808031222281 0.1933601919907073 -0.027326198618778743 0.06570916927235135 0.5517975620696884
P 1.8015763166470191 0.6346243920581855 6.235046542909289 0.5334843655827973 -1.0998742236443637 -0.82335644952344
