# total energy = -340897.30351653055 ev
CRYSTAL
PRIMVEC
9.01540518825552 0.00000000000000 0.00000000000000
0.00000000000000 9.01540518825552 0.00000000000000
0.00000000000000 0.00000000000000 13.19495678414047
PRIMCOORD
 96 1
Ni 6.391940387918394 1.969090733011766 11.523143058747813 0.4538040788423346 0.5112780046890871 -1.2758101849854673
Ni 4.534875081154049 0.2805386774778184 5.903529002755086 -0.47599167068296727 -0.4228569956415169 0.20353135446086884
Ni 2.5921994856688357 1.575640414945619 4.72192130105794 0.20536583656644633 0.14299267364586343 0.3380949235027726
Ni 3.37262706079633 4.324121951475475 4.996231235014565 1.478059587410119 0.355631132614323 -0.6405492149838001
Ni 5.05436076530252 4.408974946151214 2.6923777678126246 0.6584029553357693 0.37190595851494657 -0.027333140597314218
Ni 7.222096938676081 5.934408568985783 2.58060387137305 0.5075627606210291 -0.10116802430059352 -0.10786034871910456
Ni 5.027729258048787 4.737730715790555 11.493981828767136 -0.1182758876254737 -0.5621025435401222 -0.2696963803237162
Ni 5.442897687480621 7.846170339700162 12.414119336734727 0.6731621159228149 0.3316265421696095 0.1065891953161648
Ni 1.7363490298085291 6.517353691035075 0.4752191425890415 0.7691205709980109 0.09979479810215071 0.028815124459479403
Ni 2.6381780526945757 1.4808344128196025 0.26459853936836525 0.43363788830710476 0.7314078869385854 0.5549602760683862
Ni 0.5984516191638541 0.006450522491552367 4.668652877307295 -0.1394574067990953 -0.20303641710232131 0.08164975176200777
Ni 8.630501585322195 2.273144292131396 1.4517227675680695 -0.3703136743271622 0.4228546816486718 -0.014686655477897286
Ni 6.707010772313604 0.6016250418291601 4.711061343834566 -0.03405940357755424 0.1140767619424616 -0.013299802432699676
Ni 0.6623113410599576 7.481280825621768 2.6486629690575048 0.6869838522972556 -0.47086103432462134 -0.22248835517934587
Ni 7.352153175521831 3.746820473143462 3.9993257478435273 1.2191325297877649 -0.44420537941030597 -1.4923412941401137
Ni 7.572615896707607 3.94554705215295 12.5013902631117 0.6883473083036855 -0.7322684351666678 0.7938633251603295
Ni 7.842744485686479 8.786386958350052 6.729982025015875 0.3125708110897391 0.698757705003732 0.5085693475086726
Ni 6.830828348692332 0.6620507958468118 0.3172106416132308 0.3391771008233578 0.030820584925282404 0.6622426407968337
Ni 1.976970197243236 6.575169485218619 9.093740155809176 -0.14486880762265372 -0.5271561093719244 1.0933893872509686
Ni 9.30416873089698 4.753660936954179 1.3417952261337645 -1.2547911595316388 -0.17317073989114046 0.2677282008537518
Ni 6.311081217790186 1.8622491648113648 6.87349014810851 0.6979282671239012 0.27825301164447563 0.9212830840686005
Ni 3.323141501109215 4.403872226751886 0.4589301082945107 0.06893950328419095 0.0024564319602925436 -0.7397899403546937
Ni 5.988167430784704 5.537288980962877 4.785072412097528 0.03508347396669442 0.19631298233555866 0.6944505929879459
Ni 5.382359240896731 2.6499161103940887 9.326353840257164 0.2276069073528338 0.05723969834875948 -0.2742911987832502
P 0.17468159153608598 5.629615746631623 12.484315987015613 -0.4147554495803051 -0.90172727342386 -0.3751612322274507
P 3.871972329506466 6.336098967495368 12.73346302324174 0.07942908996160514 -1.2082163970958932 -0.8560207725256807
P 2.3324566435946004 8.422750585608242 1.3817496993386025 -0.21144443866035842 0.8149317157948547 1.0227257021868192
P 6.28426038702517 7.60981345897196 5.764111169046682 -0.10582172102252098 0.22122105843114803 -0.4786285940851822
P 4.817733422415342 0.9953187758383849 12.637430024454508 -1.513447994211742 0.5688007814959042 -0.6237740524079902
P 4.01116117192027 6.162155737653283 8.237387541873707 -0.37193449776003684 -0.29265273200957337 -0.526281677186771
P 4.478222274254098 1.060833726147415 3.802680825917616 0.9600838589858819 -0.18973224379424744 -1.039794484743648
P 0.2505949103171727 5.4603785583557025 3.496637566848461 -0.21403585353661847 0.3758690569277527 0.5562098322047712
Ni 1.549820294168811 1.1277731104937132 2.517333756983512 -0.44431233730181546 -0.22573385869983703 0.1420722187141231
Ni 1.7834545224966651 6.397692216499262 4.879059815422381 0.633169120469645 0.583358367595105 -0.5991950775170455
Ni 5.95841659329746 5.519384386038736 9.2018330622651 -0.17702353797832737 1.2197645069448089 0.6018037187844861
Ni 8.72693036040206 2.3553557730544794 9.97206241091818 -0.10794905177816892 0.9707475093473152 0.8804398247999934
Ni 2.2149318201146895 5.262436319607241 7.042148547364223 0.9327715443241742 0.33940361501186705 0.10882579795616741
Ni 0.5617751473257923 0.04820717521569366 9.09347600443391 -0.2187232317099588 0.18449387821344357 0.16415850909020113
Ni 1.517247634822929 1.3060797965005932 11.255997667382434 -0.8064630162022111 -0.636326178041388 1.0273788846881144
Ni 4.038667173488022 6.857270532434782 1.720107777162084 0.16596316639910774 0.14365139027578486 -0.45725244240225127
Ni 5.6498733623388455 7.811830660915643 7.893685131788879 -0.5503034940226651 0.5509907498976768 0.7534540681053475
Ni 5.288833426323197 2.7588762988397937 4.914620180084405 -0.5439924642029729 0.587898935777936 0.007960649607973387
Ni 0.6797994242592774 7.474329948136112 7.221573143628199 0.2935323064010493 -0.7379639428895484 -0.6570500408523007
Ni 5.327040713981056 4.554086909846569 7.164400147842486 -0.6850506398302848 -0.22556905098719862 -0.7938846653165682
Ni 8.151404916913982 7.0923742718264 9.30633693587143 0.209863981547116 0.43500982895396695 -0.7235853055703731
Ni 4.730608545604214 0.3941742551116702 10.145905569761442 -0.06340314684699402 -0.35296438441543726 0.5741643598006628
Ni 8.277350128943313 7.0451425634640765 4.762020020747565 -0.7472029449893131 -0.08412829520948738 0.03896146886486194
Ni 7.307905566313532 6.187254626006157 7.068723257564571 0.6660064787146401 -1.1133231500604182 -0.2190685308645195
Ni 2.421069062280091 5.044326619204549 2.5952241541467056 -0.3100956100763692 0.7785315798992657 0.9214334936035357
Ni 2.5019102015977013 5.36769117647499 11.298459324800971 -0.6191378391875595 -0.3983659524786881 0.1653694986791668
Ni 0.943281856451606 3.3254133832446042 3.7426310143009394 -0.2616989639405364 -0.012643914016255644 -0.2866677180707321
Ni 3.7696384639556473 2.6078141676469895 2.2636474641892557 -0.9360759261070588 -0.9974232188662888 0.848389481232668
Ni 1.293647552593045 3.299782585979079 7.985403357599932 -1.433115418599261 0.27158022760999034 1.0520265080334654
Ni 3.7178720067278435 2.799364484038342 7.145188319149966 -0.5077887605889062 0.02200967150187177 -0.7142524582052215
Ni 4.105651634860816 6.798949875554485 5.936239597802044 -0.21509591937001668 -0.030567588374211873 0.23607920648990313
Ni 0.7677086413314327 7.295906061860342 11.285052515580583 -0.27581766273010566 0.5223417187024166 0.08029760860948752
P 0.16465916546500453 5.436172195127446 8.134242289845963 0.9493659583477455 0.7768783605665589 -1.59053583763468
P 8.530313386232576 1.7301915079891999 7.876531520126159 -0.22367646195017607 -0.6205138935994797 -0.49515847341940533
P 1.7807769471228132 3.392118367053124 10.26781368329781 0.4213205043923325 -0.04504624160636113 0.13689221717508038
P 4.050351138755739 6.00914627891586 3.754466438377683 -0.5906230195773182 0.7552376423683316 0.6416054241624564
P 6.881729327011415 3.9582046811929774 10.387096510811059 -0.0945335497032114 -0.20213113167923252 0.7414254190755876
P 6.386621298791887 7.767465851438454 10.25613693035433 -1.056524138793503 0.31667377751451914 -0.10129452257612877
P 2.2546807420787065 8.338519653898146 5.901009196973969 0.677361241605827 -0.18842303806452065 -0.2649979464067823
P 6.958874150156368 3.8277697973246614 1.6083996931811937 -0.33561612294497684 0.9846857166949623 -0.4622941185912168
Ni 5.230269353499821 3.0064753899760537 0.38140122888381367 0.685421135795826 -0.3530554014673468 -0.37353475236762124
Ni 1.4827907557695212 1.0943710338603079 7.021590718660538 0.12603547696623454 -0.16273874592453907 -0.5888772405308051
Ni 7.135053200512647 0.6695362868667083 9.13870809590088 -1.1200581547914064 -0.5670737715024685 -0.04898465742881886
Ni 2.689466693441524 1.609186738063811 9.229330949968084 0.40187499407321114 -0.2377159707623777 -0.534493266463286
Ni 6.162904016293115 2.022615194272907 2.646419936219072 1.0719247896192892 -0.40360817471423394 -0.3044024163463338
Ni 4.192406880054679 6.96685278384613 10.412100737408291 -0.04290785510711965 0.35918182608005883 -0.32885977805774974
Ni 8.124782425065549 7.285844869546475 0.26272603968772873 -0.6724560909947258 -1.1361710011928692 0.14893963525791767
Ni 7.515043518467141 3.8200165487673803 8.286037373489588 0.8849425977663533 -0.2750054512414554 -0.48841215583450714
Ni 2.9389950813118055 8.35704631178793 12.456897434879263 0.547268049630451 -0.14608725341078713 -1.0945844360003345
Ni 0.09942098809865876 5.072662038059824 10.210719121538197 0.3969911836183485 -1.8420771443159243 0.8416966425935247
Ni 8.717482215648536 2.1944307884643885 5.635117848485702 -0.25498684202768346 0.38804143062422847 0.5576545350710976
Ni 3.5997972435246828 2.7235719716882643 11.46090250364344 0.5733161528677546 -0.17145350008971763 0.08472684802543473
Ni 1.1839931779393045 3.5245005784660592 12.428567425267167 -0.6029535161182131 -0.06598710552408636 0.6081905961474365
Ni 3.1021378556054904 8.406243378505472 8.001105489009486 0.33140542729773886 -0.2639599920605712 -0.015718953397153575
Ni 5.543139979002034 7.6965777195711205 3.649830939853987 -0.27019594566795396 0.4610448195651479 -0.4705033938748865
Ni 3.034783762615431 8.353746673448436 3.6830292683276316 0.10676068789702259 -0.5413779093982611 -0.22530525580285068
Ni 3.607243968301793 4.157814769921783 9.278944528410447 -0.49338209824527285 1.0610641927557016 -0.20056584407464167
Ni 7.217435974136413 6.047966614134063 11.401287234562185 -0.38159644632983314 0.6109298494554704 0.06972857484438959
Ni 0.40804175154284544 0.05516616656611892 0.2770217678706143 1.3648986524137074 0.9655960470533628 0.12105087926744958
Ni 4.655501204056874 0.28440899097274985 1.584543127678544 -0.4431931360957077 -0.3434728999852343 0.09424764303167639
Ni 5.919046318356007 5.563226302008573 0.3853914472692239 0.04857148115080022 0.4200146410967153 0.7159468151885089
Ni 7.980842464059084 8.949475640211942 11.335734419550898 0.1642837218141558 -0.2234736019107506 -0.02101491168877026
Ni 0.20029435799101297 4.7998468583018 5.756366034354169 -1.0818137665982273 -0.5459506163706082 0.27083075103847554
Ni 7.723299380877846 8.768320086130526 2.4765751096259883 0.3015670037800677 0.024223648434055056 0.23386214423392623
P 8.373174871868136 1.459846549283147 3.5713338059141604 0.3565140494399086 1.227542351118015 -0.17237266946987734
P 1.7977619707064396 3.19237304724483 1.63715072222076 -0.008178679156050429 -1.1983238205725297 -1.0790560013474322
P 4.539463922451325 1.0398098009897627 8.004509706050452 0.9105317590893675 -0.11415132393413889 0.5392924876241422
P 8.538301035327637 1.8065610062784243 12.394510830209045 0.03532232945037787 -0.21296010397393644 -0.1381263466924976
P 6.31255072885395 7.662607672403868 1.349764844418226 -1.274881759633927 -0.675261935874637 0.35590289821847093
P 1.8727521119848918 3.2320498459664546 5.887629433969478 -1.2406233526716892 -0.3661430878892404 0.5385985468809111
P 7.107231659759424 3.9538953174599762 6.058767971222992 -0.745361263794884 0.1389979506641735 0.49849602243307045
P 2.2771020550577292 8.473381101768352 10.250845788984252 1.4546265531981595 0.5202017895412783 -0.2081498270694867
