# total energy = -340893.76601989305 ev
CRYSTAL
PRIMVEC
9.08175042596391 0.00000000000000 0.00000000000000
0.00000000000000 9.08175042596391 0.00000000000000
0.00000000000000 0.00000000000000 13.29205974580547
PRIMCOORD
 96 1
Ni 6.261467277917355 1.9267932386551483 11.32565925212221 1.1869888551756849 0.48520856129554496 0.8461505645998202
Ni 4.7356878082680876 0.42308514691182797 5.9514798927946595 -0.5129605345978326 -1.2696644770990455 0.13673023767591935
Ni 2.9733559869271775 1.656629328871949 4.896848009325563 -1.0939208342744062 0.022555773813328895 -0.6706956566601933
Ni 3.4815889007125547 4.233657729980288 4.716288281318784 -1.4031664376456545 0.9843386177681888 0.4480093265374284
Ni 5.214750139889163 4.623537273041763 3.025246383973307 -0.4883303947539783 -0.3595811184010065 -1.4074450104163505
Ni 7.278223721499709 6.287749863466386 2.7318504485878354 0.41545041876480066 -0.6889047234690522 -0.8627508921606626
Ni 5.230470649766625 4.4393048851883945 11.97074960299505 0.03451526016805023 0.31737388890533724 -1.167066919440777
Ni 5.446044158120928 7.879199469986781 12.411952841880037 0.09691799077498792 0.35736945546166843 -0.12520423931419083
Ni 1.8914743114954449 6.408809595798309 0.3344627023495921 0.4460845987108898 0.6940374167099272 0.02313478624525048
Ni 2.6791436021841184 1.7130996526258797 0.23799816634935048 0.7033011014000403 -0.9127750465975892 0.7228695104502711
Ni 0.7546653016963674 -0.18411977414887287 4.41132855319676 -0.7998419113412676 0.7702456857413896 0.15385147073723826
Ni 8.583016959578632 2.319706086337693 1.4844039231728228 0.3580587682192091 0.9159503590017773 -0.7881907002555846
Ni 6.888017235425185 0.6237119105195533 4.650612695397439 0.8962796200457274 0.19606795620428813 0.6632155462330642
Ni 0.7005644066120088 7.41978096439976 2.436208596337721 0.11393457993764247 -0.7251557353812866 -0.10954005041437263
Ni 7.448370314540862 4.028292109033417 4.034273349822151 0.9342350162435782 -0.10363474067353118 -0.6773692120256269
Ni 7.455599387829401 3.849190910134854 12.944884483951228 0.8865220264383312 -0.24782837660603124 -1.03462811005136
Ni 8.089868833145342 8.70375883064787 6.970023624848351 -0.09456568849272746 0.9347410093457192 -0.30145876033697755
Ni 6.701287366222134 0.8283046745105759 0.21541003684777818 -0.4909704034799867 -1.1554491326961907 0.8805203003289416
Ni 1.9157679937150918 6.372900354865044 9.243963138409336 0.15395740018748325 0.17916089603630433 -0.0030084478090206257
Ni 0.26148448096177257 4.834551742714098 1.2971364143483126 -0.7643290631466385 0.12496332694797832 0.7403393851002605
Ni 6.60274129303881 1.6799421820524476 6.9279415181937045 -0.14899799929967888 1.1373693923763444 0.15473721577630126
Ni 3.4327563290134737 4.166007771530138 0.37118839264044456 -0.1988987407848639 1.581310205271354 0.22192039849101777
Ni 5.8140548463095385 5.6306943064909705 5.13048239462574 0.6977979121936241 0.5232382623747569 -0.08222233643602614
Ni 5.177796497664213 2.740499907633066 9.327450761316625 0.5836393891706336 0.08402725085524884 -0.5729258594078714
P 0.2324728294288147 5.603630690410766 12.38244441860225 -0.9251739344825743 0.24710075441138735 1.0600961724154776
P 3.895789371244764 6.186897025690992 12.534810760783731 0.17780849577346797 -0.5304376083366736 1.3884923805732474
P 2.156125598808616 8.552629422865758 1.2906974533413107 1.4703892153490548 -0.026213168060258082 1.5965532474733535
P 6.247962715128341 7.779999510777359 5.718549343147576 0.5453744321521639 -0.11857953490882159 1.4678592498383494
P 4.563298022887401 1.0599674118070568 12.449768342214387 0.7794317231160318 -0.2786600172749072 0.7469422351287588
P 4.025976262690984 6.073166265901595 8.34004925943093 0.11086519698369939 0.4832807481452129 0.03209610920359633
P 4.924424744301247 1.0154940802819685 3.7978999086126484 -0.8923468606502245 0.014592038881561964 -1.58222166134203
P 0.16732761772863838 5.651010182051848 3.7302172558611937 0.396240421495253 -0.4808541409815912 -1.06442411036687
Ni 1.4924766910700356 1.324019303596304 2.492753390444624 0.019663539867198394 -1.0665604399835826 0.5214562307736698
Ni 2.0187822880767574 6.635826109609344 4.615760570206366 -0.6975109770808245 0.007442572320974279 1.4844755182387919
Ni 6.019284241000971 5.669237255029356 9.352757966876725 -0.33284858750216867 -0.07374566642358267 -0.18662352296193666
Ni 8.547234863150441 2.334545666429993 9.967131113498533 0.8002568873914992 -0.4050860448113411 1.704699245753677
Ni 2.4542431362075434 5.339015730099043 6.962780020759233 -0.8376042176917059 -1.4201776274916702 0.27354789285932246
Ni 0.5627143342099239 -0.0027572194100504007 9.15324462586344 -0.14488217735909242 0.32377207912219724 -0.3406529140379359
Ni 1.4349619660244188 1.0990189383657416 11.435451256779396 -0.08025518540732629 0.39920876009495765 -0.6980784195485203
Ni 4.0347310700404195 7.056856056414141 1.6030887777849558 0.18632193256111781 -0.4254352978916544 -0.12435217572654068
Ni 5.758756068352369 7.934879681459176 7.864672302106952 -0.7267727021594194 0.22820597438941342 0.6831745058534944
Ni 5.241841001220457 2.8737745942025312 4.876285110154825 1.1190880775686534 -0.6440292031126005 0.40110469156608985
Ni 0.9317512601894958 7.318583020110592 7.113856754389241 -0.32475398341949235 0.26240833130273516 -0.7676547850857618
Ni 5.219445404826568 4.479836737056165 7.328630160536609 -0.5579057318499553 0.36722809342330304 0.5041236530324931
Ni 8.509427536391417 7.00213851048017 9.618878681398545 -0.688818077292517 -0.07894289435380597 -0.5257638570100881
Ni 4.740546544712017 0.2648211160449495 10.289569578368196 -0.5877423555954137 -0.7197793015607217 0.07353946395004755
Ni 8.119330031321244 7.189604001462581 4.803790037886289 0.6241728305083057 0.6907957698441781 -0.17543305356275593
Ni 7.611560286804353 6.347099102085225 6.9499929162488545 -0.8126645170272327 -1.0998456843992737 1.529233796291089
Ni 2.380435751011629 5.4519018871047304 2.6474855285955323 -0.06101999132679814 -1.401516303636741 -0.8753025035734281
Ni 2.1890651073733483 5.149288883276372 11.464680870321054 1.6817768326295488 -0.1400472178642943 0.3676932059851796
Ni 0.990964272552897 3.497027876328779 3.827568170696814 0.0016431920303778154 -0.0015979406147391836 -0.16892507724090908
Ni 3.701685120747375 2.527469289380259 2.516731935926693 1.1356030445045409 0.3094042404362994 0.5196726565106856
Ni 1.059486079037845 3.2654886508372276 8.171891569719161 -0.3628435912023622 1.0611526387044499 -0.025983825658271373
Ni 3.7338708440320216 2.6876350387730414 7.072997051333385 0.0831924136587793 -0.20889776097910476 0.16542837694156026
Ni 4.04050706327096 6.860663003333381 6.205650840189523 0.4116549562781104 1.094729960439263 -0.4083647155626128
Ni 1.1037777755556837 7.575033486846439 11.385964799054216 0.2496620873806603 -0.8453401528833828 0.6966925949445872
P 0.29121631529847547 5.486875707750659 8.144457418224166 -0.6993230905888989 -0.30235273290615666 -0.3012463872158554
P 8.583607273352195 1.6068885821366197 7.928022051760464 -0.01885878457771591 -0.7154935297011742 -0.28659469874095156
P 1.6940461403653866 3.0802754339447116 10.379078401765812 -0.1839454619091413 0.2406516563519339 0.7372252649513109
P 4.051677616216816 6.284226144325742 3.9260488552775272 -0.5661242631050056 -0.15858178633337203 -1.0565339089855157
P 6.9520799024821525 3.8830476754861976 10.486810665440789 -0.8681820904785629 0.8713085519226864 0.988680182566336
P 6.417164806131796 7.668557352079309 10.07449102540865 0.2687391586167694 0.9673958192662631 0.9647203293166288
P 2.397255152682951 8.5358191029448 5.691341327236608 0.535429148013994 0.6536926943442934 0.911594910246559
P 6.9165793403152 4.224666797121428 1.6991110325425445 0.4909704034799867 -0.9395800826055755 0.6995544898734146
Ni 5.279312303216068 2.784328434882418 0.4398927423076787 0.15201698863166077 -0.49196876283751395 0.4450199048918014
Ni 1.5676100118188725 1.156697134917883 6.9921022681545875 -0.45752857888177334 -0.20924434568524605 -0.5282796814534063
Ni 6.921102051995717 0.7139736110222178 9.272514345198918 -0.029330630643317233 -1.0003380785202383 -0.581678665899837
Ni 2.815497002126466 1.6304012338250926 9.196377491035026 0.16389522812648546 -1.0252824071704019 -0.028962448670621085
Ni 6.4891830865063005 2.0665613767337905 2.561153501474715 -0.7385686663530829 0.26139994464287886 0.4340906595738072
Ni 3.8691889244330455 6.92721406998967 10.49707213517536 1.1689991034664835 -0.19942581693292752 -0.11540833626969156
Ni 8.20666922455726 7.20333560801066 0.2688016472288266 0.32061759265361556 -0.34094062048168383 -0.11212478042241333
Ni 7.443584232099833 3.8241525243854833 8.433958190879169 0.679530481343004 0.29219713252939356 -1.9330785124961614
Ni 3.0328051248000034 8.587085583741025 12.662334883023671 0.28530066251987635 -1.2737093365923806 -1.1602133868540536
Ni 0.1944711532120331 4.732418378137593 10.424669696760521 -1.8094860977537806 -0.6394865780472405 -1.290133800696991
Ni 8.772316964134268 2.553315950911891 5.887159304027397 -0.1373385606838796 -0.4177489849909902 -0.3168200732843963
Ni 3.6680281539040065 2.7357410704431238 11.45581435744216 -0.6066309649698004 0.06373610470638055 -0.4932856818767246
Ni 1.1705286407199473 3.2803282309295283 12.821334535669912 -1.7234623852937931 0.5621470236248125 -1.162759807424991
Ni 2.932560764298896 8.394652375310335 7.905413034233058 1.326055968514897 0.07614244879053339 -0.11972007627116801
Ni 5.596755805386365 7.857893683636393 3.669087085996272 -0.5321674465435868 0.1881834112498888 -0.976663360611118
Ni 3.1585147133175187 8.601552812068464 3.4817487395189346 0.004301969809463559 0.0680694419744118 -0.20786417750826786
Ni 3.3243565566868543 4.201844358460503 9.363311868972968 0.176978800783321 0.4494257472689808 -0.4131294839411079
Ni 7.005371613609214 6.126067461763069 11.610242256955926 1.187349323838897 -0.4379087477683168 -0.4087830340469541
Ni 0.42478070970450393 9.241952438879084 0.253580633621302 0.3437426087068532 -0.8834217902464527 0.7365284959946025
Ni 4.539594654441315 0.3321441314820497 1.4260518607437849 0.19680020638462237 0.37567750974223685 0.14946696851629743
Ni 5.970733203563127 5.788798498551469 0.5960261945395183 -0.5895619253026556 0.5021343905166062 -0.42545458116536405
Ni 8.319791507072372 8.882605740536283 11.381818071838707 -1.8696242006962576 0.39887785911810014 -0.23675334973879225
Ni 0.08264029559846714 4.9858991125049075 5.822786041108031 0.557685131198717 -0.3656733473416734 0.1647254373372647
Ni 7.8955102936378045 -0.29578080303066034 2.5452032233130835 -0.020067717284152534 0.587363117879124 -0.3291469702808654
P 8.564753559599676 1.5737946838157248 3.5528343241312124 0.2532719162191058 0.6088680818304353 0.9842907952493888
P 1.902454147683689 3.256198020216406 1.6270282717404658 -1.065211896375488 1.1976951858495954 0.44267274481586344
P 4.783067299909171 0.9590328382784002 8.062910565369343 0.14012975027577157 0.279443432408151 0.8992420451081609
P 8.37399139323568 1.6380753128813925 12.606880807135303 0.7233569916096511 1.9721893624546938 -1.7544254093342109
P 6.372854946113232 7.930465950783009 1.257146742977183 -0.967116340352631 -0.5639185137029386 0.5131885914482387
P 1.908520756925829 3.3564151354664262 6.1011880066450415 -0.578743494530913 -0.5671563039139459 -1.428540911854701
P 6.794538778944128 3.911864069386362 6.102291439314083 1.4959097282176623 -0.7670009535518468 0.05667868363896691
P 2.4793360124590893 8.511670728730952 10.010236733419033 -0.281510856460141 1.3140926255054337 1.0778491255235243
