# total energy = -340886.86844919465 ev
CRYSTAL
PRIMVEC
9.07907314678120 0.00000000000000 0.00000000000000

0.00000000000000 9.07907314678120 0.00000000000000

0.00000000000000 0.00000000000000 13.28814127709639

PRIMCOORD
 96 1
Ni 6.650493791864597 2.443432826968354 11.340232791474358 -0.7494696295363027 -1.06497535488465 0.4776780572464547
Ni 4.9262143574238255 0.666994116677678 5.593855812024584 -0.42370237436094776 -0.8583193387518702 1.099788348798777
Ni 2.783961627543181 1.8034671113707748 4.835900276219834 -0.3398070210978728 -1.9525319932350824 1.302602622587963
Ni 3.475659902547681 4.4173958549945445 4.928040159055403 -0.20597338824345818 0.5567168537481767 1.2789618432405716
Ni 3.681573283970804 2.9559465122124147 3.205764476082008 -0.10378000800214385 1.2792531492287451 -3.2325155928719487
Ni 5.410274227086754 4.527334353039191 2.383559970481011 -0.26858437820646003 0.5462874308847365 0.5875628925947559
Ni 5.278909116160335 2.965561250789447 0.4058899568448096 0.36643387965678187 0.550275211887891 -0.1823665474577956
Ni 5.765447572821876 7.763324879801705 12.057765569425927 2.1973287821036416 2.256690154781094 -0.07011629720111151
Ni 2.041048300307295 6.9397893820615275 0.42187548112486667 1.0267566777230832 0.6078136724239919 -2.0745611772554016
Ni 0.9870677652090175 0.44137914629123143 0.07100107657598102 0.4655802455416562 -0.5360716666939994 0.817273990774786
Ni 8.265025388799074 9.005977636211883 6.7600500609252085 -1.1164308424514644 0.5471770325785416 1.0583750759593127
Ni 8.923557809203105 2.39808285605969 0.965933498486057 -0.4333350123547053 0.9480667799203478 1.5351617317397497
Ni 7.189754426917851 0.59116569685202 4.634678051947564 -1.000111564331729 1.1523260136861766 -0.4904926925126198
Ni 1.0425862981632679 7.584467136678445 2.30489434026317 -0.04173517495525715 0.10718569124958315 1.2081354073463129
Ni 8.014225069203292 3.9816911294876802 3.7786694328962707 -2.201255370851557 0.4410336665505436 -1.2904626447913194
Ni 8.025147194329042 4.419502199989702 12.433514818878827 1.192791835010707 -1.284299453403401 1.1559785228370996
Ni 8.195960878548382 7.517100413126435 8.934042322997964 1.2363391234740386 -0.08057888729533219 -1.00617962490268
Ni 6.911916627168715 0.7556303851441473 0.42032114378361274 0.5863346766146096 0.7219837654112082 -2.207927383555094
Ni 2.3591063945760276 6.831094717052813 9.011339736876279 -0.0032838129575943446 0.843164999608935 0.008244756507295479
Ni 0.6963540237696575 5.046303259367549 1.2265410330118776 -1.7922085416202553 -0.35318369951509493 -0.4413008041690013
Ni 6.573131008658845 2.149634016436949 6.724597187771807 0.2853759958425021 0.06171238940813244 1.778319185232673
Ni 3.275747788546105 4.8553612697419 0.31568754824185496 1.0110343818918202 -0.6462238967710742 -0.5755111036365443
Ni 6.3572306466552355 5.867305695669584 4.684973394058218 -0.3535603661282233 -0.24793559160785683 -1.0065364940214665
Ni 5.543845552814134 3.2704365306919367 9.131198938266651 0.4583567312100235 -0.3146006970355743 -0.13838551389115522
P 0.4946878328152178 6.140731065816797 12.242989558715584 0.23865005254087288 -1.2108435503060955 1.3634130690071165
P 4.316972225721124 6.460940900446961 12.606486598810879 -2.0314106100098566 -0.7131533116037718 0.1439594084345069
P 2.815910886327483 8.823769715057534 1.70736693678138 -0.9561917230203274 -0.7132386722287265 -1.3549050315361053
P 6.697396284299864 7.865518928359847 5.5657115928414465 -0.5632014330312558 -0.57032390300865 0.3633740097845355
P 4.813515821109662 1.2311768078158742 12.437966288495748 2.043858863075538 0.580157344159304 -0.6844680278539373
P 4.327912508993385 6.337864983402346 7.979754551776081 -0.913552291083246 0.005591892265480692 0.4311953403038832
P 4.883161392048673 1.3299208085371215 3.6129527404022808 1.3718694273045857 -0.7818369901234148 -0.6512470610172784
P 0.4749117954512033 5.782770444592393 3.37476234565035 0.15021593086718 -0.5138251965909731 -0.03885271120113954
Ni 0.5431628207382485 0.36726757921809156 4.842902965421406 2.043012970135475 0.094916644074243 0.6878968510298282
Ni 2.0773282770342263 6.756065255673595 4.7879564140822195 0.04697893985269974 -0.8216425521561269 -1.1778701807038683
Ni 6.207770942731627 5.882540380591454 8.972139930190544 0.27610536917385353 -0.2175541511025221 0.5762988896451623
Ni 8.930730277074545 2.907400707517995 10.714201637508534 1.7885349494234102 -1.5884211052845225 -1.5061882273255351
Ni 2.40565480315435 5.532705529930265 7.051856922784469 -0.05914205757779492 -1.1395445456507922 -1.4839265877138572
Ni 0.044531038501064116 0.6410942444031743 9.606621885542111 2.1945134241420337 0.8055068229365289 -1.3717817526867861
Ni 1.8815743785834347 1.133939933254955 11.189731717848403 -0.9667353028641286 1.0972355004699361 0.30801353073635984
Ni 4.277015224325923 7.07504033634108 1.566764776725337 0.4249218485903456 -0.41804054808948005 -0.19371205437760186
Ni 5.745546244246944 8.174334526055002 7.5229482442099735 0.7256236761566406 -0.2775248752291995 0.573107122180742
Ni 5.642798372220247 3.0976617666495194 4.796182054451238 -0.3385605502852814 0.48729269751808335 -0.5964519675542695
Ni 0.994957479867602 7.6274020741012825 6.844801393945868 0.5835308886172272 -0.2934299764952301 0.2006820579375318
Ni 5.481281659014014 4.667415374290398 7.102205831427329 -0.4950911105165795 -0.49577091019242364 -1.3585588262386088
Ni 0.8354145571870035 7.556830437690262 10.747980329553716 0.47262378265199895 0.5776726300642374 0.049409146560747165
Ni 4.778134672634974 0.4961041682429958 10.064385127429293 -0.17150800747673686 -0.14360973840457203 0.46528739689158577
Ni 8.665131068073132 7.50638710668555 4.477333172901997 -1.0748792442619228 -1.5189774086704033 -0.1261231515840344
Ni 7.6210830391158115 6.2526941971973065 6.7353204811932725 0.2929779765594761 0.6389011378574159 1.12116835713645
Ni 2.564765561948011 5.278391608984801 2.5398689272681834 1.1670579205797127 0.7713026662509942 1.4502122261805477
Ni 2.5517189336805934 5.623577974139437 11.285592204903864 -0.0380114462467668 -0.050386422872351934 0.8046778992773302
Ni 1.1076650952550204 3.466462801340378 3.5106470192431014 1.8249499977173347 -0.39894033692491937 -0.25424585009660083
Ni 1.458271667142884 1.0488871750022295 2.7770224918543938 0.5623105457858704 0.7107894393572856 -1.232563201371374
Ni 1.1142111070718665 3.2224717866858366 8.256267714737314 0.327060777175798 2.0104790020635117 0.5511689273467539
Ni 3.540865806665003 3.1429481840453986 7.171091483934898 0.23771185699731961 -0.4552050729549193 -1.3552001941790208
Ni 4.31243268909363 6.912470450637269 5.896506718979602 0.19515547169234776 0.37418781257058786 -0.6479015415838132
Ni 8.53161421678528 7.705618290193002 0.1554709583257364 -0.1118859249387299 -0.22032502897943992 -0.13660168251785507
P 0.5422158733977532 5.8475314741202205 8.13408336268634 -1.0005658782603284 0.15640431906607902 -1.437090858307241
P 8.585226144355984 1.871587398002948 7.913752412934295 -1.6284647514699695 -0.2846871973055936 0.3288116984286337
P 2.151150221670532 3.4392255815754145 10.656797381039224 -0.3251039105597433 -0.15810176137315995 -0.666338408132762
P 4.346933167462584 5.979168957244289 3.7485850157585436 -0.12838160860090794 1.0257140953911819 -0.6160782264256293
P 7.382693812659596 4.266646922668727 10.2820586324396 -2.1982924315684915 0.2931247865499855 -0.41494828231740155
P 6.320296976653945 7.872709554377797 9.773560621296223 -0.0885819601054668 0.7748379330977624 1.6754377777853984
P 2.598076681720561 8.694165944342583 5.505024343483132 -0.298844205532266 0.8223038398892096 1.3723255410053978
P 7.240252232362093 4.195712123327508 1.3094320639225905 0.40593296619266855 -0.477408605635152 -0.45452835860286883
Ni 2.949681951666473 2.009280622988093 13.122186130860113 0.7701215014586995 -1.1660467057063788 1.0546919706807707
Ni 1.4962766677882628 1.2368330704537316 7.235299597901498 0.2780892323731017 -1.0624505315802668 -1.1770877940118887
Ni 6.865903883912436 0.8209161851061135 9.081448340551296 0.09337732461158113 0.7883241405096553 -1.0408856609252979
Ni 3.104080671440795 2.0265127040260595 9.185560797288217 -0.7322571223127582 -0.8290702120787657 0.09755048215266425
Ni 6.616955695260671 2.123758657660234 2.4130996432234397 0.6392896315450861 0.44509009600810445 0.5706936276432429
Ni 4.3651457884120894 6.950239395378017 10.321258439125337 0.042024424060901816 -0.20172309760753646 -0.6281629255043052
Ni 7.623243858550498 6.304227016992617 11.085724578361239 0.10451020129994905 1.0769710937939454 -0.5282555130836902
Ni 7.869277664687412 4.228260600946639 8.170479551550933 0.4912203147072637 -0.5647988594253628 -0.7041693629376066
Ni 3.597419353970322 8.687529141793187 11.919555745172572 -1.9521167600745346 -0.9043963356155907 0.9194496304042874
Ni 0.4611361176014103 4.994398197568784 10.062072687471247 0.6371247626832834 1.138232511707588 0.22481314665778054
Ni 8.715238473367409 2.3682490213438 5.686341607551168 0.7716297105731097 1.669686220013602 0.5555182054543852
Ni 4.244267007095182 3.0915061549826377 11.128193759326097 -0.6155398374236561 -0.5514036690653794 0.8030100246566041
Ni 1.3555419532626969 3.549572637916536 12.675026338627431 -0.724028820865695 0.7784629314448593 -0.733896200578078
Ni 3.5243600514874354 9.02766754221805 7.609919410641478 -1.9575646705629834 -1.6460966056191197 0.281320851936522
Ni 6.076351357365678 7.999389863504642 3.214215277467751 -0.08898330930894352 0.0583288176478802 0.9389720167079313
Ni 3.7799268845420864 8.312409072116855 3.6964021343181757 -0.6202179596256158 0.3955346536774801 -0.13485924590545162
Ni 3.3137891054845032 4.515449846148412 9.087029246881137 0.6338944286714439 0.40154075066224393 0.7019864963536749
Ni 5.645204326632817 4.917462130806017 11.70443436765424 -1.1695912285245276 -1.1024646100793596 -1.652356984706535
Ni 8.317774804410554 9.004779198542225 2.3803977292662992 -0.8502530168039679 0.5909693471731435 -0.15336604646038748
Ni 4.795239646647371 0.5973131373529722 1.4092074473656042 -0.6391469353196347 -0.30012770023037993 0.759247277748357
Ni 6.656967171095403 6.0118536209622455 -0.0023142557726963876 -0.2981898597777187 0.991243829528454 3.207986240272017
Ni 7.944752000656126 8.802061650904857 11.187831467816133 -1.448729470987434 0.3647356660187525 1.768446663313967
Ni 0.2471714140157641 5.162424606298842 5.430850130804533 0.9976911278156947 -0.805976820594412 1.181676698934152
Ni 7.5670988695416534 6.2535385510100205 2.3258633678528895 0.6307993346858878 -0.7378520999020324 0.3297038712255999
P 8.602204011342812 1.827844423060417 3.5691416724103373 -0.0021286163072285922 0.19837577840185835 -1.861819617050174
P 2.3270300287661554 3.252360095841256 1.455117597094101 -1.005943597632474 0.02815846471208699 0.9601329670562625
P 4.905859075186143 1.4153912041595766 7.999261848571747 1.5253043793296959 1.2716833073012872 -0.29506571232644024
P 8.550217237884752 1.6699139437899044 12.292381533037368 -0.08036625706389385 -1.6381315851357723 0.5907454040877955
P 6.53646063178195 7.912421420795114 1.1691957905187238 0.2913018744086338 -0.4087028156283219 -0.35132736303264656
P 1.7261315653847888 3.30517306496552 5.8560576318139805 -0.1700008268035911 1.2152853881275327 0.9231327356828296
P 7.282742295195436 4.233962258950771 5.8597382881115525 -0.25313153398649957 -0.49301725870668645 0.32756548472635844
P 2.1263643516844155 8.958076445718568 9.548247076141841 0.9235250860252416 -0.04495702432666451 -1.2339749941172362
