# total energy = -340869.1216642381 ev
CRYSTAL
PRIMVEC
9.28447584092740 0.00000000000000 0.00000000000000
0.00000000000000 9.28447584092740 0.00000000000000
0.00000000000000 0.00000000000000 13.58876888239473
PRIMCOORD
 96 1
Ni 7.609324445808357 0.9838202184981689 1.9380981627028104 -1.2200136468411373 -0.2702337408844249 0.4013291488720701
Ni 9.020509096165183 0.23452586462632352 6.680741289028631 1.2083984311997125 -0.3646616182477075 0.10042137594255608
Ni 0.8976147869673315 1.132743214088281 12.129375973002338 2.467575892724505 -0.7939890521049164 2.122140212585945
Ni 1.101844477846143 1.2420400659640165 9.915099929288145 -0.6073544733993862 0.23447175279346713 -1.1048781046168583
Ni 8.132235420535958 2.965851593347666 3.214708975180529 -0.6514676616685167 -0.0066722698138530255 1.6922741326164465
Ni 8.278020263226477 6.685101278974336 0.5455576686704551 2.074636767688343 3.606484090342879 -1.5462930657662208
Ni 4.217621790195625 0.9715925635610008 10.31137529314596 -2.0830347619440515 -0.703560268598698 -0.18227141664082802
Ni 8.526259298955456 5.265950548180084 3.104680506593291 -0.015244584863896326 0.39954994548446027 -0.3493118752645145
Ni 0.6634240919258461 6.801556461872514 6.8800074990195075 -0.6216827170966003 0.19898101608602506 0.12812989760141805
Ni 1.086868618002823 4.565046883398991 7.883402178340783 -0.25506114690904463 0.5394192430099937 0.8145874450815584
Ni 8.25192160109407 2.0277109969382345 11.57855493486804 -0.9427188853448732 0.3347622595851138 -0.7442531183323698
Ni 2.213316957339851 9.305551794894113 6.123493536583393 -0.41664675306574694 0.8402565677128884 -0.24885450387770047
Ni 2.7376113189965605 7.914625871244121 13.179407503891488 -0.427663930111857 -0.5884702349003736 0.8105150747843977
Ni 4.91269480402718 7.3019340132648765 0.8970066537870851 0.23216213082368403 -0.9380410202532297 -1.544174219651005
Ni 5.8332227493995505 -0.212196699763841 8.650107710119743 1.2888042832522901 0.0573620828592367 -0.10318222651714487
Ni 2.472428114504991 3.1088510932278965 9.646734934859621 0.7867303136599741 1.049476230807786 0.3542005708153836
Ni 1.4145734841093438 3.383411618514106 12.878634117417649 0.5284964254499026 -0.1460754263362452 -0.2748529848239911
Ni 0.6333953110881217 1.540034608760789 4.521622460538984 -0.11345018410205622 0.6647895755884035 0.2388976497753047
Ni 2.6196984733609985 4.049284955217799 6.115965683414785 -0.39091823795139125 -1.1244894510898829 0.6690118411998672
Ni 2.7339625199150825 2.3855347033000123 1.167657486215252 -0.837508572654106 -1.8578886574268842 -0.3989007419362356
Ni 6.61928362836721 5.637886658113993 1.4364282122464738 -1.903915774889276 -0.3886219857180468 1.1027422892207783
Ni 7.54588362106601 5.444955246121316 7.538981541582115 0.1469280041445276 -0.7181805896150342 0.06776579469106395
Ni 2.0584240436596866 3.6840986593608243 3.764660057910413 -0.12525231894330685 -0.37252585148713263 -0.9053409589170471
Ni 0.25112000864242123 8.120926928726183 4.689171971949101 0.7598301468350205 1.4269599405208264 -0.2083899681047508
P 5.245961071278244 8.448343976075641 6.535042791965229 0.7800901826356371 -1.2751558392309201 1.15484749455645
P 3.2224466575075117 5.010367491907976 12.5566067084061 -1.9384125231145646 -0.6104827346157229 1.1856696221436287
P 8.198229476187734 2.5153781006396456 0.14953762790358244 -0.48015840046614733 -1.9120306906869264 -0.09903632266957137
P 1.2134160263502811 4.620846584365111 1.855220287382665 -0.2145289911229531 0.590682412060344 0.09527814117871979
P 3.310556335072983 7.61107921177884 4.1371281683210865 0.5059709906538771 0.28938768810505644 1.4649107087329867
P 5.566934692259901 4.2111412259236864 6.984586908622217 -0.7325803099801318 0.4168323867139918 -0.4090517143273084
P 5.981365849002782 4.244908865260421 3.412778416210585 1.1118740763187174 1.611396226023457 1.2985441362478733
P 6.885692383695307 5.075655927381148 12.853521466640084 -1.319877864728643 0.9437326713213683 -0.27846975564097204
Ni 6.289814711814173 1.745175106738565 13.064011679708821 -0.4209669777076557 -0.2035771200971397 -0.3156995865267079
Ni 0.4554016925870247 0.06816755149140656 2.4901150413503252 -1.3338266135992514 0.5248991950169476 0.8048208526130978
Ni 1.134999341764615 5.761880835552018 13.234006722106372 1.508675255413447 1.6064805338893946 -0.29327211076112714
Ni 8.069685905492904 3.6502010373596088 9.416473430075849 1.1889215534220234 0.6851054043276201 -0.5608244481586471
Ni 2.674811123100581 0.6495902226347448 3.3689686875951548 0.6303473347501338 -0.43886339837210225 -0.43855846553717376
Ni 4.9111350120534185 5.954357308219015 11.885145045577364 2.20690357027627 0.43076442341405163 -0.41429033701842843
Ni 5.793605890161208 2.576274978948595 8.760448137101735 -0.489795409335279 0.5648829344987367 -0.08435352384641602
Ni 4.203100869677986 3.3668945356490925 2.593335203661614 -0.8734808769836571 1.083048667446593 1.0845460779277256
Ni 8.149476692531644 1.1971217709100912 8.751955626873164 -0.5131443684738646 0.06055410743397313 -0.13884856957050282
Ni 0.1961169157200433 4.201225405519057 5.243851638323252 -0.1724444032480772 -0.22200370223344346 1.1300674593982925
Ni 4.295332854602685 3.217943686630878 11.339420256338293 -0.30617724885856945 0.685941012855038 -0.6362729562059494
Ni 8.71307224124153 9.128348285303533 10.776138522918366 -0.9624690713886069 -2.0155569308070516 -0.290432584429803
Ni 5.141139336851039 6.406854816702512 7.321479692212277 1.0015891773185204 -0.6855288650182838 -0.2865538182006871
Ni 4.617095656047256 0.13027419702762452 13.561863853619856 -0.9431024939365371 0.7358870057558616 -0.786734170314716
Ni 5.9317217556474 2.0177766075815375 3.6257011620003077 0.7232163522667286 -1.5009637457018021 -0.05473055877366058
Ni 4.683461090740405 0.3275210334810417 4.910356044514141 -0.996982017563812 -0.6255260021020905 -0.9659184633897879
Ni 7.801865909807593 6.677358025961732 11.24156744962243 -0.7874689915982116 0.38608970621449634 2.0530826956666512
Ni 7.004338702937579 8.050021385252263 3.8134165553569166 0.5563779823515193 -1.3926737656444468 0.22992809928684274
Ni 6.598987763756238 5.766523073569167 5.159601517445238 -0.3144358893229359 0.46072343166998725 -0.9085926330851256
Ni 0.7957984374324285 7.083080344184445 2.3906588056233407 -1.4193546173697427 -1.8318063585175355 -0.020742374753673954
Ni 4.949043527701449 2.6168759926465723 5.627734083570489 -1.7640973852063357 0.7160841120973216 0.389288158547136
Ni 3.063227177995365 7.208253650078827 6.717323053051361 -0.04275050359364896 -0.3474102873664275 -1.0503041260257202
Ni 6.428014137584672 8.386760046540154 11.870768034438257 -0.7225041566910525 1.5307934274687247 0.3780102716404716
Ni 4.314690987134192 1.015916652148731 7.203569631919525 -0.014757617925148776 0.2838441325790079 0.30450808868626267
P 0.17868345507044522 7.764338057676968 12.388989420320934 1.0049778912850948 -0.4600140643077884 0.10669461054577753
P 2.7297566522715466 1.3581888611530626 8.507806402837291 -0.04531183656292196 -1.5929323628913146 0.3583073938949055
P 2.3117602567314943 6.428023422060707 8.628719062679536 -2.062474678404512 -1.408234339086865 -0.9642829846688942
P 0.64748821726058 3.279286219789473 10.6917389219762 -0.6466339877252991 0.17929510762132347 0.02861740662637652
P 6.9617322424161925 8.033365035246735 1.5119267860145607 -0.16696589663200923 0.3975768809184895 0.05404201734706821
P 6.249250836020332 1.1502723048410322 10.434707487442742 3.0715336817375167 0.7775892705906543 0.9298988507620695
P 2.741028006177182 1.9359060979111131 5.08904878406062 0.7635034819215496 1.0753847231434317 1.3243533840014934
P 4.471858597442759 7.977398213711997 11.129229003397858 -1.053464526031573 0.19321994523253175 0.42322646316579365
Ni 4.332071526270394 3.566780020191457 13.670845033310426 1.0852271631551504 0.2854171334930826 -0.17052893139291922
Ni 7.083618843794434 3.5169688062674576 5.5087785912762754 1.0842156911715006 -0.8769809197171156 0.38874128490473053
Ni 3.7018877154425365 4.5616673341225065 8.470382536838251 1.0311442652678178 1.0749386367449487 -0.7693190601620622
Ni 4.754515185830875 6.189310258742915 3.0396306821542014 0.37728959142436314 0.7804660779178172 -0.39020655659634734
Ni 4.105799560838561 5.00722005453235 4.817640338388055 1.0398875586780865 -0.4091650999767211 0.33419815955152765
Ni 6.4365187176320875 6.743881296747466 9.375774929379512 -0.04245765494357849 1.5215891352616375 0.15618063309104716
Ni 0.4016965694142414 2.543779312828558 1.7180960039369366 0.8565000261549444 -0.6513254796636976 -0.4003955813142072
Ni 3.1301868191547095 5.567176088636792 1.2439470973414608 -0.11641775137081242 -0.6413002342172117 -0.3658016453894216
Ni 6.263697480729697 3.306081217624452 1.5087607796868656 1.3418338001744439 -1.1276673345972321 -1.2990182476708143
Ni 5.1656132156774435 8.74032217840219 2.6537780710924865 -1.111109430238551 0.8608089379429432 0.09834341036760483
Ni 2.835896782295621 7.774569550266762 2.1125776070249263 1.5260538559012107 0.15204295677358975 -0.7306121305101676
Ni 8.602633398813577 0.10511326697468168 -0.005203020369619624 -0.6930488275444129 -0.6611131551780808 -0.2661436299754513
Ni 8.630913912814043 4.540675133808963 0.48285217443002504 0.315197964299941 -2.2542591767420985 3.3462833082144243
Ni 8.766541538723043 4.647010237829758 11.872453166838483 0.4593484056993315 -0.793900091935536 -1.3981895532563533
Ni 2.221524434154169 8.605242336579215 11.010218732695044 -0.036050465865654045 -0.31874274422840587 -0.5969420198168107
Ni 6.877252794980131 0.8305892260281433 6.218356742016212 -0.9897366488553083 0.44884827749895606 -0.6604780926972432
Ni 0.15696613717862284 5.939251465711214 10.099934349731312 1.9827550537856822 -0.06480774050400451 -2.8700795215206507
Ni 3.867829155603513 7.709336821649796 9.084975855509319 0.4926423918657709 1.0933708753082074 0.2809696392446903
Ni 1.280264253797214 2.2653193076079448 7.294356023925684 -0.8518424727782749 -0.5636395490099391 -1.2010039385078541
Ni 6.642225568647956 3.606740405043068 11.112936604852875 -2.2207785284861496 0.7359140023390551 1.345205287749838
Ni 1.872372428408424 6.0087921912080935 4.635931072578033 -0.25912348990387635 0.5089249310758784 0.012046646751888929
Ni 2.566062055310869 6.0217718887040395 10.758989167235418 0.42231397865385334 0.38774729642257744 -0.05073737845386746
Ni 1.3568890345082611 8.608417627382943 8.47944604234293 -0.11427216578271933 -0.3340865736743278 0.0027166276002146762
Ni 7.414118337187278 7.658912832307533 6.528819407679441 0.015988919229088593 0.41991616784563807 0.2987830132770274
P 1.983006244833098 0.20584704660398578 1.2024129938020367 0.8472443118846311 0.6082201638337913 -2.158297636343109
P 8.052509624829455 0.5236955129524976 4.150621297341729 -0.2523049243201461 1.7153824364991361 0.8947215315299881
P 4.813109514083318 1.4038963366699033 1.7298092989018048 0.5290965209277468 1.1421418740643234 -0.2448690368673912
P 8.370029420726352 7.784652491240007 8.95275656075251 0.3039804983175668 0.118716317597002 -0.8241732889977806
P 5.789650703370599 4.811029791451635 9.416350874992197 -0.362809138420001 -1.721172817928668 0.38765550803971943
P 8.51643632331117 3.3493932983244443 7.353086833975832 0.5360935210708703 -0.8297705805799 -1.1247563315980242
P 3.0394124969673952 1.7438102887615234 12.26102427248304 0.3241009232165257 -0.4454986443004328 0.6311464336126614
P 8.751686377068168 6.278255539151473 5.037370462006124 -0.7184060753622789 -0.9475523021777746 0.6515756480012906
