# total energy = -381163.3824078633 ev
CRYSTAL
PRIMVEC
9.31204405826545 0.00000000000000 0.00000000000000
0.00000000000000 9.31204405826545 0.00000000000000
0.00000000000000 0.00000000000000 13.62911775511965
PRIMCOORD
 96 1
Ni 8.640133511704603 2.0845196847125314 10.57521444470485 -1.8687381985468787 4.118213066526456 -3.8134324409050966
Ni 7.480197368686685 8.374526079262385 0.32326667799629694 -0.3232522020629852 -1.090435189718651 -0.5286920864004766
Ni 9.141968877610841 8.32919504882629 2.752318955702436 0.25368123584238245 -0.9698296255187363 0.6279315262197895
Ni 7.028647040651218 5.087942564249089 7.169924716957957 -0.961417490195641 0.16665505025980976 -0.44159673814286526
Ni 1.84876666549507 0.8843517865803768 2.5425390897496327 0.4132647239673915 1.842484407056672 2.5079692089398873
Ni 8.468559100080725 9.47481858013914 9.106949073551469 0.5451371193303772 -0.09632098062093734 -1.7690886677733402
Ni 2.7617380882591553 3.339066195279899 12.055431824396589 0.11944933910828462 -0.5446650647899652 0.332341308848447
Ni 0.426089337193567 3.8307793693036314 12.3478169707094 -0.15976912177325386 -0.9540638780440471 0.6156192845113398
Ni 8.481549401530675 1.4128605714638427 6.921697283530924 -1.1791163944061434 -1.3544861988311319 -1.0700450560980734
Ni 5.362247445834141 5.934751914036911 3.8818456876702085 -2.8593076277161273 -0.09030022834815415 1.08475433728379
Ni 8.728858667414363 1.3883512715238673 3.1955918077817316 0.683443700354481 0.22286373624089362 0.4966049760579447
Ni 6.3715147161207515 7.324993530502957 5.6693316536801 -0.04885687360170295 -0.8388365474369103 0.44858268254239514
Ni 6.783554041251463 1.1284148739081854 12.930121434070537 0.2032480188924951 -0.3085064112123784 0.5044437553760731
Ni 7.984230376988756 2.8244919531130663 4.574586337444015 -2.0427363194353205 1.0372925442574006 1.8629686430529526
Ni 1.0913436265445675 3.0145787083086284 1.3589550108663768 -2.3895858492022715 -0.7778162989997959 -0.3380753831187468
Ni 2.707244006477721 2.3358517536258816 4.141234537095742 0.8952622345248066 -0.5541249246512844 0.994360777890881
Ni 2.9345510017417027 2.8150681645343227 8.01982287175721 -0.36113715003421676 -0.2186458415048041 0.4125880096153411
Ni 4.402771675083644 5.271650569270304 12.6961367720182 -0.7570070755639284 -0.5621758199802189 -0.8834140769369689
Ni 7.198424227773419 3.3745543951549926 12.211103127191635 -0.7274998101334309 -0.5171318923667029 -0.6047854271206294
Ni 7.403941039960067 7.550344996516409 8.261657586943821 -0.8007477109849886 -0.9335721858485986 -0.03164308082657776
Ni 2.686710949347156 4.048625327812669 2.464553514442903 0.5502759832188394 1.0275845729410173 1.6373947069697476
Ni 8.013721620495557 2.7243967916180836 0.7007974302859901 -0.3284556006407956 1.5063759178563088 0.3839523481565194
Ni 9.006469324637214 5.909777011894429 9.02901750810023 -1.9079359517922627 1.2346992738777705 -0.05132487552622128
Ni 8.88211628839161 3.5711688932297045 6.59270369844379 -0.19630372636417806 1.7943093900133422 -0.19671253176682252
P 3.531751010765451 7.775072555578502 13.494993750969813 -0.0791894631469733 -0.2054573678389881 -0.9443947303853993
Ni 5.331750501569924 2.7132130267138623 7.999474193098839 0.6968987974181223 -0.22445062111203926 -0.43978153931099745
P 0.07599000426678405 6.1477835457720245 6.737622383974134 -0.8887966814051209 0.3826071469825346 1.2166763549377884
Ni 5.550015502061218 4.010334202678482 10.392311000289569 -2.5354021083398592 -3.5918779103939302 1.2919376866749492
P 2.5300544322916068 1.514119738465094 6.291922813215373 0.23300468132963742 -1.3362938441928214 -0.1576073382352447
P 2.5548151574209355 4.30525594979055 0.4140870436173381 0.7244404544818168 0.16515069780014138 -1.2702308911254772
P 0.03061334481484395 1.4863325990194682 12.307652262312324 2.3835255019408046 0.2877054153066271 4.656670974064444
Ni 1.5310769706804037 8.763350478576092 1.1606392023437042 0.15296726836007205 -2.882511062415784 -1.8878978021944646
Ni 2.236725044712113 6.705668104816071 1.6848448916715992 0.9820673052355087 -0.8170441341521671 0.18904910168429376
Ni 5.912868610519076 9.02119166628049 9.667596516065192 -0.1706042647155449 0.3757541286164432 0.3222888097084514
Ni 7.675899286444483 8.987044400748617 4.775669685458391 0.5392991724923616 1.045351410006135 -0.7271712231494185
Ni 6.164098246947875 1.9308337097089774 3.2146861541065492 -0.4975020339509174 0.3081071188914306 0.6244816199979761
Ni 2.369095750884891 8.349886410705707 6.283009324650576 -0.25686708976953176 1.2048636785735765 0.6961344084482721
Ni 4.712872053997444 3.125503777033928 1.602511522997858 0.4553472549597384 -0.763352301055666 0.47293591457577905
Ni 8.360232091645415 5.382873623405207 5.073711898531661 -1.24093677014705 -0.7729170619259657 -1.4253512012728098
Ni 6.334611085550036 9.385143595936265 7.086909706659745 1.350185771683565 -0.12659906277918842 -0.09015418968859312
Ni 7.051973710996825 4.250761868009115 2.6882073948260143 -0.22712328284819594 0.380350489737874 -0.289032875868799
Ni 8.282681388795828 5.223805286940671 13.342578869979102 -0.3254255555652202 1.2655586824607883 1.6304740685905146
Ni 1.683207834327584 0.2303166479009881 8.707616032527177 0.48208389962363424 -0.3888600698707819 -1.2376496147553457
Ni 3.859460464978071 1.7988354852982054 10.000760034477981 0.9536489019938157 0.05215174230289084 0.3311182350746233
Ni 0.8877618571115391 3.740396669752947 10.108498521729322 0.6329775732841292 1.9002470677884369 -0.1017884314934118
Ni 2.382831015858851 5.3272248481615545 4.427868565003183 1.2364908185605543 0.683293805040178 0.07315456980680304
Ni 1.8243784221277466 3.5899699101669427 6.033119691360592 -0.20980073240934832 -0.14649451615153478 0.6013866858517256
Ni 8.129544824391232 0.21509797430983996 11.283751114800914 -1.955052445664091 -3.477631198532508 1.862445166449315
Ni 1.4966689679151266 6.024845940222041 13.257369942102677 0.27331520802322606 -0.7656626943563974 -0.2685136728695246
Ni 4.891886788817386 7.245915652429146 7.596583951247393 1.9442090751916838 0.023897118332571746 -0.8667942089921008
Ni 6.7601901227296555 5.57759777653774 11.622216911095855 -0.39130210365337126 -0.13645204431386823 0.07004250654038259
Ni 5.105169845741853 0.5374623152376781 0.8346934492741812 -0.29464662251115065 0.6928045727440907 0.6915557879386541
Ni 1.5467770769489442 1.6137865459337708 10.548065180276659 0.8043986774740147 -1.0708768079707491 0.9738788558874454
Ni 4.411282883345474 5.4812088085747135 1.472599196454318 -0.22638100536553268 -0.19144768382345737 1.1952084148719995
Ni 7.685118210054124 7.433255354629916 10.79942704773097 0.9053515004400086 -0.49870479600976686 -1.3185200651491678
Ni 2.628780723311219 7.8918083397910905 3.789739328765843 0.2423069325671698 0.30739338065385774 0.6238838385129771
P 3.0766993541671304 8.977257442451917 10.568235998893675 -1.192028217371805 -0.2883672172603421 -1.2853777740692442
Ni 1.760497799943768 5.709735681609264 9.16184729804468 1.7290699612885576 -1.9175140823990007 0.2758595717116346
P 6.494852739564891 5.360114987746658 9.336613878368947 2.4996023250324306 1.9009260961333325 -2.675862759592488
Ni 8.008115769977373 3.9008897489571557 9.023157438779476 -0.6018631112675119 -1.7206359715885917 0.07185744826193431
P 4.111677178076184 0.950424463933759 2.9466557278024834 0.06039212793481212 -0.06472649364410789 -0.39698732696360667
P 8.336616747934254 6.54509121721541 1.5026510250129381 0.159759351581241 0.4808076040143719 -0.10017892091444681
P 6.012721658868755 3.542012883308708 5.60144499014575 1.8892242343153722 -0.8893052456104233 0.060359732034979914
Ni 4.807743158780297 1.4417465321073852 5.872201051743293 -0.16671135741904192 0.8846350938282636 -0.9545148495385368
Ni 5.319486539555886 8.774329378511208 4.028290617220372 -0.48856513647260374 -0.18492865175801698 0.2634149181903786
Ni 2.882869157263411 1.7142448771467096 0.5882204049461955 1.8608773077415628 2.0049377605303085 1.4762965819724252
Ni 4.093453507870056 8.010704518223312 1.8999670772959696 1.2309583187780995 0.09036553436845082 0.45196728274391196
Ni 8.88729378488349 0.7463994412039436 1.1550268333946832 1.2389297670193502 -0.25434020958262 -3.0180652775057313
Ni 4.238423409642675 4.88697934160296 8.247142903882862 -0.14968191274058093 0.742031942311335 1.2033007049618307
Ni 0.929399730877347 0.35180902421438914 4.807071760404281 0.029646619221839265 0.45322995150641937 0.4755545831455487
Ni 2.0853577686770444 0.40674077206618064 12.86132125901487 -1.7411132656063368 -1.675544992787224 -3.6712190686274186
Ni 4.415808536753843 0.3388177915600351 12.17613081455692 -0.1646231074314455 -0.002678061052795388 -0.33092463100657843
Ni 4.674338815717954 3.7919202094823863 3.883998632254602 0.1884790881134367 -0.5613728644629494 -0.7699703205928159
Ni 2.187371211246357 5.97318271983185 6.748989596146144 0.9465518859377183 -0.4974243866354465 0.2242829851859234
Ni 5.660894010566266 7.606934288209126 11.962576777150591 -0.8782885827849455 2.1202213982966778 -1.4200398163622252
Ni 4.97634702835218 6.510608718097732 9.992215302857572 -1.003708280544052 0.9629128437942449 0.7952216389604368
Ni 0.20941204021282286 7.950036551236631 12.947716541303285 -0.3694942637496604 0.46523983148310194 -0.7638017298882587
Ni 4.230657164904857 0.3297851088313968 7.894639201182334 -1.4817246949665321 0.2369883485677338 0.39428098377603704
Ni 7.0672640873271595 6.889711343423089 3.1922934817791706 2.136202347105966 1.513178285490123 -0.47917803883074894
Ni 5.888219629918348 6.676093052912817 0.17509902029685726 1.3104853677701496 -0.8859903223045773 2.7627542193694095
Ni 6.952688697334205 0.057442274927709924 2.2890922556324953 -0.11196460069546524 -0.9887166922312263 0.5033507794222105
Ni 0.7412126326680143 3.625644350923039 4.019186231752547 -0.7733523496911714 -0.11721453624049491 -0.9446081319477861
Ni 4.125542811666847 4.205281844868218 6.060241950861038 -1.083608396604805 0.660855787751636 1.071400284574387
Ni 0.6867194820909844 5.664777132935175 2.7601829769027817 -2.0181239202032795 -0.40745505926414993 0.18922419380957733
Ni 3.0715963540276516 7.273879720711724 8.694600588558293 -0.588438867441806 3.148227889266462 1.1897659037001898
Ni 0.4898619396665639 2.4682503959308097 8.319718181596459 1.0987825332420817 -1.1249321950542561 0.6345348904689201
Ni 8.981894840388888 8.453017298561036 6.674560290462164 0.34126766480379933 -0.6523485216115733 0.3867918744878435
Ni 0.8353508795841212 7.968930688614372 10.363594518847739 -0.7672909739884398 0.8017697244915999 -0.4009362843090256
P 3.9871192768614763 7.076687875905904 5.6543122578316245 0.5803123816799296 -0.7289306290426866 -1.6821583843386836
Ni 0.5548991177215702 7.119122860642404 4.778027495011886 0.36750165879966384 0.7043349419811934 0.34129183317351547
P 5.868515344708246 1.58502164186288 10.999501901374714 0.7371509600699498 0.6042922895342948 -0.06691835908910411
Ni 4.821692600767411 2.6443877091392576 13.007943117401986 0.8677262338880668 0.30807292321938556 -1.171031303405164
P 3.1198048060752406 4.143272943538318 10.12901016115857 0.439294829482566 0.3478473749038461 -1.0510769996360028
P 0.15419720622190708 6.161593307098387 11.508481467476221 -0.28439306310394247 -0.34056575364076835 -0.4881064516686303
P 6.253018955582687 4.327027508779784 0.501880063717678 -0.05440351445154502 -0.02035182418347463 -0.3441884379950202
Ni 2.5420297209400897 6.769595287220299 11.242931769707113 1.7617785072651724 0.07429793938262688 0.5644980403554923
