# total energy = -340884.7647731631 ev
CRYSTAL
PRIMVEC
9.12851031116221 0.00000000000000 0.00000000000000

0.00000000000000 9.12851031116221 0.00000000000000

0.00000000000000 0.00000000000000 13.36049756435116

PRIMCOORD
 96 1
Ni 6.400071422835963 2.4127564908256267 11.594533220805168 0.018718916565741955 0.20727693754623008 1.2485585483583659
Ni 4.6182136469678925 0.4101759062483951 5.947678896167905 0.699815199733969 0.2881373606377231 0.0360401814530089
Ni 2.9983869244544232 1.9809140659779558 5.0040273855997945 0.027215641182843454 -0.4157666644536388 -0.34244934381672637
Ni 3.788541625711945 4.431353046282332 5.061343474490097 -2.2400589739823165 2.399557358592687 0.8372442632491258
Ni 3.6529010949065346 3.3966638178550594 2.973551900017436 0.08358476400119152 -2.3988366783765787 -1.2518446753088053
Ni 5.391142849764561 4.93364018317155 3.1564041719408555 -0.19739541676646005 0.6122357127510875 0.09142868552564254
Ni 5.5323609002093885 3.538301779762102 0.9517813616169905 0.24512640429383592 0.16292078002835814 0.8324082753130632
Ni 5.445311428390263 8.364992339209568 12.977171128184631 0.7475994090967835 0.2985421009108149 -0.06460668023679196
Ni 2.6088277581497676 5.809246866989771 11.456706411843227 -0.5756908237475182 -0.5499710503839109 0.7769997166357715
Ni 0.7944085869399576 7.927891892574164 12.19400521421997 0.5858947608637136 -0.47260347093702476 -0.8982218313737627
Ni 0.5941564620137656 0.6833867348833937 4.762950738036281 0.18512945491491342 0.547001940453258 1.1817957410105195
Ni 9.066600493000067 2.6815637262134 1.2382504382459174 -0.3173936863996792 0.07581514735810169 0.5679314915170736
Ni 1.7351015474014642 1.214073579383401 2.7770999738242876 0.3585331367524664 0.8423810702550588 -1.1592633642359582
Ni 2.1873735777368872 6.616134127165545 0.8204814373394738 -0.03849789896488209 0.5652367182937298 -0.684441545491376
Ni 8.043814841675577 4.260942020703531 4.066722015217155 -1.1707783068540931 -0.7493081642577741 -0.0019882340746223822
Ni 7.732286179262478 4.300039429239743 13.287495740122377 0.7194090627054965 -0.40527322112148273 -1.7272719888478705
Ni 8.291909487764105 0.27221216963573147 7.179343114414085 0.4111610473608274 0.0997228072136347 0.32150308058236243
Ni 7.075864150210305 0.8397243365209668 0.6595613236577311 0.15846557247048193 0.3776256346075432 -0.217769866657754
Ni 2.354224484396911 6.756804467007485 9.182910490927522 -3.412946356759612 0.5824240287062937 2.3222841386318196
Ni 0.12672654074339512 5.397852304649949 1.5967398077507013 0.35672410856818565 -1.4050803668389156 0.10895820976897364
Ni 6.519581876386298 2.026383174527774 7.115493750882323 -0.09475235058223683 0.42612409642856286 0.8464220730936519
Ni 3.637117901033289 4.545687634635368 0.4033559963914248 -1.2616284941684468 0.8854233940575139 0.09168631006240338
Ni 6.465294627129971 6.200859948055261 4.993125206049292 -0.5699122693925281 -0.0415737096767284 0.5072717117431715
Ni 5.625955513733037 3.1956266410647274 9.06748869702775 -0.4578401965849212 0.3761171683828167 0.6199713908324485
P 0.34279837358302506 5.923006359209774 12.74540647372123 0.1820402744666284 -0.5525380397801387 0.7751125269153877
P 4.04413990706005 6.738684374561914 12.90885883609033 0.45781654243583736 -2.57738873718429 0.827902931243542
P 2.66225692746157 8.86903215002803 1.5176458324385353 -0.0654875401798485 -0.3792009495144631 0.34353717756426644
P 6.708642447993463 8.329372893001699 5.919689058658278 -0.8796044733828915 -1.0150041651728454 0.5350349978993688
P 4.899289599860374 2.0286653020398107 13.12819776267619 -1.3318880018156416 -1.8651455960996137 -1.525384854858644
P 4.236495870794594 6.504026895264258 8.551279669464105 2.553217025034093 -0.7764171046594242 -0.35710848849079785
P 4.868170509106243 1.4408257689793624 3.889694645555457 -1.0109050554028072 -0.27598478443558916 1.0722176382693598
P 0.34007533903566295 5.7765850580375036 4.0640491874750575 1.0274871281312048 1.444640388519725 -0.7581190776811847
Ni 1.1373301954086326 7.711290606151741 2.842819769064914 0.7739406180944736 -0.78064785491132 -0.029360198329672016
Ni 2.1266416003865682 6.753846829751886 5.003866723822947 0.10623618285212026 0.12256217370565343 -1.4699415862886749
Ni 6.263335470824776 6.195090729704831 9.517577187759658 -1.5310163421128085 -1.2451883463345523 0.24802172356375995
Ni 8.653827525642972 2.785765668412993 10.518746527290135 -0.06676872088511727 -0.27269274394787874 0.018046315978749568
Ni 2.67732809755106 5.964002497836001 7.038123238267247 -2.0210552349174615 -4.576972946712169 0.9163576217425251
Ni 0.7133483305634205 8.91700247033104 9.083441681187892 0.4805052422826047 0.22837078210205186 0.03213493286133176
Ni 1.2200892675051296 1.1613838193854988 11.441181554804345 0.8795635928426272 0.8754066332514602 -0.09392522669525115
Ni 4.5406852111289835 7.125705815073186 1.955963109463357 -1.2010964982216605 0.06374433223649667 -1.1035249330230736
Ni 5.643573538125959 8.561675216706933 8.008054816412967 0.10504807608129006 -0.6909592920052358 -0.21123977884872006
Ni 7.323977053318929 1.0500068682880623 5.121786990922894 -0.7589577715323961 0.4063497420151131 -1.9823989559978443
Ni 0.9677316072241169 7.474980866535369 6.892453213471938 -0.03263681219841476 2.6970121399765943 2.2855574726347476
Ni 5.194679056508351 4.786543372255716 7.23241079472798 0.00181725571439687 0.6647427815108681 0.44644943824947625
Ni 7.670303596035562 8.001942366084728 9.122681494480855 1.0118175399147478 -0.03903731640811987 -0.07780183877082729
Ni 4.6311943882563575 0.7253039401734782 10.688504864400493 -1.6469101026593507 -0.15103739832721086 1.2118791906594613
Ni 8.71826567807284 7.808929149626717 5.027194631250985 -1.0287814214625959 -1.5723447685479501 -0.3837764847002874
Ni 7.182284320351597 6.605106887027385 7.293428494442806 -0.18928564317513208 -0.055320884059491815 -0.7205802001954622
Ni 2.3012699976076125 5.240358120789276 2.9758906242917713 -0.2976267881853971 1.3523622105095936 0.2861432130258298
Ni 3.34538897691462 4.503842544574664 9.236966788879633 0.407405179862821 -0.4983301862791676 0.1884469493239206
Ni 1.1597224305567362 3.1816691492011113 4.227809180632778 0.15218231056493148 0.9300878268444239 -0.8718831934792339
Ni 0.5791555814516465 0.5135836680737997 0.5426241970899685 0.4402237690547386 -0.7406587161128921 0.5064299325681666
Ni 1.1587365514715362 3.59830347630857 8.38595687538614 -0.4885893048423198 1.0071957248720202 0.4493403866440261
Ni 5.611185584475135 3.2229847856790226 5.070014646184831 0.9710552703957214 -1.3444745802314007 -0.24101263923577845
Ni 4.292681850140937 7.104646342392111 6.470675883803354 3.384242561067017 1.5900720106243844 -2.465702586961192
Ni 8.579247598549616 7.6159250616787535 0.7512873311745227 -0.5869124034949504 -0.9715445513273139 -0.39348111358256105
P -0.026896242005859133 6.413517718136884 8.558066716684902 0.21131434084039735 0.015272609888354341 0.7518512423946019
P 8.569315779617233 2.1809562351730403 8.372181953723487 -0.6731531170617504 -1.2182071897600182 -0.9197298806488676
P 1.7209706138469334 3.412529168318738 10.503982987989266 0.8546483176581862 -0.1112392924936665 0.23902003428578192
P 4.196193498932027 6.6780345538020285 4.1593636122917745 -0.12428532704434724 -1.4347766083517677 -0.1994715825691984
P 6.906101248844923 4.265241548936208 10.61351232865296 0.3639167696618829 1.1318368925938893 -0.2911980018409178
P 6.21987463448555 8.146747920978479 10.802924347896976 1.6672043341320124 0.7666710810162538 0.1578575065728378
P 2.0897624197920557 9.067677657185747 5.966130353528223 2.145265742859815 -0.3570575806482044 -0.35153048018238814
P 7.108827199994162 4.2703717715832665 2.05942746805106 2.091787311325701 0.6563892673398501 -0.22782390845964634
Ni 2.4772676713358788 1.8866621997308421 0.19807588813071372 1.4023105174032624 0.04188481315924399 1.0761511689958112
Ni 1.4836567381252663 1.6595357412229066 7.130029990282992 -0.347891083657588 -0.7366269692456797 -0.31355682915209226
Ni 6.622496698669104 1.003789221914296 9.726121651213587 1.4484147679604926 0.6670755434091028 -1.91995611618159
Ni 2.5870836472150827 1.4954781586376162 9.2823126625438 0.04630068283875252 0.6114880359517856 0.8932205215044294
Ni 6.578250810465738 2.108275038169697 2.8608695719831143 1.925448249644413 0.9709136026115345 -0.05772178019150059
Ni 4.3426421856344435 7.35239410509881 10.71038955438992 -1.455182168591313 -0.3795771019069592 -0.13464764411527777
Ni 7.671828057213603 6.490890969304975 11.545326900241639 -1.0917852759886422 0.6040338936665856 0.8850135602136049
Ni 7.934866074250947 4.5134457371453145 8.448764675921408 -0.7020242915701458 -0.7719552122333285 0.06668104626731741
Ni 3.022577476082012 8.623904269705148 12.738686064623785 -0.09261139297983405 0.8712265337318413 -0.435891717338288
Ni 0.2167920722824287 5.194806855649024 10.650480968645944 0.8849171438450565 -0.7266829706590905 -1.3500893553150168
Ni 8.749759037738947 2.8911451884087973 5.998475403181821 -0.47482516117869195 0.447780498356074 1.3825783290816576
Ni 3.5948072569601295 3.106322427263709 11.646960079713683 0.4499903615231992 -0.2855076363243599 -0.7439409864085897
Ni 1.4308483074967382 3.895107852014008 12.694730463039951 -1.18923857044181 0.5522277076285715 -0.25583453473995943
Ni 3.0033984764708563 8.59179017135577 7.857602365203435 0.5465370850016975 1.1317075661048768 0.18519270405268107
Ni 5.810543115416608 8.129422008907095 3.659039105062908 0.37031316010653 1.886312717095532 1.4622933257147976
Ni 3.257636609821787 8.761051004668504 4.000453596522634 0.19975029015188178 0.0996526160973316 -0.5523403219470359
Ni 3.8555175039351965 2.828614894578993 7.061316956597579 0.023002631542760384 -0.33218755687940216 0.8609994566871945
Ni 5.361529963168374 4.937401129311387 12.091463747998134 0.12443393680706957 0.17366130637431382 -0.7640315865108777
Ni 8.344215850339985 8.881647750914567 2.7540395317406596 -1.3149179496202064 0.8380366772434342 0.201986121460936
Ni 4.863140700069715 1.0393630255719233 1.7118402780967772 -1.6750940212927345 -1.2007221456013772 -0.312176660975114
Ni 6.409829800077433 5.995970540024611 0.6763815162724461 -0.9645969163648872 1.0494132387803345 -0.04869232299938066
Ni 8.206001079700998 -0.08370752429049948 11.105192136866233 0.10543554132769584 -0.4800555563396958 0.3580042608321899
Ni 0.09909819223167464 5.598670397199126 6.320918112208484 -0.814298710196546 -3.2159808284417193 -0.8750137686884156
Ni 7.475090408655947 6.461917078412157 2.7928247452332244 0.5645150096363568 -0.4309662550122126 1.077959940069776
P 8.734870437850418 1.7509212553149025 3.302688545462405 -0.7832865780857478 2.107267666349487 -0.4746734660921761
P 1.8476378192750156 3.6748734185924237 1.5461167424276998 0.7933190226210852 -0.1829296190501172 0.231916076251149
P 4.570343740275412 1.2131789853986825 8.439292021044446 0.33436888080143706 0.9772680840746523 -0.1867687902905493
P 8.42831681341356 1.49210973842985 12.447066682625694 -0.13772859703344667 1.7443945074607698 0.5358240694595675
P 6.591459764505405 8.064171419082944 1.6406826294204695 -0.5115245734822546 0.2516757753765794 -1.1616830294210445
P 1.8802631141870914 3.7533968620265807 6.289226663874334 0.41696171320300446 0.4109000803899569 -0.4681636899981163
P 7.022078969006625 4.39461992184859 6.201488902397577 1.289316189891702 0.1425105918031223 0.4449126898899757
P 2.359290807473632 8.56749920611765 10.541552283943421 0.03541051828880998 0.40508501637007654 -0.26654292229639903
