# total energy = -340892.2829970233 ev
CRYSTAL
PRIMVEC
9.06464513532429 0.00000000000000 0.00000000000000

0.00000000000000 9.06464513532429 0.00000000000000

0.00000000000000 0.00000000000000 13.26702442392152

PRIMCOORD
 96 1
Ni 6.492588410586408 1.939725305275174 11.300811636908666 -0.7079357719585744 0.2234520046441958 1.092324179211248
Ni 4.600497816039037 0.4214543351078356 5.883354510577932 -0.5113541093426613 -0.03146027539181033 0.24684904341189748
Ni 2.857393730630042 1.9993253477176673 4.634463948211853 -0.8142578296562815 -0.9592531355544703 0.3420086567348819
Ni 3.4058410261343184 4.460566887493825 5.1842355883854605 1.138506591304581 -0.08498395834156332 -0.7337213655631105
Ni 4.953212226910499 4.537589178084527 2.6230101051652044 -0.05013959696886849 -0.5042537508524542 0.2944090525790478
Ni 7.2991061560279915 5.9646997304828275 2.7088876476893016 -0.41846837965551803 0.5511725268911798 -1.0926879903085698
Ni 5.03307175146082 4.657958602205268 11.554861916682741 0.7318264625332429 -0.9183458558171474 -0.28911258006679885
Ni 5.568447828531321 7.777121158029884 12.51515592980667 -0.26757804842913274 1.5275836622821757 -0.014580983137968438
Ni 1.8191836528949037 6.228897880601293 0.5119258398387547 1.3707311999350844 1.6468730787738284 -0.5266904825894155
Ni 2.4868038393484517 1.520349493320504 0.3370797107642656 -0.28278303830434526 0.29263139185333475 0.15899779082486812
Ni 0.47659910441565434 0.08718557083199842 4.830006475294662 0.7550692351112673 0.19504105760167054 -0.07466303603152948
Ni 8.433754994454489 2.57803042902773 1.2843478286806116 1.4224422551561307 -0.29645179404068944 0.013970346137163036
Ni 6.713720431177226 0.9520596893893654 4.7439956824855605 -0.3955768197693252 -1.0667283330200144 0.7983930947098831
Ni 0.9239502245050807 7.3550078232132154 2.798493478799953 -0.3970778297948839 0.41445643028264745 -0.8319930421525156
Ni 7.643363252892023 3.8149194010981633 3.9005984278915395 0.004329480613289318 -0.05812878582193215 -0.4531739014575034
Ni 7.5276077331976285 4.0048599774236395 12.720025070375272 0.38960723244945156 -0.30736227030560614 -0.8072857692138227
Ni 7.9698445804435485 8.765403169791902 6.926487597142046 0.5555153772409078 0.7339298820294908 0.3202512104531323
Ni 6.771725096057761 0.8495258612397045 0.3844714889996791 1.152823779258202 -0.9050576233486736 -0.2636085222584234
Ni 1.8290913101404769 6.559186359152949 9.459587299116588 0.19747383541287925 0.2841290108092784 -0.853366365621969
Ni 0.21514844826894836 5.015785472991188 1.6047132400897877 -0.8902658097514797 -1.0113611691036195 -0.5110514905005779
Ni 6.183067034275933 2.237598612454303 7.0493670215293 0.49101745466783825 -2.0033220793037563 -0.12399787771091546
Ni 3.4860359425584613 4.365868538688239 0.4178357287286655 -0.4322577201301266 0.09051491546212154 0.273309037375639
Ni 6.078805484743833 5.790368473257879 4.667551716261069 -0.5111677043634681 -0.4502772966359987 1.1463535981528257
Ni 5.374790747658101 2.838131359498438 9.3237599354708 -0.9006247843883005 0.23638439643514772 0.13976773895066252
P 0.32811115076539066 5.521202897548769 12.30730089509654 -0.3805394658202285 -0.7737966363174414 1.9918030229205632
P 3.956481965786288 6.256264044576029 12.714705030084854 -0.0714463288664447 0.05560807628260745 0.2770304520912842
P 2.451025684592479 8.383292114412304 1.3180420214962758 -0.6782305315846577 0.44019265870648705 1.198618211884497
P 6.4349735254511256 7.809001515333343 5.671294386941707 -0.8586396982057664 0.3216298359682139 0.6997786900690788
P 4.866173503331362 0.8839950812232522 12.525583897688929 -0.14598518061528407 1.2171517519123103 -1.0674906651073357
P 4.184611892501152 6.120638822519058 8.063445200710765 0.5552009313242825 2.5140318701941995 0.7547576174081195
P 4.617022664308644 1.0326443855587593 3.5702628131846454 0.3989706759422226 0.5611787461742722 0.15310765059267825
P 0.14052647573737517 5.519779748246341 3.722607773383849 0.9951398221487506 -0.12048909322670862 0.5168616694244518
Ni 1.3693596975844413 1.0431775033257826 2.6493184250406188 -0.15099728911789478 -0.6755414147882689 -0.7273049205138055
Ni 2.120601236362248 6.438717223934585 4.828029476168167 -1.2963828669304962 0.1187998784497438 -0.07728299015287982
Ni 6.116052112028426 5.597391240777538 9.29989272455809 -0.5012627865449303 0.8841589255227934 0.3127075937779195
Ni 8.607487985093702 2.3590014061322213 10.17360577868742 0.6119680609119977 0.15316061531780073 -0.1317104158638248
Ni 2.514904239587498 5.136136767821451 7.327072399517508 -1.8461585134741496 0.7330377092325246 -1.1347923756777876
Ni 0.7719170881020778 8.8947556573439 9.013351130391486 -0.71332943217032 0.17484632782135048 -0.4764776091804504
Ni 1.299435024215408 0.9215390288716657 11.317023754917548 -0.27885747799769395 1.413797434996939 0.28968876428524304
Ni 4.470184476091769 6.9502170254471345 1.7419864146511004 -0.8501177767776843 0.15561396195429975 -0.8318745142967802
Ni 5.81328389642056 8.009837795235379 7.8994911493547395 -1.013185623906868 -0.7088865659076179 0.1871346582704003
Ni 5.106975804089512 2.8496253296607312 4.713774155260729 0.20397229865302932 0.3128734299318225 -0.6397835404623691
Ni 0.8501186890382961 7.252967111764525 6.696849313459512 0.035286591116436006 -0.11450639328071248 1.918678020800115
Ni 5.272641260466548 4.475786426849102 7.345925048684338 -0.9145606777431023 -0.3804219664057577 -0.41412192976136425
Ni 8.0932144021382 7.043093380559802 9.211574073071288 0.6281611257320924 1.342219722758953 0.11040676929004212
Ni 4.673169076915307 0.07197328319291212 10.385838130583176 -0.19685419955100936 0.5402293976161147 0.3293187199720393
Ni 8.347559282882523 7.230278304732804 4.915326542136597 -0.6502055071266415 -0.9612837928312543 -0.8907746310670982
Ni 7.147237089703803 6.088241780437009 7.086833013228663 0.4281519254918691 -0.10333237894176397 -0.7536618132407794
Ni 2.4347365170990702 5.096125423739145 2.8142940619150116 -0.20321485166171455 -0.23781572956503563 -1.0987347107232819
Ni 2.524086725213999 5.075512420467018 11.450237781341105 -0.9174444270488006 -0.18695596660069091 0.2784859535908881
Ni 1.0315384988396743 3.213144797656368 3.459562646139708 -0.8350498267009682 0.8009693400774915 0.8227820650772089
Ni 3.5340241744505616 2.543793263962285 2.289636021374397 -0.821480572656966 0.2169928792824134 1.3938150783377414
Ni 1.2437509085159042 3.2527572973481846 8.181562060489762 -0.828180867495277 0.6903345139370434 1.54509570302401
Ni 3.6970971422894143 2.5570185813651136 6.936119689172372 0.07679448055223548 0.0531434167921988 0.9506977897852917
Ni 4.182853351324902 7.0867849706089 5.91225078666891 0.41366555895023593 -0.5529046790909381 0.2346818119217442
Ni 0.6719811872777433 7.437305737332668 11.59332320642928 0.4802728145568245 0.8977248371326861 -0.6612239697243323
P 0.06154803470422595 5.45562925389417 8.184109225801754 0.9479783339715996 0.6500167881546032 -1.1220181067312547
P 8.605212759138864 1.695523762552623 7.991577973867141 -0.9961230119976265 -0.8246551137302057 0.8142082073652688
P 2.0318674241235306 3.1247101187105177 10.324584696849197 -0.43988901142313913 -0.2862910514576037 0.323855639974939
P 4.051851098339515 6.133302131917106 3.7530024353327347 0.19993258136601696 1.1546711168795858 0.851393043945682
P 6.877618281732773 3.9412986850119647 10.41875367037286 0.7757015666496383 0.10137576943602541 1.0337809315597164
P 6.3171693959328525 7.722832997697093 10.39397093029107 -0.4785740866981629 -0.842351245458388 -1.7060089657040363
P 2.319978108380901 8.556553743499121 5.802080901370419 1.1310575912257037 0.09591886008651222 1.0741133126301758
P 6.679238520690344 4.034945534969896 1.5209314435448091 1.3938711283866576 0.0768818980597192 -0.21727595774047095
Ni 5.066366193421472 2.7316217779472134 0.6509040741694109 1.2431456048729106 0.19085298766225198 -1.8691881416001033
Ni 1.2971054103891386 1.2766011828598733 6.857525589097331 1.4295865795103961 -1.1666457727429587 -0.32413640444015146
Ni 6.876657429337502 0.745794593454051 9.066313133125897 0.8931634430142488 -0.06188259643740956 0.4145744439177505
Ni 2.9126971312295327 1.329466193890234 9.160004399845496 -0.9074340940006501 1.192615714444159 0.5822705338475649
Ni 6.464714626478322 2.0239086656042136 2.4843300976628915 -0.8875540672472715 0.037297193788561576 1.1090826296165093
Ni 4.192099289468072 6.678903128816524 10.476319606423857 -0.22446424795879408 0.9438882230626261 -0.3018289991922028
Ni 8.289781234132949 7.093202739437689 0.3989885183489799 -0.48687463614405835 -0.5284234061201222 0.4960071945729458
Ni 7.586038436404369 3.8015309200810434 8.2606465578722 0.8682119152752338 -0.08904115913007246 -0.12330188008515539
Ni 3.0064255629946097 8.549764324215557 12.432343143837677 1.1818780163116807 -0.9267423074109588 0.6023961009528465
Ni 9.385080447579544 4.867061838564726 10.30069029200077 -0.6553266304032908 -1.326783847819857 -0.6308929228409587
Ni 8.418580778325403 2.4293974410536516 5.875089367049557 0.32491442025675654 0.7444716621010792 0.2700843597907542
Ni 3.7047205089349102 2.616101939029018 11.736129440444115 -0.04535683086824446 -0.15952178164913816 -0.65909226809331
Ni 0.8821087285491407 3.1646580102761557 12.361192023967888 0.6305345110602754 1.1686856859911225 0.24371769687176736
Ni 3.2827159498611036 8.2737186827705 8.02766432656122 -0.3252509776605689 -0.46919881613085 -0.20889853231005312
Ni 5.569444939507545 8.119066770358122 3.6143224278304222 -0.1300127164464277 -0.494813945595793 0.17352375235518502
Ni 2.946100348933044 8.496500468794707 3.7193571916013575 0.956212548955934 0.24699996716746495 -0.5616196903664327
Ni 3.5953283701978744 4.449671183917266 9.319195886593265 0.006208185693240921 -0.6145293938812707 0.7357988169174295
Ni 7.3786484179949685 6.212953169626944 11.525555012162464 0.19319114887712535 -0.7175092745796224 -0.4318010922086821
Ni 0.5096986565036794 8.98161308801827 0.34885649785799755 0.2756595398856866 0.6148042448092121 0.2834522964572279
Ni 4.5650187945759315 0.4560713088087691 1.2874017076614293 -0.8377592552123314 -1.9315942146411507 1.7730234840513723
Ni 6.084017655755914 5.794139365677055 0.2398541388662131 -0.1403179550271777 -0.9937758519216885 1.7372139305519307
Ni 7.74203191631203 -0.11112711183566586 11.313256488356469 1.3965895557590853 -0.7363603458478544 0.304120880550173
Ni 0.03413292164520285 5.024741342486729 5.877331960281538 0.5328793850089468 -1.1878116081872963 0.3131079145401317
Ni 8.011152168794947 9.098365718688886 2.648150898733912 0.29397659302731954 -1.771807352256084 -1.1482428447557385
P 8.476494796753553 1.6257894467335963 3.8149329980660216 0.9874920757955059 2.606516250677866 -0.960927695043416
P 1.6906832419953166 3.361795914920923 1.3478366039303795 -0.04112299529255498 -0.48007895337846357 -0.08760236980101688
P 4.85399062013095 0.9865869231024387 8.310822088660327 -0.6081821115070041 -0.5239404306481041 -1.5642033703877385
P 8.540364287103335 1.5508973477739187 12.442943339979465 -0.816819676846187 0.4163153378682572 0.5676039329743258
P 6.57744255466309 7.814358720669239 1.608971810422789 -0.7822144280674916 0.007691197996670624 -1.210642747149199
P 1.8279854234213921 3.349522385268126 6.100682099562192 -1.0160536894832826 -0.22941027911015976 -1.2142913996453797
P 6.6054613730949905 3.8803480104289494 5.825763193520268 1.6384313757643785 1.420114635464219 -0.3603313663034698
P 2.435062844327653 8.515182702631053 10.400962491163448 0.21339796284230342 -1.6868915281482946 -2.311940590613967
