# total energy = -381173.1336302651 ev
CRYSTAL
PRIMVEC
9.24505739502613 0.00000000000000 0.00000000000000
0.00000000000000 9.24505739502613 0.00000000000000
0.00000000000000 0.00000000000000 13.53107600234304
PRIMCOORD
 96 1
Ni 9.11649533090755 3.722522239248921 11.849920344770583 -0.3466412704108869 -1.9063650077607168 -0.2531395044062995
Ni 5.651105864638216 3.4011363194599973 4.9335794178969685 1.2522210848116175 -0.8667875241238815 -0.10457216488613602
Ni 3.9755224717071003 2.7261177207352465 11.895926522391779 0.8749957709662866 -1.609532176231525 0.13396295934342736
Ni 1.8790393644178933 1.6757128237304437 11.952987014781307 -0.2233620160335508 0.8343797972171372 -0.7539392352718822
Ni 7.347518371204071 4.078392222001706 9.093275445508079 -0.6248150920779949 -0.7322514658858034 0.38065130880774445
Ni 3.5460710795362553 6.869687595255777 10.454041531716173 -0.9869590861101711 -0.32630075908132194 -0.8947122755586074
Ni 1.0546668683255374 1.2280579141398018 1.942723940215897 0.24603580348198273 -0.46811843858247765 -0.5110568898172166
Ni 8.843812371894396 1.2183321140759997 7.324831001093263 1.0316050069543201 1.113948956569875 -0.30703342621127766
Ni 3.401487631629602 6.38615261907995 12.940525523541003 -0.32763387607044864 1.3128021888287844 -0.5216102398530307
Ni 8.327901205772338 4.515091738934928 4.705959640681333 0.7848189555698742 1.4083189283808712 -0.6170056233359051
Ni 5.203598875961092 8.65957687410785 9.134504702128355 1.223544028591899 -1.4741599952453968 -0.43887214012285064
Ni 7.216229315399839 8.860601395578678 12.739670186615012 -0.0018257403548291137 -1.3785728074666903 -0.8561750387153578
Ni 3.917028995467865 4.498395165821595 0.5829230379685052 2.1615786210872256 0.13360326201116346 1.3796655263102366
Ni 0.2877681186748526 3.2747009186305713 2.9995957546585608 -1.3087316183038364 -0.13719997822348629 0.7677959386493164
Ni 2.598138395370978 6.77435256649349 2.10327082820826 0.641262953221373 -0.9904429308937134 -0.9095884213394915
Ni 8.01913478891791 6.895878842005541 3.619630300817288 1.0848240141794607 -0.41856890978912437 0.9305310850294297
Ni 7.411771518013409 7.383056370676747 1.4180835911848635 0.16423229975093007 0.09921398589801622 -0.6528285465717854
Ni 2.0202391214278244 8.68431664689372 11.120365154243201 1.5273993141855113 0.06322085563285886 0.3860359701584255
Ni 5.283938422115502 8.007948269833118 11.52026287239888 -0.7589739694823122 -0.20138679731404024 0.7441741854653183
Ni 4.142432732497862 1.807686013759696 7.446936017179452 -0.6961418646474399 0.3226109689345605 0.12139309309821675
Ni 5.482457533113619 7.51419750556746 5.825628505440892 0.632944920273981 0.09733656636964526 -0.8679558334003697
Ni 0.3879170486664378 7.871472736998665 7.852258734838399 0.38978052480252223 1.5841744141930265 -0.09715633203803911
Ni 3.3969483085960213 2.9215304925494885 4.969923586348316 -1.7458998883617027 -0.36012027873392816 -0.33807718289095967
Ni 5.383979184939077 3.3955707950888856 2.418991377009448 -0.09444227554098573 -0.06729271170938733 -0.7023868171158871
P 7.648657615955232 1.9750585274052004 12.97915691911762 0.018250975790387924 0.73345242817244 -0.7673243983295366
Ni -0.009100834204188843 6.700170228364263 5.8530151380730215 -0.061131834314314064 -0.019648370358546805 -0.3646757593150945
P 1.2943079932816317 4.403411449228913 5.86626238038426 -0.23226728894298063 0.17554181122647833 -0.11401042748090043
Ni 1.1828310948317036 7.916209568280736 3.642214126288634 -0.4113945035278721 0.925425131261432 0.23390019656071329
P 4.384061544729352 0.42217460773147414 12.666277376361686 -1.891099596961214 -0.0635826098476518 -1.1606756712024526
P 2.9767604636342346 1.6835341420327028 3.019513305663746 0.9451105255055012 1.6305211197783662 -0.8023636493218569
P 5.1444027753826465 6.321492689758437 2.033693453017987 -0.19986958933856544 -0.4244240830183207 -0.48723047682158016
Ni 8.102395773114297 8.972290930341789 9.282426540151965 -1.5982853996731121 -0.27177460300898354 -0.06996794454870531
Ni 5.851002489143469 1.0773449933792505 2.943428334784395 0.8538101380276069 1.4581528211838628 -1.0178786585071633
Ni 6.309132048422597 1.0866362757595938 7.76411728500163 0.6616268615897056 -0.06267603887298238 0.4197958402176899
Ni 8.731623604048163 1.1587384760424755 11.377605169885086 0.6040783737512758 0.015420191209812154 -0.9483935671321472
Ni 4.578300194292546 0.830512138509058 5.107737803450107 -0.8374846613947061 -0.7586929479067837 0.4180567460393962
Ni 6.103725369888802 5.610982316846486 4.02107009449639 -1.0619082859235518 0.4382522471506646 -1.3046286518790564
Ni 9.246536304003975 7.849108943886177 11.1962208477066 -2.5401097982281735 0.12174430579004838 0.22886597657091554
Ni 2.819548267735991 8.641558257829951 8.699696723876743 -0.32898550500233664 -0.5007151415715764 -0.5954029574644649
Ni 1.436469236229429 1.1301065342196668 4.357980314159018 1.4030147425591386 0.9432145940343692 0.04947290991914706
Ni 6.746774561179496 3.778880107299241 0.08830138932451084 -1.2884031911591296 0.2163914982529886 1.6386594326147843
Ni 0.9047277588438268 0.8952857820328374 9.329257376866025 1.1787039894590734 0.807530538234777 0.24350763774349035
Ni 2.104110279392474 3.6994003514546536 1.863905205953593 0.751027718052042 0.534417418920028 0.04486420750254209
Ni 2.7774370326688635 4.475744775939167 10.64541144006283 0.0528636807682509 0.20616313565676106 -1.1380566482513563
Ni 3.8702305164536397 4.882971050853946 3.4919643828885354 -0.7736503405475643 -0.752463164946988 -1.1956889540528441
Ni 7.988163847650099 0.6345150790864206 0.9981444382589285 -0.16622850424535243 0.37852732048620613 2.739080272791237
Ni 9.080800165464263 3.4079221913676303 0.6910227170616776 0.740894229162466 -1.5740296124495408 0.29833024201032493
Ni 3.719563820978563 7.027750336406749 4.145014876944458 0.19799628357525254 0.9717296707549264 0.715421024592026
Ni 0.7646485027537938 9.326875850158386 13.238100798782092 -1.0281676991379969 -0.30939138492049295 -0.037148584025839246
Ni 6.481311991757434 3.4275494475800374 11.469670221952919 -0.12981859815775063 -0.0425584421875009 -0.9944983319100098
Ni 7.406668246497041 4.8127178619900395 2.067534984513754 -0.04467111765512952 0.10000794255422131 0.5709512521800038
Ni 9.104902029310585 5.795347245432359 9.225690549266465 -1.0079436587816384 0.378974949546586 0.7094689207736491
Ni 5.410466273515876 5.5072897564704375 9.720914051127334 -0.27844378749904297 0.13175438172788276 0.21533683173622917
Ni 7.289930910560132 3.0497686795124133 6.860417576506752 -1.2936173883702171 0.16131923986919314 -0.3488395636137863
Ni 6.924020795802321 5.559043586087513 6.111702929655965 0.18382230606771569 0.6092547757458927 0.9511773005248714
Ni 6.902248686343905 6.769277030148407 8.17429828016393 0.41038277443390614 0.17395132681090686 0.5532908587857633
P 4.430360790660455 8.862737003767592 7.054195822226621 -0.6485281194242186 0.5304193535042284 0.06293392052005936
Ni 5.9052062588906855 8.067162860525753 3.232113563123058 0.8180892875872298 -1.5408844931561398 1.3065616072357111
P 5.595422885755822 4.528876119063377 7.401173909065561 0.06736753081138075 -0.5472271690901865 2.3188442597123355
Ni 5.0585994004851695 3.0694698961815785 9.656735789280466 0.9122690534954482 -1.2072283221510112 -0.13538992159794103
P 4.4358246194035225 4.708442863017014 11.936479040832712 1.8947937579833496 2.219074144200533 0.163510333983241
P 1.4242195355787277 7.088388665891993 9.527446439325855 1.7790547778471166 1.1164406126434772 2.410793593628138
P 0.10326821225539395 9.196714691319727 5.317252985356861 -1.1614048360589933 -1.954348734728847 1.902420164180356
Ni 1.4979673560244964 5.686227836541623 4.156786608143355 0.37967069006202997 -1.2072077533257208 -0.1148429506845248
Ni 8.863670754534175 4.590540649886152 7.390294325876319 0.9164118720192281 0.5445948736736621 -1.8068951970981526
Ni 5.160997652867936 8.604365393137295 0.9072951111990719 1.1265998125646661 -2.2519104740042635 -0.3466261009022353
Ni 5.602347433519879 1.5068056306071906 0.38597281315938686 1.4233141162381229 2.2471297647861683 0.5397509153177994
Ni 3.9850356354577205 9.0632530470982 2.8098086000865465 -3.1958580895499153 0.2540450469397044 0.31233092716479116
Ni 6.279372209634214 0.9739482748302379 11.035566717051935 -0.3278310796829193 0.9059760213978849 -0.7839920887932046
Ni 2.3866392242116645 7.85876078349322 6.024142993910462 -0.0954527190833711 -0.44008158704991945 -0.22510445264595424
Ni 6.8510033348670465 1.139111219830069 5.074288262375163 -1.2206898469725556 0.30119985024863616 2.2376981870596233
Ni 3.978434664691984 6.647380952352562 7.534603195587255 1.199853626953495 0.3502289877621452 1.2094309862292847
Ni 2.0686832206049366 0.7995920450552694 6.828700559131385 -0.8171225527985863 0.34777512690501394 -0.2950096622775242
Ni 8.77483500090958 2.335467833191566 5.036212494729945 1.13091438077962 -0.7721876399591089 1.1556658766926873
Ni 0.9751131520241915 6.903284132738531 0.11960792616486504 0.566578834143921 0.9930477155064121 -0.4871317464601868
Ni 3.897161367770993 0.9603210606724013 10.132083342893079 -0.6804092844035315 0.3117380307757986 1.3062011385724988
Ni 7.728035676171776 8.654390397077629 6.791503996415891 -1.354295165866248 -1.6850740153235817 -1.7774691785275516
Ni 7.997085327746648 0.09742810968856533 3.5770614354239645 2.0651717656207014 -0.7714823863619682 -1.8013045903842526
Ni 2.7818746600744 8.637536657993683 0.6114283225091143 0.3727006865021001 0.5914136337994138 -0.736041529055855
Ni 8.470062448720135 5.326363989123854 13.293348335475319 -0.1213398712627781 2.3884429938470797 0.4753913180948071
Ni 0.7193523455174842 3.5806845732994437 9.674272738083722 -1.4218167057569902 -0.21454698884508208 0.9194745701049519
Ni 3.2155602883946957 2.1471922454545624 0.5320225271212862 -0.2140384246397798 -1.2519074102259407 0.8085618077127688
Ni 2.102187307516741 4.178876747565835 12.769356989452344 -1.2943799775678546 -0.6555132924928001 1.5702428917135989
Ni 1.479736103433415 3.1184871888985732 7.639090830873461 0.28768407515038846 -1.0280509710544745 -2.3704954082297243
Ni 0.8898737256095012 5.78361526797897 11.46979225670657 1.0462615805252304 -0.18314224928155556 -0.15908186589824216
Ni 0.32108175741050277 5.6808934385978835 1.9282998021364826 0.4472847896665781 -0.17211298805058747 0.8136001414676246
Ni 7.693986130891374 5.4630798934427744 11.064590649295566 -0.739942406772158 0.9835618875031642 0.1749625416842406
Ni 3.5022217737352923 4.080000861936213 8.434825838108752 0.6681415227797719 3.12781281594522 -2.786122204671389
P 0.0984728011402855 8.273697436025122 1.7803372858616549 0.9249854726208522 -0.20822721727464139 -0.3500973472802874
Ni 1.778933886194654 6.028683241449752 7.7309802268564916 0.24155102823775174 -1.8624983882847537 -1.2969004299968632
P 7.947670497574573 1.9289349375589 9.198181881880684 -0.04414352728643365 0.671868593922372 0.6298215441536508
Ni 4.357611436380933 5.089043373498573 5.813017323057782 -1.11190312978444 0.7933776437731627 -0.21505683860196512
P 7.323305566672609 2.8936381552942696 3.4512362083628 -0.5092527467289423 -0.12126659482268148 -0.18784993916987
P 7.01567629184085 7.46214783412335 10.421268728820575 0.15028637909379924 -0.5718359687778023 -0.24247174027980825
P 2.6145483717143696 2.5305847631787715 9.410686915251919 -0.1260179934647378 -1.697409139850167 1.1147472841014543
Ni 6.216755437930668 6.327104439415023 13.225679140069428 -1.0624772710531443 -0.6983049337370296 -0.01655687591741665
