# total energy = -340859.7331034596 ev
CRYSTAL
PRIMVEC
9.30422738270631 0.00000000000000 0.00000000000000

0.00000000000000 9.30422738270631 0.00000000000000

0.00000000000000 0.00000000000000 13.61767726030831

PRIMCOORD
 96 1
Ni 1.4596844386563572 5.974951646302904 1.1647608938739609 -1.1551382863239912 2.9505673917640736 0.8649008486241299
Ni 7.066328236458383 1.8323466656616803 5.9920500253149065 -0.2615177011676657 0.5453551488784543 1.5853720340455535
Ni 4.304563670014846 7.303223174709763 1.6390103992188567 -1.6465799730134416 0.23417710437118378 0.2392180092292009
Ni 0.6213874906165329 4.712861088627049 12.399998092746888 -1.5880261838389491 -0.11830905485625429 0.7345451470159865
Ni 0.15698557973553318 0.9033818807626576 9.802630853724011 0.4912408835325539 0.612960506732254 0.3932245174870647
Ni 1.3218795240637966 7.638305626545323 9.02842514690216 0.31262506136644225 -0.01799977901153029 -0.7546416606555455
Ni 0.9550324392919723 7.810061667553944 11.235360014676898 -1.6984591783812362 2.210532425278109 2.2370939778167216
Ni 6.821413054038562 0.2819543819675581 4.246141494657467 0.46390645738365915 0.3484346148658838 -0.2703774655511408
Ni 3.7320094178183423 7.143116026623288 4.173913706426382 -0.29450649738886053 -0.7913822106096886 -0.1749509717200148
Ni 2.662088376447581 3.188205228824257 4.793476638015733 0.4915550723388631 -0.23852843936134407 1.412491314591006
Ni 8.741954492870377 6.275133940509899 2.801210769664564 1.7349667863889668 -0.3358318385002087 1.600910496000785
Ni 1.567604174282521 4.455422415893165 6.806551411335254 0.2059931857378001 0.2994358163696779 1.6380140857213015
Ni 1.1279235960645715 0.7263149866550277 12.318033430360034 0.6919039153066922 0.3642245307102888 0.40335903481790536
Ni 8.248746693421518 7.816314108483401 9.837859450585926 -0.08956592128529092 0.5447517109665005 0.12130259026693947
Ni 5.930449525818386 6.785201000322118 10.371346181623649 -0.5619364502759032 1.0801327793513784 0.11735440425246886
Ni 2.8178318418020387 7.09070531270121 6.538867853620079 -2.0953539456310364 -0.08493022228549243 -0.5595512378731783
Ni 6.059350294623013 8.611806957570888 11.853126299921787 -2.468637244109484 1.29180347508993 -0.45349528935266414
Ni 7.90283412069029 3.0035349199434824 8.963304858114547 -0.8929209879861396 -1.2697727205421359 -0.6121855762394426
Ni 1.3688658733104668 3.7529718425416587 9.241623147946344 0.9145102841211412 -0.8343003501294534 -1.311142284627858
Ni 2.732093384711333 1.9922212080588158 7.918257738739044 -1.402112028239211 -1.4218943530724608 1.0995986013854742
Ni 6.697331875117058 2.9762456204701198 1.1663584297483476 1.5502111698737044 2.6954666498663453 -0.6929709231186258
Ni 8.964995436264669 0.7765875890806927 5.457297919327174 1.0352968539836105 -0.6741597039493937 -0.8507484683831478
Ni 9.273570143743049 5.715317175861651 8.515487732883486 -0.009575559503577056 0.16177689623190203 -1.8684402076904854
Ni 1.4966501348062624 8.60038136611051 5.279287576543581 0.2958964357578517 -0.468465023288619 -0.10391807624190491
P 5.505246325704954 8.220834010700724 8.982083580626341 0.39552514059578336 0.8438895364797853 -1.4232248989584264
P 2.3200184497042486 0.16964025965838392 10.297933034799687 -0.8569029180203177 -1.2778673246248122 -0.48319538752025815
P 8.45435151434289 3.4440342701879088 -0.15123835836332167 0.3811025374125501 -1.174986174287854 0.15979843234929253
P 7.883890713350445 7.52666419988972 12.059352643245072 4.730906178529936 1.9374725277987987 -1.8453427024410733
P 3.6018339698361324 5.178314377223866 5.609556951455319 -0.8463565099630391 0.6388576862139901 -0.3088488821534617
P 7.923536027041545 2.4035518048600117 4.079583725594215 0.5452314788163964 -0.7428729501553916 -0.6149963062153602
P 0.3699519055131338 7.097702091836556 6.583071308399487 0.3487012382637091 0.22400736292703355 0.5989665064460071
P 9.239414324320371 3.365608935970051 10.562864401998592 -0.2761560199061308 0.36236253780088556 2.244602884599257
Ni 3.42590963487454 2.1161628235667154 2.6688199850970795 -0.5711726241621906 1.1385988939080713 -0.036904072115200956
Ni 4.50655845063766 2.887194858363212 0.699231310611041 -0.46052057163056176 -1.345309160317554 -2.518139978825302
Ni 6.8945442827670425 5.060774070286602 2.394055910198398 -2.712780972775076 -0.3229822362310502 2.7739148639719198
Ni 5.732334608093762 1.6209825278722534 2.4971551255186806 0.22348234366149897 -2.976423690705545 1.3126967735991715
Ni 6.701649036711207 5.483846602285678 8.144201601136299 0.5506482789565936 0.18806488339415356 -0.823981998922581
Ni 6.515266749956891 7.363216834104323 3.457024832726167 -0.3125636120008875 -0.807758852195499 -0.502523912645541
Ni 3.613054868289891 9.102009491513474 7.623720319400951 -0.23298334117339872 -0.3262945884337348 -0.26196610155899397
Ni 8.067379385329371 0.4043142787879461 11.979348381607975 1.0375365419474067 0.09067895184381158 0.5919695063028838
Ni 8.673801025893772 5.727989533816891 10.671615935569834 0.40774585103169136 0.21446317088202418 1.767052868290234
Ni 7.408239991332964 2.6051837206074557 11.297525280787136 0.5739342460677277 -0.35388149691306797 -0.40765123443535595
Ni 0.007876959063808113 3.8247725667271153 5.129002901506554 -1.4171465539748302 0.01445139953863963 -0.5992243880930842
Ni 5.868101896847705 3.679952264544061 6.536322216955943 2.7847844596965716 2.078053763789692 0.8232232663796853
Ni 6.47916634697133 6.4311286200088436 12.720872058654807 -3.7487334580648155 -2.601656608592719 0.10111583090641942
Ni 6.960548473174147 0.5154728160324794 9.720748068539805 0.2760274647480666 0.5220175025937783 -1.0627251253978922
Ni 5.961953640382588 -0.06969424706279359 0.7575827738388612 0.7590313050828088 -0.12858909662602372 -1.2977164981402554
Ni 0.5792877216915164 2.2808104347091063 7.0971522119869555 -0.6879207622892282 1.103815724790615 -0.06630180855102775
Ni 2.647806387122108 0.14256030530542677 3.317538644211057 0.41808759927733163 -1.5074102726580942 1.1136638212292884
Ni 4.982981423543747 6.484172021405927 6.747954316499491 1.755415541161622 0.05278346234961877 -0.1333618354243187
Ni 3.4217785578318622 7.609629997163495 11.559747256916609 -0.10751119290980195 -1.3202092799261327 -0.048314370834671626
Ni 0.8708952397666825 1.934339608323462 3.443393208908088 -0.6331122990897806 0.2952996827141173 2.1345812665627752
Ni 4.584853525669487 0.8572691984851482 9.626350166846352 -0.673236420804176 0.15220647893464753 0.08070024336454489
Ni 1.4586795820784086 1.3084163067648 1.4539595474303226 -0.36832518314222373 1.6737678462821433 -2.387294224954618
Ni 2.609454361063737 3.8304667540021566 12.12809413740433 1.076348629718598 1.5517972834139018 -0.0718106541843989
Ni 7.811289825593659 5.352498821629195 0.5102624485912646 2.2544293837713756 0.5061499394339025 -1.052392890233949
P 5.8306337724088255 1.5708048285678389 12.3132947872568 -0.010590888141968857 -1.773864749005745 0.969577400298614
P 6.266229794721966 6.995020636334328 1.155162652709037 1.333356358831052 -0.7630026310257312 0.4730251318554757
P 2.7105075767405857 2.1339804193701557 13.251239082187102 -1.4137938354525137 -1.5027784303130376 0.8602718344925508
P 1.5549504247824277 4.193499105468806 3.3197856151700806 -0.6563473583583213 -0.1397775091426754 -1.4107020839010673
P 5.017193068331868 2.9088737086096956 8.883791859693336 0.1776871397042553 0.09738104645433551 0.03702105730903947
P 7.600781676741002 5.6259965911551095 4.711511975628877 0.7997768624312871 -0.15496193019259766 -1.1187389217593506
P 8.322575739218019 0.8293127858947581 7.679852724352468 -1.238505534997738 -0.09014313394499959 0.6980082284322172
P 5.1374129928103285 3.6570731689405833 2.661670616629527 1.47994163492418 0.8296975612501195 1.5904903291087256
Ni 3.69854211123611 0.5082015621837126 11.954645657400073 0.9481732235912251 1.5127597098954657 1.3723111428276946
Ni 1.4836614331135194 5.720155374199922 4.9155732251957875 0.07137202398508354 1.6091097439821254 -1.3481510006417234
Ni 4.4663921002024365 5.052911997986912 13.289382693547825 -0.2417441180851643 0.06046463304396038 0.7080537855936773
Ni 8.834280343083192 7.711325204542922 1.0527156637416637 0.11049392968720971 0.4032207094678281 -2.0261002535405366
Ni 0.1443485778450723 8.658467658852482 3.2827994497195134 0.3464098711263711 0.7004654317234581 0.14235966804755484
Ni 1.96050309626042 8.562978371264645 1.0751100090885568 0.7569268571452965 -2.205513117686647 -0.9631285593494768
Ni 6.234167426503347 3.9393355208408276 12.713314234596773 1.4508676003763594 0.24905633547586137 -0.24189452762009955
Ni 3.406621971114471 4.4789993285646625 1.9973050380050297 0.4784709854613954 2.7156603512054005 1.415210513294382
Ni 3.591301584222819 7.0697335837503195 8.653570843880498 2.272239158259287 0.27754647249575426 2.4945534497546134
Ni 4.858732768525919 1.6053421213210348 6.930050145610649 0.8728131614926711 -0.5432332174394451 -0.1409872131800604
Ni 7.63842658150378 7.8128994569638905 7.534524411343896 -0.43286295781429324 0.266067011101245 -0.6496272660256683
Ni 6.7460953318302845 4.8349697713029505 10.268314887164655 -1.0762272736493852 -3.6152677500727806 1.1979327557816983
Ni 4.158226778737295 5.358760566786227 10.944976932950416 0.037189721676419825 0.1984580537030195 -0.6070356566073868
Ni 9.037614932476604 3.7768092735852172 2.1807620756102066 -1.4164649545267733 -0.5008637513342987 0.6715266372019209
Ni 5.218341164245485 2.602345931197508 4.603701099465325 -0.3692476949564931 -0.5025943608721601 -0.13175232484535374
Ni 0.9909932788639289 9.359773812212437 7.635976778383652 0.633018968045026 -0.8242848748749803 -1.040188634858273
Ni 3.8334161941429876 3.6452381914669667 7.107896733988947 -1.4248755471879717 2.244683103017889 0.5943850577229118
Ni 4.71849945053665 3.0211757354230246 11.181679273691024 1.2698256852672583 0.2439457537221734 -0.7708498949842918
Ni 1.7466640339364157 5.9159163223484255 10.655751297134094 1.6176424640434852 -2.274699446874321 -0.007157694090703801
Ni 1.6599114160401875 3.904165540612627 0.9733478112706001 -1.1196426645205428 -4.119586292724899 -2.380793961942255
Ni 8.121074082656605 1.325526781272647 0.9568514157826108 1.7990831572529016 -0.6385180434863842 -0.8501874536733551
Ni 2.7599037209288175 2.273543832974126 10.515733837224529 -1.9212457815272912 -0.8435756047837923 -1.4220661027636348
Ni 4.62923469119555 -0.29144097240159866 5.330476645385245 -1.2771756978744262 1.0333513002214656 -0.3792811679330952
Ni 5.494909328870687 5.212488805101691 4.6031837844122325 -0.016431148972829768 -0.379292737897321 -0.8910800781226589
P 7.643004261469991 9.004994310603568 2.2398495032390984 -1.2571920556636478 0.18961808681388634 0.7251621631391898
P 6.311057563171561 7.863672626833016 5.597124642571478 1.4411341751386793 -0.4545273301616043 0.9516120740694451
P 2.7628159441593536 1.0664412602582354 5.556216745198639 -0.04238720671695926 0.12563824152781589 0.6992223033449765
P 8.375144625008849 4.079140844361712 7.256342893657432 0.2678878663600677 0.8548578625658311 -1.4433779768675337
P 2.9881364233091774 6.3770245366683715 13.463375470865136 -0.7995017543930295 2.2172111228498657 -1.128906863431288
P 2.40127226910448 5.461488543426323 8.653748554627153 -0.3884360949594859 -0.4004416040607942 -0.7246422860799778
P 1.8902654823073282 7.33921192696444 2.9625395628314526 -0.19046346553331714 -0.38559836840037465 0.6093481067906473
P 4.016095398323012 0.25663106578049627 1.4565061145172162 -1.5084667389470667 0.49679035259587345 0.9152471622871657
