# total energy = -340854.15513657656 ev
CRYSTAL
PRIMVEC
9.40008108745218 0.00000000000000 0.00000000000000

0.00000000000000 9.40008108745218 0.00000000000000

0.00000000000000 0.00000000000000 13.75796884623939

PRIMCOORD
 96 1
Ni 5.055777243667412 8.39659428305268 3.0449278651412626 1.9201507486908995 0.8037505023670545 0.8496868598878526
Ni 6.662373312503225 4.367569102755509 11.861694495304333 -0.1708037823208607 -1.1728007366007607 -2.8443502350753462
Ni 4.229566511457137 2.7415148659483304 11.300795413379578 1.6429405764886413 1.5273185815462471 -1.8165239784371683
Ni 7.900128997348471 8.24624938521015 3.3614849978000705 0.29083701895707337 -1.2304618387576551 1.238793755662118
Ni 0.9902045478761969 5.932137408789399 9.014867700257641 -2.7193275156443426 -1.7885403487400489 -0.9966374897401996
Ni 7.769862672832918 0.9552080457711744 0.10667494086447167 0.3782843512374647 -1.4348786811472707 -0.979856927847751
Ni 0.8501771790990659 3.7725251660775228 10.51904048493113 -0.08540150549495615 1.5436898238154189 1.1414708161392277
Ni 1.416864830993272 0.7254569024594097 7.137208071483322 -0.049291390035960274 0.28273752977839045 -0.5352036622667492
Ni 8.223115785510862 6.489176817395773 7.741637049177062 -1.5928320898680246 1.2901883080840102 3.3700336165564866
Ni 9.180420049377501 3.929468920884253 7.467784485162659 -0.9336241221324567 0.010911761816497337 -0.41302972513845
Ni 9.253270678255804 0.49345631972950604 11.157864359536577 -0.35099800471768583 1.579631017796718 -0.03735992870569695
Ni 6.727891878087971 7.338615150116796 9.90953452341066 -0.2792490570091578 -0.009491998650835266 0.2656839167302134
Ni 7.200527958088115 8.409011790246002 1.2319201144700656 1.0597840404916974 -1.0681493817372574 0.5169346887542323
Ni 4.089730904335376 6.161696790445793 7.4397863434705265 -2.623947558780436 0.7142727699201957 1.1316785126391542
Ni 2.702072125461444 1.727358911313176 9.04333302598271 -5.325305377320236 1.220132431807189 -1.9423164861546611
Ni 8.69623126964943 8.757557399043243 6.350596121106948 -0.3829617021084759 -0.19598773778565604 0.1369212706408029
Ni 1.4223262781388586 5.059584276531376 3.391986381101273 1.4716701389440074 -1.3312647664093458 0.43526565371851483
Ni 2.5889797491988804 1.1946845130361639 11.24045347248171 -2.5877402556219433 -0.13572339367795982 3.0574715472174954
Ni 7.00009002782075 1.7007378815088718 8.33486677019395 1.369078751933326 -1.3141684730486916 0.34084034745839364
Ni 3.9606677902064584 3.0858210381489126 4.057638087296225 2.258498925855059 3.4893605711542937 1.9183887716944703
Ni 5.482193124674703 4.9410868536100985 6.383078101505526 0.08911417845985298 0.6740728006625424 -2.3366836018866013
Ni 7.154514560880464 4.853901100984774 0.6104901500164153 -0.3407418742073164 -0.5056786562244387 1.1001030518257182
Ni 3.114237483452024 8.851689811635158 1.619189357546556 -0.709114622758024 -2.2972979010001273 0.6125123634512419
Ni 3.381086987012964 2.8471247776190065 13.44474148085422 -0.4695353735346623 -0.19918027658102472 0.4021650145098042
P 8.205199230847372 5.26777727374385 9.734368711303206 1.104347686034685 0.7837038681288245 0.8018334878499997
P 2.92093421477416 4.063608078831788 9.677259458311303 -0.5808546273366448 0.17461595697809926 -0.25444742458444564
P 0.32809103222444375 2.5184697405258274 3.8944959189820945 -0.14278955649612182 -0.5482880062545331 1.5236341907161242
P 6.159158768536485 3.234229519275449 9.646001368477881 -1.2794714358871384 -1.5705398541287272 0.6904710395149076
P 8.694858857802174 1.8932703435327969 6.577891023215371 0.648388765632877 -0.1418243643693751 1.574722010530875
P 1.1295983511841152 6.462273785157102 13.009081560048358 0.6763999061338223 0.16338075038391217 -0.4722352889643286
P 7.314785944412732 8.73990404665183 8.179084865416815 -0.3496175794303914 -0.23473271976433766 0.5031029250774626
P 6.973290396474679 8.456999204494226 12.237438298888218 -0.4601364488182656 -0.8611899754314457 -0.393905088493857
Ni 1.456185370425265 7.521935532618046 7.5226508787932245 0.33025280175053445 1.2528188662966164 -0.8275509472207617
Ni 6.861373030355314 0.5190931610378671 10.32777703386186 0.6788941333105856 -1.2090404356590854 0.10829743625652316
Ni 1.9157647377141882 0.8958098730203209 0.5769939008622285 -1.7627010190794419 1.427109321614497 -1.4284552941194302
Ni 5.400891822846516 0.5748018019390774 5.253356609258404 -1.685198199606272 3.0911838518682764 -0.7887560858407513
Ni 4.315464452965516 7.91186969869931 11.366999244879839 0.3140286265821882 0.4533942449984256 -0.24039454603580535
Ni 7.9143419200405996 2.6562843302012875 10.623394545760757 0.7634327765846143 -0.1540198779943025 0.504795225178221
Ni 1.156952587317775 7.123635294317208 2.160634031532401 -1.326286596468464 0.9479824477366577 -1.3635709347412195
Ni 4.605024552574196 5.360593674975381 10.72280980395649 0.6007806768366104 -0.264379338986177 -0.12710377032974882
Ni 8.826948798059972 4.579700733967984 4.4935724904715375 -0.9384212864107839 -1.2513510235018384 -1.1473923238299852
Ni 5.370595361314287 3.773859977600196 2.1692322857562703 -1.1182869218235967 0.29192510981492953 -1.5979128468250416
Ni 2.5486158007597273 4.717825526321247 11.98330146506857 -0.3123977758469846 -0.5124699681146594 0.7609940852361345
Ni 2.735545814420882 1.7411112300291705 3.2709434162057707 -3.7233744104747357 -2.120873944279012 -2.5277610468548337
Ni 3.4112330472468635 6.712879948498467 13.203563598901878 -0.28052972349379424 0.17368058964802346 -0.48332805644338056
Ni 6.280100212555614 3.66377562730422 4.201215866722045 1.3268815497399857 -0.31880522203522516 2.123811172530465
Ni 7.664929567004724 1.024872047141124 4.891976129664976 0.17892975386210475 0.9018835964960661 0.12328362525271026
Ni 6.098471844660571 7.2635085017635515 6.795611002668898 1.2409102877844886 0.03056835970516026 0.5549875297618958
Ni 0.9405909195897856 -0.1760268595403878 3.419212776131353 -2.3434011231160934 1.2765087537143887 -1.8199502305098978
Ni 6.173070888631954 6.21476964859378 12.75660854059148 -1.0242637360979006 3.585141363001045 0.6451628024964116
Ni 4.225552676807971 0.7501443355720664 9.92439323167749 4.388808047405042 -2.688995183209388 1.0143657602578982
Ni 2.56842177173348 6.358628490445853 10.331257883910071 0.9852657575681484 2.187777905190413 0.6612249981655968
Ni -0.09549730437425347 8.985067563009899 8.928330553231362 0.7034599955754078 0.3096178991090022 -0.7549535354690095
Ni 6.351352827639168 2.226616021117624 12.591692576965176 1.7505060196751465 4.175118264353932 1.2412715277786495
Ni 0.18972653780196716 5.017716315108929 0.6662326312097497 0.6618870572296278 0.6933146796112898 0.3676736656011539
Ni 5.201591302397767 9.31086497543482 8.068622631858785 0.2392151810157235 -0.7815832222413959 -0.2201278253669693
P 3.272356248401952 7.084089152937721 2.754207795519217 0.98920391628029 -1.0005175415208964 1.0842856251774875
P 4.7313710432520395 4.470979395438118 12.744763498339925 -0.8858568820505066 0.32819231967707996 1.0576960476144173
P 4.556031329643394 7.2137350720976645 9.29965819869305 0.04940554701632137 -0.08408278668353261 -0.4780768353467702
P 8.296088615444058 6.31217328942436 1.9082305726759996 -0.629370058438529 0.1991154847813603 0.7200253561332568
P 7.922247388284038 2.7276685464208796 1.009588455206513 0.21983034873120852 2.3459542285552497 1.3565993885193928
P 6.577086376269309 8.365019410484651 5.05476015488746 0.931821264595763 -1.7069988404211314 -0.7835927964722569
P 2.951287076793263 3.3462032858816886 1.7205165922473027 0.5569935044483312 0.2509080439726195 0.9775053968964391
P 3.912022370278043 1.1056375443440125 6.791552987638348 -1.3914213812945844 -0.0370555100914007 0.22716004962340233
Ni 6.314006305247749 3.0574327930892378 6.803425290125225 1.5514607260100894 -1.0667039075399822 -1.4598219813561697
Ni 2.111916230979164 4.336821437328291 7.346658799553075 1.1035614426879639 1.1802343100606707 1.6840111212767062
Ni 0.13147235492653173 5.92512494825479 6.224504372628151 3.8443913511804566 -0.061113322371552814 -0.3624383853441436
Ni 6.82731653636485 5.909107209982709 3.5425117605017964 1.4293698355138995 0.3210631648314664 -0.20624695361981898
Ni 3.011635597747935 9.042304657105383 3.977841738459447 1.342736000273739 -1.1445291433495774 1.9142840054974775
Ni 8.645085428136287 5.696007370412238 12.037287071095795 0.20729339260646237 -0.33680371549517474 0.2675790768703972
Ni 1.8346608375900582 2.980859732077281 5.602052619353976 -0.5619084252514452 -0.8260139417509452 -1.7378376801788586
Ni 6.144363040813329 5.106565882097023 8.913333663771692 0.09473075331568202 1.7850536757430289 -1.692440482990982
Ni 2.653793308697707 5.601574155223664 1.3313184525197377 0.5532597484375117 -2.0676374535523747 -0.6339484218378308
Ni 4.1352648974046025 8.145405314680287 5.929161343098706 -0.9544701123435304 -0.176216982916632 0.406667530365848
Ni 5.285684428326194 8.069847462432055 0.4024729343213638 -1.757824921934063 2.1158024432933753 -3.2385661699414032
Ni 9.065833060212789 7.4542361482075234 10.745799582414254 0.5436229966786961 0.6808553708020145 -0.8913706127798843
Ni 4.602853133829566 5.778117079218946 4.0877268070351365 -1.3127731353630616 -0.03261624337312447 0.2166997735220268
Ni 5.302679775037417 6.478629926350424 1.7565903436516097 -0.18189115048327384 -3.0290068641189 0.6007379965241331
Ni 4.459642897576539 1.0654051970408975 1.0847045036409035 2.0232206179998964 2.14489550400459 0.7175321573977579
Ni 8.526954608379688 3.557094106382946 12.830255356342814 1.4103233604054097 -2.1291811785931265 0.1970012666518349
Ni 5.458824522946772 0.5640152088245157 12.136536887863368 -3.45405855341889 -3.772811582059941 -0.2506414205747942
Ni 8.237845712665996 1.0298258899048487 2.706907527202735 0.4611936864381864 1.6622696158345567 -2.1344977057100336
Ni 0.4866224607366639 6.90090037157251 4.335837248832348 -0.9338431801217981 1.0176588291868731 -0.40787877706512976
Ni 4.3316043922924905 2.7990245623970345 8.204661546205843 1.9449238418705213 1.5772460625043094 -0.42795215077623716
Ni 0.19856637411127775 2.43467741719406 8.993900819262407 -0.06998748493273108 -3.3486045001484332 -1.3201866542183134
Ni 1.5105742399336348 8.679395724317683 12.12569577427816 2.4430334274984506 -1.6707748250920902 0.6302110662825857
Ni 8.918467988093411 8.273782222885577 13.102456326099938 -0.7842605119632429 -1.9821899253108313 -2.5138963730575994
Ni 0.7822127124002386 3.005412744029556 1.9623675200096675 -0.1912679637124835 -0.29726734796344934 -1.439736266349888
P 2.9650299954281114 5.029353615567166 5.3982146797362525 -0.02652864241814786 -0.6452790163593016 0.1999716621340685
P 1.2537922232796186 8.572385200556313 5.388487475766799 1.5975451790729778 0.03754401969204502 1.6265148268324503
P 3.682350187647901 9.252349470303537 13.234230423631244 -1.4607010415270132 -0.4950749125666635 -0.9391190838087569
P 1.9474994116616917 8.796332733768793 9.931753495214483 -0.40725888409294375 -0.05919965028860772 -0.11142338348001457
P 5.869015863896777 1.7798207641867003 3.0417214974625026 0.09907463210667454 -0.2520529562103401 0.5053354139524071
P -0.07752340921577543 8.916860574217516 1.1334946848189613 2.1095680323478896 1.9480276776068257 3.9077687869958377
P 1.0456556265540182 2.566212752664267 12.396562872520725 0.8975638860747897 -0.3295583467866711 -0.21298041568891063
P 7.682338517286352 4.976111555958558 6.2660395711780446 -2.5248474727524646 -0.7576043428282951 -0.422707100327214
