# total energy = -340873.14247505384 ev
CRYSTAL
PRIMVEC
9.20861876222104 0.00000000000000 0.00000000000000

0.00000000000000 9.20861876222104 0.00000000000000

0.00000000000000 0.00000000000000 13.47774437996091

PRIMCOORD
 96 1
Ni 0.9203111727626856 7.107930016246877 4.16211598556802 0.5017489821527295 0.2899893262447974 1.9934161330439542
Ni 1.9754788797392353 2.6578098833613684 0.49158091781123725 0.691291478533674 -0.34532306582009564 -0.7972456113690012
Ni 0.3661365125472926 0.641292795359423 7.734338000692838 -0.8090258918333808 -0.16456782871347786 -1.6048761655167523
Ni 0.602049346838753 6.731536944434914 13.242800051345464 1.6422142398455781 -0.4098389861152942 -0.7227157584812263
Ni 3.3237035029940616 2.0696093778569113 4.769059713129679 0.0112064102387807 0.8063457738980564 -1.6160213835002941
Ni 4.38262095941627 0.05741481537017204 3.3197566891129 -0.362183331910544 0.32751252000123593 0.4326521273550678
Ni 3.014708309848041 5.599503057269764 11.350335946354912 0.4097348564372621 -0.17584700117172297 0.39122008546252623
Ni 4.386405701612158 1.0676748525980941 0.9650926844381169 0.529674504918404 0.9582275225034336 1.4928105204670483
Ni 7.858524508672214 6.425562178150819 11.466204309259966 -0.4205445454582563 0.7378754969408001 0.7824640821844524
Ni 8.69618648883993 0.41266489914866045 3.240750425989205 0.5009545112758921 0.9933464776937537 -0.2960638145736514
Ni 2.0404364745075867 2.8560898565045694 11.152280663502658 -0.7456451135838901 0.6082875267366169 0.5687089931130463
Ni 4.296225700823036 5.7076122382423256 6.556235236988547 -1.2193091645749452 -0.9382821897297582 -0.3997859727546663
Ni 0.285802366638568 3.8163461745162137 8.495035268454204 -0.3057458177481057 -0.6878937657060347 -0.14330609112122417
Ni 1.8375337748866831 0.13193279784599463 3.469508163720556 0.18226730287576998 0.6797261422935778 0.9621685094290526
Ni 7.875164482268246 0.9943282063931157 5.544918971220799 -0.1824727340183567 -0.05189386065581385 0.49077294275719985
Ni 2.1829122196530264 9.181370179392085 9.067125295925313 0.46850333272572214 1.45602317643537 0.2113912168249198
Ni 6.434291948471261 7.870182619669765 10.180400306381841 -0.11711683432036606 -0.3951423033350679 -0.15383630122858666
Ni 7.7944877757520095 7.411225074552863 2.875974947253475 0.183353079740781 0.28741025266371145 -0.5103066419147534
Ni 6.427293398425336 2.830093926531355 5.8438555903995 -1.1662356817887334 1.4352638324008313 0.8620950037442185
Ni 2.687139333224878 2.85385216221357 8.491436540351643 0.027394847073185083 0.490864988250374 0.6377526260752694
Ni 0.8170457251113825 2.008675949364966 5.214903264667107 -0.2954516349109492 -0.6924654442371171 -0.6808232320124985
Ni 8.233600748041326 7.930406984538637 6.28882340231934 1.6101746949115299 -0.4499852193168766 -0.5406600573956302
Ni 7.941521787045781 3.2118556229180206 4.085724049231216 0.688440125127808 -0.36039461544123735 -1.1797884807725036
Ni 6.086325881911622 3.7949913882576647 8.59702163899843 -0.9360607565984072 -0.13502071118398037 0.5515895598239403
P 7.185604713138152 3.1800214288275486 1.938692290629424 -0.41676913757622414 -0.21689440603133614 -0.38788022245601583
P 0.0016363715041587794 8.115021367855324 11.524077713830515 0.6902319269209081 -0.012268275844391776 0.14485826609969243
P 3.8928513768603397 3.049489261852587 6.7006622883902125 -0.19374085073300826 0.6143689570440064 -1.552749877135158
P -0.19345557792075435 3.5284387176927794 12.297740716413804 1.7643187571885226 0.04277055819830698 0.13246400620039767
P 9.203341943088892 5.772551415773714 2.5306885886719463 -1.0533804509581988 -0.9696267654793107 -0.34472399878351595
P 7.928896771107674 7.134073284115796 8.475856478742829 -0.049711251182198254 0.20971125801933563 -0.39475560941961046
P 5.9565211957966975 5.193826578686699 5.216209967629629 -0.13153480951790894 -0.26619170960456734 -1.6705997329668065
P 2.457172503886909 5.891351802803272 5.265498177189896 0.03227505798362184 0.45500632668055185 0.1637108800298213
Ni 4.255357852002233 3.083671653655836 10.40270188169583 0.8796839204705754 0.14802843629755796 -0.9362119374642909
Ni 9.107636771210883 3.8010046161260704 1.1305024939116795 -1.6214081017335047 0.9349513255843124 -0.856091734972932
Ni 1.900769357998998 4.745753620614904 2.016459073705512 -1.1835913994583618 -0.8228861947552409 -0.2691675044034397
Ni 6.383368288268683 5.633989333482903 2.746440994521905 -0.005204169908758779 -2.174928045810938 0.2934700857045462
Ni 7.6862036310283 6.161928639644563 0.4705797425023767 1.0872328807312694 -0.2227956020071195 2.1710418233826543
Ni 8.061150949738671 2.7572445457243764 10.47451160947625 0.24406582423980547 0.048922179621999615 -0.31548489941274055
Ni 3.299180951977884 8.422009082172382 5.346284466266061 -0.23578378673667136 -0.23187442437993616 0.9399901735598005
Ni 3.574969866879692 6.040614299769561 2.0041812226841564 1.6011305824313908 0.893627527134861 -1.0354161531702941
Ni 7.060809515477151 4.287256506422075 12.671842683947576 -0.12339109736485201 -0.479545963693129 1.0496384674172632
Ni 0.7291641954952379 4.654744844162448 4.319967360991984 1.7471047073030812 -0.7915264494970369 -0.8890198531595206
Ni 0.7647159088666832 7.710468340726997 1.9690853359275446 0.8476649443618175 1.3912308625503331 -1.774937927465266
Ni 0.13234258136842042 5.82931334009355 6.672763857838723 1.1101385816848492 -0.5799861086887624 1.521255920291935
Ni 1.852184686890716 7.559410163156819 7.190807582580186 0.2713580842968552 -0.4825888642845108 -0.2476121468301671
Ni 6.761824090620498 -0.3164725913529812 7.734756071971897 -0.47846610036538884 1.110001541886353 0.7956602691597523
Ni 7.223019330028399 0.393538598562629 11.565562540089577 -0.8085489521969622 -0.0956992878765384 1.5341219776213257
Ni 8.182640253364822 8.538728321425126 -0.00480413626178748 0.8067970025028622 0.22347488746233124 1.4118624227577556
Ni 3.0792146823108006 6.896583013478458 9.432305033012382 0.02075060228379007 2.494430036802872 -0.38135681951520134
Ni 7.6423245639640545 2.0035467488707823 13.311455827295976 1.3615942706308226 -0.050794714054364136 1.8014447155065427
Ni 3.731525589683313 7.392126399822276 13.41505923124555 -0.6311999125584161 -2.229678916299573 0.33344894009032894
Ni 0.5971429949118211 5.4252944128371485 11.204371976528687 1.0132380744113583 -1.7991561765826822 -0.6025488244806267
Ni 8.625289335151026 0.10631994640160955 9.815935158088939 0.4099657415011455 0.6485342900718056 -1.2567634527666611
Ni 4.42714462977422 4.090440703617429 12.590463359841202 -1.1385718973248777 1.0095256585567776 0.822938388149415
Ni 5.974873972430284 2.145516019999741 3.3662961260564455 -1.1218155038021456 0.4874953004471927 0.9180658626828835
Ni 6.470500236340435 0.2980940305876459 2.288318671101273 1.3505110162334677 0.6427881316166478 -0.9127017701574927
P 5.5845390522373615 5.60613326257643 0.6471540810228843 -0.8223737738951966 -0.5466913511913746 -0.04297598934089373
P 8.61268273644988 3.6776091284742543 6.070160152167386 0.16003471672981473 0.11300486903452152 1.1804196865985992
P 4.192113060271437 5.288914773126448 9.047757729535068 2.23186409687635 -3.9037316408119866 -0.274580704999211
P 6.334332394854808 1.4849265646123793 10.015836768946727 -1.263892864722591 0.687400371009384 -1.586368593630868
P 2.502681496422377 5.103001974603873 13.383103483391123 -0.16515069780014138 0.5324726364888315 0.18075240889314032
P 6.8743441998456865 8.777296000424796 4.231606983214803 -0.7990135019027013 0.22845999938174846 1.676088266885204
P 1.7015961488630935 5.42006391753967 8.582519906613797 -1.0254569850750532 0.24981558223938913 -0.49398913570165254
P 0.9803587321567124 8.895111065276835 5.663172366312557 -0.031943385675815957 1.0782255350263366 -0.5522315642833134
Ni 4.774631848172821 4.205428722595655 3.732823084027353 -1.1576271141841161 -0.17568347901066517 0.9288323571707681
Ni 0.5941768988989368 1.0468910006853964 12.057742018102111 -0.5632649392793395 0.12912902828989373 0.09386069200590287
Ni 4.442016548621808 0.20392853971974018 9.650819103544935 0.6673195410991088 -0.48549061131233806 0.2818726106749339
Ni 7.830318510263443 5.213127843023878 9.481215689214906 0.22217056682861094 0.291910197416594 -0.3726140403255647
Ni 4.409095737550521 9.211565239392854 12.168731654935678 2.240142020614426 -0.2705497294629469 -0.7238804682132888
Ni 4.90334070868845 3.5994003317110552 1.4427658257567768 1.5347089604730473 0.1444890556857318 -0.5985805838614982
Ni 1.0782555552333133 2.5367165503299223 2.763678607457386 -0.036760347448485074 -1.1903623996336081 0.9071445877846892
Ni 2.5034458117563396 1.0635862259923177 6.72461298419869 0.9627174399539872 -0.41644954945327634 0.8166556404644968
Ni 8.060285339601414 5.769567823385715 4.798912212522937 -2.463836223176415 0.7140316004436671 -0.9441592173358256
Ni 2.5081790416558194 0.1417970699633547 13.54081949212341 -3.367105644276414 0.47941046655652914 0.9015565521739506
Ni 0.8236096283649806 7.369012767433764 9.423894801753246 -1.943387607731653 -1.0944895622936828 0.49247064217459696
Ni 5.4980056643669055 6.827895928225108 8.233675337851025 -0.5295778314395395 0.9164386114921056 0.65440951790566
Ni 5.994064733345686 7.337758716307625 5.657579972308755 -0.25556251202549535 1.0577551829871266 0.14344878734667554
Ni 5.182748610653479 0.8054456284102637 5.609612278638732 0.907413782285676 -1.1586000196203465 -0.7622816936993065
Ni 5.4782255518686895 7.546554931756675 1.8052630922801889 -0.6961279806903689 0.11045330625726138 -0.9206796461566465
Ni 4.33467168298321 6.867732411775985 3.988940548129026 -0.07112236986812266 -1.2106921123298957 0.6010352160495778
Ni 6.057438445735222 7.212475461867107 12.73518784961982 -0.7402416831801316 1.2108900872733146 -0.8356848891818058
Ni 2.2163947564516833 8.30249963151975 11.476865126875973 -0.2482752343354627 -0.9187811435823532 -0.9810437490670006
Ni 4.970453120181468 1.6324117982117434 7.788868676754611 0.9264031789039852 0.547565783376528 1.485117522698165
Ni 1.625385622310375 3.908745452359372 6.375121049556671 1.6860623473787801 0.29185080493356835 0.923005723186662
Ni 5.961070253326548 4.971171392423023 10.90938493381669 -1.4512136708618684 0.7163383941999728 -1.8102677131148113
Ni 7.581575307841739 2.0186673004173707 7.881987147701173 0.06468124222846926 0.41835627955768595 0.5918802890231871
Ni 6.872686648519021 5.450240560303476 7.0678099072467715 1.5306738711717252 -1.0039671906323935 0.4525964316874786
Ni 5.6023669376175045 2.2107682905595 12.25792725440913 0.9414420755149786 -0.9640323021106689 -0.5477115649257728
P 4.545981851277704 8.730359672024699 7.425589598522121 -1.0067288125379306 -0.6850485829477556 -0.6036765103271668
P 3.495039058460456 1.8110682053709133 12.499151619840706 -1.3573519504147011 2.418012737084397 -0.88187655724652
P 3.2176570525613526 2.9845592929396796 2.5309989191147726 -0.833097588070604 -0.7991163460291528 1.1454172023814855
P 6.1867642836891115 0.20141274515060018 0.20998228550946435 0.13930339771973427 -0.34819473094093584 -1.7958024296191006
P 2.995001866297677 8.302048409214157 1.9284357313647529 0.8645226393491047 -0.8126172087290651 -0.014511820462929847
P 0.5113205123881351 0.7623023299626875 1.053575536841102 -0.02670733408785723 0.3446905744424193 0.07323993043175774
P 0.980100890839231 1.8865420424451131 9.47209086916161 -0.8726403833602326 -0.6549319660680334 0.3627767425201688
P 4.4785747639932785 7.342630075484327 11.112723201091768 -0.2831116252883576 -0.23391536606936486 -0.08722596029820462
