# total energy = -340864.6993095888 ev
CRYSTAL
PRIMVEC
9.34884234263228 0.00000000000000 0.00000000000000
0.00000000000000 9.34884234263228 0.00000000000000
0.00000000000000 0.00000000000000 13.68297576391001
PRIMCOORD
 96 1
Ni 7.494686570209211 2.6224999038616974 11.902301206003747 0.5217709338006111 -0.3973483098474512 0.7357592219287458
Ni 8.894628990975834 3.0010158391650403 7.664354973277929 -0.7096779514606616 0.032207180860163886 0.7226856765742393
Ni 1.9944072690706542 0.7404077588660111 10.997774516979414 0.05405770107635206 -0.271355513193694 -0.44898968817282675
Ni 3.447703534007801 8.89767671363215 3.1044897628839423 0.7647509811754054 -2.621902760436265 -0.33905420209224835
Ni 0.2966471866112633 2.328862109652483 10.670491173482429 0.31974753134383643 0.24495156927886846 -1.0247368190795774
Ni 7.8326098313600365 4.183569625185352 10.108312552766082 -0.07278793049600368 0.4516944886984995 -0.6087397837826871
Ni 6.870585891167392 8.74726318658474 9.129268109910589 0.6511948676231043 -0.963211091760954 2.236297964277987
Ni 5.757381818842005 6.422402381523984 7.44263595468375 0.4065479740688482 -0.20633771356141237 -0.6004865426349595
Ni 6.24537269986759 8.05656135354418 12.442340832786293 1.259453855114631 0.22939253849834687 -0.2797815324738601
Ni 1.0721813514176826 0.26484709883379054 2.5924994682662517 0.05967684703534237 -0.9732561347017818 -0.860376221280899
Ni 6.601946901813964 2.277181708290181 7.4095775127052335 -0.5384797619148597 -0.6411979043113926 -0.09247666717418267
Ni 2.2340274512915586 5.253759673149676 12.422883086882644 0.35121397738323384 -2.3695325300958223 -0.7075519062565944
Ni 4.37251908103439 7.407826474504228 5.5264859764458665 1.3799768869030686 0.4721401581473611 -1.643083015603777
Ni 4.4138690114297345 8.141299262000746 0.6166346934180987 1.8691374908678262 0.49375079443860126 0.17761694858795216
Ni 8.90203327423903 7.990147176395519 4.223428415201302 0.26146036556716906 -1.340434605834072 2.024387641724804
Ni 0.4339620504262694 5.928727404255947 10.90396355687268 -1.4571372354351548 0.2717902867382674 -1.773798157433868
Ni 2.564069638211483 4.155859656003394 0.7931595375792752 -0.3985410446039717 0.4433445740719074 0.39292601241003944
Ni 3.926326874844343 1.543260176353469 2.3030639787626 0.060997622729294945 -0.7779304559801571 0.7151736844679102
Ni 2.670739931182515 6.63268589596723 0.40091389217450796 -2.032191454039939 0.7351809808277726 0.3560880176460835
Ni 2.2786588254058184 1.18203959968259 4.275560365656549 -1.5268233870773833 1.713416313911701 -0.8118001121444083
Ni 2.6545944801780474 3.3169038785338567 3.3259348603927537 1.588850222402141 1.2142119525576962 -0.5273440570130145
Ni 2.9649012605719554 0.189192525754143 8.616635549812871 -0.44158876772306527 0.9904079638907201 0.3618424036313575
Ni 5.1991156887135945 1.07690251688222 0.16669173161543313 2.5200333391932728 -1.3410383008563418 -0.2862280594301522
Ni 8.993221884023379 -0.009754582268709434 11.09972551425441 -1.927967673632157 0.41374732003076486 0.7527501000597874
P 5.004126880606951 1.7838432893522889 9.055133658622097 0.030228716977554387 -2.3287098396525057 1.2882797782073878
P 5.401938826838619 0.7165065081201969 5.817221889941829 0.6312605905930224 -0.5127599885512524 0.8216631209814171
P 0.7426150205812135 0.7975740610096803 9.02462090645743 -0.06911228141662935 -0.039276943222751715 0.3793634432342563
P 4.422937388658648 3.397874203461298 1.7418295911391586 0.8654415516189483 2.2764015171670926 -1.4474704017693523
P 3.1155578575244687 6.501428147210587 3.4843696943086235 -0.5480051849067917 1.057796063527391 0.12140389173149413
P 5.507992096204386 4.2386997494316425 11.680650433959848 0.34284606503451276 2.0339392899689814 -1.5672866372987522
P 6.443886021598255 3.7079098674225888 3.8460792154424635 -0.2154309341119322 1.56383467419441 -0.10690466967405458
P 0.6263986245293123 4.190412977898306 9.50720535186293 0.3378480975992891 -0.22415237314533007 -1.5383144184361186
Ni 1.028709233773923 3.8213113269965255 4.788549116653671 -0.9618800316543564 0.398347697646243 0.17115499501269232
Ni 3.2313806673069503 0.39601977312364595 5.985316882817117 2.5285868851902387 -0.9191336418257655 1.9417541858932883
Ni 1.125385614108142 9.343149058949386 6.8865322118265215 -0.005498304110409885 0.32769455410505494 0.14199688539149738
Ni 6.059704687737468 6.120603047808748 10.237369583997271 -0.037935855813824984 0.19157701031247004 0.13589102960407562
Ni 5.23314547542828 6.472680456510681 3.5504173968311257 0.48622671814741425 -1.042679776711243 -1.3368700284112653
Ni 2.471095399508861 7.010930714837954 10.954946534584181 1.3091576500976614 1.8432796492644576 -1.0500400737310562
Ni 1.2694793236228232 2.401923313821511 1.7404609205965678 -0.4968116927521122 0.07408299515834338 -0.7445410818864339
Ni 8.378189582210473 1.4521931015216705 1.0641890259609836 -1.4288427593658362 -0.7493331039584386 0.8462217841573878
Ni 1.7276567459030423 3.1239718157781 7.074864644070295 1.1523260136861766 0.08923296342590438 -0.36658506052266543
Ni 7.952106736246604 0.9626316149554083 5.209437745722299 -1.3123887554404494 -0.5949049347821238 0.9841234164335889
Ni 3.4924096988620934 4.971396583000326 7.6544760514039165 1.1350001208132194 -1.4317715029768567 -1.2374706659753203
Ni 8.251110766053134 0.25698285251939684 7.639875964065366 2.0780128832494276 2.540016467183419 0.7077077151081682
Ni 0.050403349476250754 3.9711919700212044 12.251490757256184 0.48859136172484885 0.18117638380443638 1.9594485178492578
Ni 8.939933481750385 8.299135769996358 1.0857633498075436 0.21076746719799183 0.7804735341169848 -1.6894464333596644
Ni 0.2496215739317202 7.979424054043392 9.320761385804975 1.7498285339921478 0.30014235551839924 -0.8966693992849782
Ni 6.505027451574639 1.912389873782761 2.8566500783334914 -0.7984195770724443 -1.6749454115300122 -1.0105931805893433
Ni 3.073029972973617 7.34067373879775 7.147753829537248 -2.7164159984245027 0.8742768905223911 1.9788994274850176
Ni 8.2123317673464 6.38598863997077 8.403550187271167 -1.0850245602260409 -0.7130856915906301 -0.32969204415105796
Ni 1.0995921576395113 8.152863780178237 12.475466586430835 0.8438100893921017 0.7567808184857354 0.7898400629335495
Ni 5.022244937379769 8.596830961852323 7.974780483971639 -1.2555604335974957 0.8381948000878532 -0.5636279790457132
Ni 8.61051766727823 5.5111146096007335 3.8378690619554208 -0.2621825884451742 -0.35022410266613874 -0.009827270503066947
Ni 3.8929047628924205 9.248435935541014 11.821927337228061 0.6370890243493414 -0.9359563698100589 1.0379638592928124
Ni 6.735859721841751 4.715902066207572 1.7455233188125023 -0.6388589717655707 -0.09165828503794536 0.9432629307738012
Ni 6.951378588087255 8.280428736145785 6.615896309714233 -0.9792403773096747 -0.5408310357558558 -1.9395934307965432
P 2.5037228598479415 8.76169779941097 0.5780492157511978 -3.3100369242878798 2.129575328707752 0.4004369760751039
P 5.534393227435778 -0.13615467246025537 2.091415533313767 -0.3964160278411689 1.1056990578562569 -0.681066458371556
P 6.468987663721587 4.49267040489624 7.358266390621842 1.56840583850486 -1.3942773626861409 -0.5143211623907852
P 8.21638916499315 0.02213618928105252 2.937092193659455 -0.624021649642422 1.9780892728788966 -1.3525280466634966
P 4.276637352313014 6.530577838138166 8.928442819428676 -1.7079372930750005 1.0400076291957185 1.2926488538093608
P 0.9676519433800747 4.544631271533663 2.368742402006193 -0.4315231559569471 0.21632490668111132 1.122316868918596
P 6.215652729547265 6.764242807684 0.6841155734964691 0.7889288639731896 -0.8676910097747573 -1.1223402659573638
P 8.013285561593005 7.254383922485513 10.590513695628916 -1.3461383410870686 0.008040096695657122 -0.08619880458527089
Ni 6.031817090547934 3.3349751910941547 -0.1370633799516475 -0.4599539004938143 0.13789469029766574 1.5124216098297567
Ni 7.66185322302385 3.7245975512922898 5.516073235664872 0.9396379324267043 -0.1482436376321576 1.102943606598307
Ni 1.9331910483542374 8.135521677333253 4.721858213766891 -0.27539805869418377 -0.9753222732021913 0.3061613080189695
Ni 8.832964025819223 2.123075388453679 3.431703924946397 0.8662126254570179 0.92082619903684 0.08945279274619433
Ni 6.0317703463354135 0.9281343861155215 11.255561369954156 -0.26975602991705805 -1.363106593510291 -0.67636751023399
Ni 3.587627659765683 4.99430124713521 10.522413922176778 1.5171580960734776 0.26097365573873765 -0.06518209312428774
Ni 7.266920720283422 7.350686349119571 2.416892680438971 -0.015182621277709338 -0.0825205844027353 0.8631429853927586
Ni 5.017205911270095 4.802444301267418 5.275895862430728 3.3084472112032572 0.4973904480737176 0.6227065303754243
Ni 8.823007508552427 5.811128314397699 1.2007961823984343 0.18810730659631475 -0.6278052850545704 -0.14769624976911983
Ni 0.17357902388815524 5.310348216826595 6.562027344321737 -0.3462152386170618 -0.9057140259857498 0.21074484149017253
Ni 3.2235837326585854 1.9648088337028815 0.09927442366609028 -2.497831349174937 0.10105335309960015 -0.21222168314601517
Ni 1.7963239940951747 5.970273660343876 8.714249619050245 -1.6017340203433448 -0.028652630739686137 0.7855139247543697
Ni 5.958886770173962 8.644510058622899 4.029007081834653 0.7954149859181656 1.8821501010774102 2.079354741989303
Ni 2.7687812425223233 2.9747549405712075 9.606584482565067 -0.5591118363429145 -0.6566558907376755 -0.22564695541298557
Ni 4.448141868049524 2.3257489450986393 4.7021686165691445 0.4279819755729081 0.6701426123702008 -0.009791017948492815
Ni 7.306615905555553 5.374051229649085 12.337296303526712 0.14042876957342915 0.6109805001877477 0.4754201144502135
Ni 5.257031768026088 3.8692054471446937 9.099904330489666 0.7863438768548328 0.6275669437915192 0.4469500320349787
Ni 4.455218941825078 2.4498641781821995 11.848951101370224 -1.3016202040700358 -0.03366216813913558 -1.1269345701962656
Ni 7.54916227548022 1.750103316755229 9.675246121451696 -0.18849939982841082 -0.40240721242759725 -1.1157312452812786
Ni 4.4636983419762375 5.615746854905885 1.2826789543542694 0.3757181331721852 -0.7075220814599235 0.6598522861877861
Ni 1.165641729930514 7.122686778131181 2.4253346852201143 0.8336776289437899 -1.0247617587802416 0.7026976634880865
Ni 4.52117502569104 6.628161056195276 12.581564730240622 -0.6035860074958894 -2.1842845473251735 -1.4134472507463722
Ni 4.098644739878704 2.5277400362408056 7.274622296738246 -0.4414332159818075 -0.07447945926581367 -0.8454309128249762
Ni 0.668005648093517 1.159705214940452 13.292614318991212 1.3347246999334885 -0.22296323793323536 -1.4232608944026843
P 0.5444027315791783 1.8022698579277405 5.553974378060479 0.028509677403918642 0.47836094224609227 0.6074452333409796
P 3.1228780012051276 4.356728886045076 5.486408423515321 -3.1778971341961206 -1.9897507683772249 0.40201486208518505
P 6.93139076281363 6.833517730638895 4.9602705255362745 0.23751208228168771 -0.6739707278670393 -0.5663934576059922
P 8.230356335694177 3.502983239734156 0.626062066199167 -0.22855435886776768 0.9012768161500027 -0.9757878999847001
P 2.147158006744071 2.7337324319746985 12.010971216386391 -0.306752147525433 0.5671462766116168 -0.02552411241303346
P 0.6535074631382607 7.303222275726589 6.46368780490605 0.5054184605845167 0.11927913207900748 0.15509537044666838
P 7.556931163601073 0.4182924555052574 12.868455464814675 0.7764441012426176 0.6181700759576515 0.15452047177980485
P 0.40294259099788343 6.236285624953669 12.983064794840134 -0.30856271837161053 -0.28767276229647876 1.7089073702977535
