# total energy = -381173.40801815916 ev
CRYSTAL
PRIMVEC
9.20599142026891 0.00000000000000 0.00000000000000

0.00000000000000 9.20599142026891 0.00000000000000

0.00000000000000 0.00000000000000 13.47389899943320

PRIMCOORD
 96 1
Ni 7.628783894572193 9.086248790185177 9.857949280929471 -0.9796453260575773 0.458033800652966 0.41076381192240874
Ni 6.1902465166950185 4.423837765198735 9.606889935390265 0.56490530309624 0.2358542349632906 0.1246509379138821
Ni 7.212848009931313 4.745909364414361 12.040019578531359 1.124724449918824 0.04564736552546977 -0.13895964122707036
Ni 5.9606490982460345 8.255592211730812 1.1958499606594406 0.7102726476218671 -0.5505981424449485 0.004553937919269576
Ni 0.37949212760744044 1.6372947260854172 2.901549803737046 -1.1683653265372265 0.5722545443724597 3.738887675618986
Ni 7.291218612307263 5.54488812743637 6.5759766238830935 0.32998514991144456 -0.2541288649027624 1.7917431719480625
Ni 1.4182013435005183 3.5499038225050494 8.800328197485483 0.728711571053345 0.30592682341066024 -0.30010224630908316
Ni 2.4901837730864655 2.600848992299587 3.429215120164131 0.3520794107073226 -0.4778868308231512 0.24248922378130494
Ni 1.0131193223861554 8.982570918229586 7.164246821029238 1.4671326560849702 0.8846289231806764 -1.5305746265896993
Ni 3.0669299105528016 3.1082740166576284 10.846312772603875 -0.5029764268019273 0.016084821377004555 2.738962773376767
Ni 4.427059862089559 1.1611608655328323 12.26054725453223 1.6826718336399922 -1.0213126238893766 -0.9537350339497187
Ni 4.1759664543832224 0.46734950382908763 3.203162928894165 -0.44467717684040187 0.12033534125766372 -0.5841528384719423
Ni 4.932634482233157 6.119277531176846 1.1009426364406711 0.5967252758203143 1.1896376056524416 1.3242929630772031
Ni 2.553760347737976 7.4336076769083235 11.023791392945116 0.781139706946074 -0.6764569846240026 0.42630021699511095
Ni 1.3470206201866632 8.950055357605617 4.402191718286181 0.04857508069522602 1.127657307294903 -0.3476077480892143
Ni 1.7780175062943655 7.11758441385633 8.546413153501895 2.114431788198094 1.739304237422056 0.4030646435059381
Ni 3.8972090433713835 7.392245158821263 5.621782088837212 0.834954952994317 0.8200214716129361 0.5819949115886751
Ni 7.450767644349739 6.530315828543674 10.11300955020797 3.8415657088062036 -1.518838569099694 0.6449758832965861
Ni 0.6278633237405873 6.347079781358086 1.691459095419276 -0.04952536042363728 -0.48219394283893735 0.02806873321175811
Ni 3.776288350054326 8.944531762935632 0.7127407206377784 -0.43822165102304533 0.05706383489252753 -0.24413267292199892
Ni 6.773639379747569 2.2060960932180933 8.63018030787042 0.47204682710260637 0.255895726995198 0.4467862527636047
Ni 0.40044312219068817 6.2453075495636385 12.501581275745417 0.3129773024995384 -0.6351969495329512 0.2587992737952382
Ni 8.631343945147563 7.59748352477562 5.434885739583647 -0.5724028970248658 1.5494573224268153 1.0672698073457814
Ni 4.842342121361158 2.6728490488228225 4.28150669834171 -0.07237526843861729 -0.8130725510989286 1.1723680199387163
P 5.968529426641878 1.8357022466312274 10.563805761410228 -0.5366972160931401 -0.45228969908033717 0.5972317831430876
Ni 3.604476937844487 2.6341654741507043 6.813588778198224 1.1502495907731223 2.6245355700734216 -0.405281962872231
P 4.458332613912782 8.14632630316742 12.266368202715284 -0.05704866538387594 -0.563687628639055 -1.0559952628732263
Ni 6.390421587535223 7.013243710540339 12.53622342031733 -0.7756897395750963 -0.41292071036441147 -0.4935654179006726
P 7.714160256187905 0.6506822139214011 1.3190813577467746 0.19307056413886106 -0.2175253547471157 -0.1098688945087011
P 2.1941927467042786 0.8818805542255689 1.985028946137787 1.8066619980414238 0.2987881554833499 0.31508740686400577
P 3.820753287147694 4.3629585459444 3.656735667017202 -0.7008549538523929 1.266084215946955 -0.2651090180633499
Ni 5.660441727932427 7.4274672808335245 10.018867243850991 -3.9341236228402825 1.3996941628263377 -0.06991523693389895
Ni 5.323180243374345 3.2182579925281183 12.304633825390706 0.11115676008218922 0.051899002862136424 -0.7202639545066241
Ni 6.915466878890513 0.20774607793452923 12.569571202538246 -0.8692904930513933 0.40396170139891074 -0.948541148453605
Ni 5.472915688886483 0.1459701951454328 5.262904937137262 -0.27468432045661084 -0.9180941448176575 -0.245220506669539
Ni 0.840215159030771 3.8986083540211127 12.178262264733485 -0.7262060310226719 -1.4568497861017233 -0.785944584533885
Ni 6.626960323286154 2.0806644642538825 2.885327926790416 1.09350020179722 0.3021084781058345 0.07783654866350466
Ni 6.243061287731178 4.095064204450195 0.7468526001213736 -0.5058375503998062 0.3611050112447007 0.5130525800910067
Ni 7.575205026273353 2.434257377052882 13.327343028723066 0.6635379625694895 -0.056466053407528555 -0.6526735090511598
Ni 3.2035652307059617 5.345826981521278 9.742410410019204 0.07025539388213707 0.3753568931780245 -0.7306596959186513
Ni 6.074195792678664 4.817034851781516 3.4024017504378077 -1.3960737924649311 0.675037735678973 -0.5891983713156498
Ni 4.868597608025813 1.0201803175726178 7.77908827033534 0.2410982569710493 -1.4968800625507317 0.3638182964108057
Ni 0.8344227494201817 8.81431301859077 9.892617202276513 0.7295824036940725 1.0256418473923499 -0.7193758954747159
Ni 4.940947492211482 5.292174465293504 5.433497476123257 -0.42402376225610844 -0.4194939927065549 -0.32769789653916465
Ni 2.371242367859486 0.4078769600173744 11.85022610387339 -0.9489756648878624 1.1533451989793106 -1.0577772944743138
Ni 4.905596486323586 5.328436864301946 11.339093826892677 0.46058613476117455 0.8911016753892138 0.6729605414349701
Ni 6.43623059933162 7.165777777351936 5.5207279243498615 -1.7587394633285325 1.3872065718822884 -0.8981333854250144
Ni 2.998372894707188 0.5755760559954111 5.956028611304593 0.6256928666972579 -1.2542579127359883 -0.177264707454856
Ni 8.98896908205565 1.1667212841672823 11.723208282639781 0.7816084190523764 0.10781715418599495 -0.0009639065751660819
Ni 0.9813678590248666 4.490489140883204 3.3293190693592547 0.48582305495109235 0.2007172820508414 -0.1331592324952094
Ni 8.312770622556261 0.932557694124445 4.656741055057704 0.005502160765151814 -0.307927913001089 -0.31481152749479974
Ni 2.8360160353741377 2.5530698984042286 13.246095554123164 0.41940837497128414 -0.2591502293767537 0.2335620964950042
Ni 5.700856028934473 1.4002588668141882 0.9058557168906327 -0.7325682257952739 -0.44959518296730955 -1.165149133592774
Ni 7.269676593094327 3.3354962893985194 4.87217505617374 -0.18867063529895248 0.03854315038052072 1.0971843355170265
Ni 2.4636429006971943 1.252613181285527 8.456501920662127 -0.39066344162810784 -0.048377619972439265 0.44077629912409894
Ni 3.0423315022891413 6.364607988444168 3.378984470834412 0.215506524544874 -2.06379776809131 1.4704210970282547
P 9.1013650275987 8.103094968883683 11.577501378840285 -0.7266469752148325 -0.0009729054362305824 -0.3785466037599158
Ni 2.5389110840668376 6.60357710584989 0.35463871338984926 0.7091812143299012 0.20317577089366298 0.04936466647605692
P 1.3550942743959558 2.066772623658874 10.452296352811711 -1.5079985410613963 -1.2201447731023631 -0.3881172781674864
Ni 7.445612289324421 6.847996169996664 3.194917122650991 0.6889252922943425 -1.6158236656671914 -0.07174663371568288
P 3.947455342886001 4.605941475476977 0.15447837213543086 0.31666477865345466 -1.647432550821724 0.010468760741807777
P 3.514064899087973 8.373548575908313 8.11107103958714 0.2793799261600672 -0.10636062424512649 -1.199191567889464
P 0.2142998230104647 2.89594703754346 4.706742475208619 0.4908215366069482 0.2667339552612826 0.3988099819946422
Ni 8.639620131161422 3.5771811741836514 7.235955047634077 -0.5000332850132033 -1.0702551152263502 -0.3930021170636135
Ni 8.658124173305866 3.457770263409723 10.20480709062754 -0.7255023200874279 -0.055889869189084396 -0.3217347369771943
Ni 0.8997917305421024 5.5890584728140045 7.340930043738003 -1.0798828681241013 -1.4157653573565876 -0.34406245394011714
Ni 1.9472788589648957 4.105172382696265 1.2513584046963293 -0.03759621308621912 0.5578733359501231 -0.26912430987033004
Ni 1.704424813307951 7.154500438234052 5.692574319325944 -0.030844496184682362 -1.1048099703830843 0.19015236205080155
Ni 5.198098442072568 7.439517923205205 3.5760000455233865 -1.2922631883351678 -0.7252737490163896 -0.7616669429334431
Ni 2.452163029774745 4.799258082935286 5.494898675073907 0.2842043441319041 -0.43552482091717254 0.056733448136302295
Ni 4.247285267563827 3.1154270717552572 9.150609715279826 1.652035596811374 -0.4515667048713836 -2.2421425959842223
Ni 8.398883463461305 7.92715927265359 0.08836738812950903 -1.5294932206000627 0.42283514126464594 1.4499818553372963
Ni 6.424005043128723 8.163283738804271 7.6735471057777405 -1.1960964739039077 0.315913759420043 0.3044402115628047
Ni 4.151911199595443 0.18488115779813216 9.900310649052688 0.37788531602683306 0.10246488873514611 1.5178080709526505
Ni 7.569129072136371 1.0458282088235749 6.677542641476529 -0.2950328022059758 -0.6505901441595698 1.3917594813602934
Ni 1.219591291150142 8.761875693190392 0.14580080490888667 1.1075813624806343 -0.22091766825811632 0.5949123909812916
Ni 1.4675454558857048 2.3801353552781594 6.45949505948248 -2.2216131085723028 -0.30320582493507137 -0.6344299894599397
Ni 9.037107209604558 5.11881644657607 5.21396772955943 -0.21137270488215856 -0.6306980332213331 0.39475638075055886
Ni 9.133107284968872 8.489682153844717 2.4583393292148985 -0.6323777349166012 0.5829719307899637 -0.13799187799716237
Ni 2.308706070204155 8.020793408300928 2.3042660206886 -0.42696947514799377 0.7536774969700634 -0.5977431755618673
Ni 7.948774939795459 4.102990562801622 2.4552000862441243 1.724753336191075 -0.6852704691505747 0.2074890535570362
Ni 7.606210804354193 5.919728467732573 0.9884491073917855 -0.5068024854162368 -0.06335943809325217 -0.8993574876401027
Ni 9.172840342628287 1.476677799073411 8.403333639567087 0.11102074872495718 0.17625734923626418 0.8605068333214922
Ni 2.7010746175864386 5.143911978360028 12.059718558322746 -0.7844307189925199 0.5298796789506744 -0.6815395413532327
Ni 0.6057726274570996 1.7688115151777262 0.9060508839023055 -0.4530628298009358 1.0242022867323457 -5.304939926290006
Ni 5.726568362123247 3.9821066934490315 7.199872165452409 0.14591807482277452 -1.2600549790337396 0.14164130182429155
Ni 4.878714992263 6.267806991852705 7.723144382918634 -0.6822926174691732 0.21116958773241698 0.45691871321191624
Ni 0.7768328307918211 5.796754838396505 10.129003118574905 -0.7906854416529802 -0.9536468451112866 0.09401778640905743
P 5.719010243416485 1.9997898322942065 6.073615815238315 1.0070216611880012 1.8491718463791766 0.9406684305737477
Ni 8.587081539858762 7.906639118454601 7.970713737225522 -0.35215243003710317 -1.6371440244115227 0.7959747150763775
P 8.094551809127442 5.075548288327865 8.61455037615259 0.3843058748411962 0.5763078885062268 0.8386833096884975
Ni 4.616408687376596 3.057392503755963 1.9396351245407504 -2.115601125915847 0.8769528946926574 0.252768494220126
P 8.998156661190055 3.9358373820968025 0.49600223058051585 -0.34669320669474485 1.3938986391904833 0.8634700297148742
P 0.3923354058142639 6.663692227841545 3.8769392921307673 1.6318400957001056 0.16634857476298445 -1.5214086438197152
P 3.035519068862828 4.745136061160563 7.7062072004622415 0.4499595082852638 -0.17111205758989884 -1.0369870972018398
Ni 6.78886608905449 8.988195778801852 3.2697517038390402 0.5161430460908724 1.2822366573371016 0.15033857248797336
