# total energy = -381163.48722148803 ev
CRYSTAL
PRIMVEC
9.30406499313840 0.00000000000000 0.00000000000000

0.00000000000000 9.30406499313840 0.00000000000000

0.00000000000000 0.00000000000000 13.61743958675928

PRIMCOORD
 96 1
Ni 5.851791754830903 2.5111857829912876 2.8954083168427034 -0.5747081481192747 2.387670377347114 0.4592992976289509
Ni 1.8178933708580105 3.4583582199501803 12.176442150249166 0.18894085824120366 0.24354003364332252 -0.7163671905553791
Ni 0.49113182447556714 4.366676880983843 5.875039822336739 -1.7557276730854021 -1.413722615894946 1.2961710080300064
Ni 6.522745106620197 7.213581245562798 11.24784155766871 2.121694383297778 0.4154676451559812 0.27273131049529803
Ni 0.5707764826832203 5.893967082002616 13.202148340040837 0.44561897192838096 -0.5879205330444907 -1.49785245376633
Ni 8.03326007823447 3.6432392978740933 7.801758190826326 1.8362206855351473 -2.121520319613759 -0.15747621197401912
Ni 3.269615955003047 8.929595103398473 2.190256012905812 -0.04067588045280737 0.1095683325491468 -0.08979089281190343
Ni 9.228525411516705 1.3299323717740428 6.327697476743817 0.5534808633093823 0.260308511350913 -0.08314613380187616
Ni 4.074408283488806 5.626428689586426 8.584951132144838 -0.10529515909508963 -1.8996958232706571 -0.15960997048757028
Ni 6.792814204747992 7.6200758504893615 6.416305671284412 0.14204933589598762 0.5344768114030536 2.0027649212487058
Ni 7.67666317452606 0.935077152307839 1.8366661830429571 -0.11049418679752583 -0.5767938270037098 -0.12568914937040934
Ni 0.7462157953272183 7.953794058077047 3.127313070270378 -0.30207865330916367 -1.6224095464148254 -0.9929620977711415
Ni 9.27108220535818 2.0547376524558727 0.3641750647455502 -0.5231994387170216 1.0253775379873695 -0.5540616755135167
Ni 5.82382373509162 2.9499934060663966 5.765406301446567 0.6412585823459989 -0.4905837095645293 -0.41158862181654926
Ni 6.739315830329869 4.862043915900302 9.875871558886676 -0.32559242016038764 0.9308928392442225 -0.22769355352936915
Ni 5.469273725708775 9.651944110889627 3.135211291147516 -0.2550904574850833 -2.0108883216867883 0.9343558580921585
Ni 3.9250873424389914 4.160936089069421 2.5560211423797203 0.4262814479420336 -0.7153251224441101 0.7933537325137627
Ni 1.7364548888959548 5.695315987706734 4.683582642906564 0.01807279834131081 1.9051355062289899 -1.210826838135547
Ni 2.7030728219476954 8.827901671678461 4.605935567479357 0.17548884650135585 -0.9766990989450599 -0.8985360201800718
Ni 7.159664188214447 1.0327140116371905 12.840701227187356 0.36036530486519874 -1.8261956971989775 -0.3022563165376085
Ni 7.374699741179948 3.9206493033785663 1.7151299716496358 0.4101590884588742 -1.3505051026961967 0.8009477428109367
Ni 5.305512875598624 9.200445742996028 11.594065359179075 -0.27408499630971506 0.6384511948041908 0.3395432259135249
Ni 4.09425385438165 7.631985053838092 6.571218355469061 -1.1701165049003786 0.3644865261224239 0.5532512637970795
Ni 6.001019655229556 4.395035671458006 7.709364172189951 -1.7853208133614866 -0.049721278484527266 0.7048067394112894
P 7.436832288025899 4.550850849958924 5.833125939394793 -0.04372752279493759 0.790513177741174 -0.3146138096616969
Ni 4.940011981574016 6.31931172285459 2.646644597424484 1.3540915344958744 0.15311382124026532 -1.7412433634262978
P 4.764742002915133 -0.14437676084706896 7.93407874409583 0.8741308518628299 1.4746433626397184 0.40222363566188146
Ni 8.964745861407458 2.5378326254840706 2.962773469910003 -1.2566053299222424 1.6345009303617206 -0.6264724251757599
P 1.730463070961125 7.735725379883667 6.915780450949671 1.8516187652577725 -0.9662077124954328 2.2108952079341666
P 3.7882896730355746 0.8042136156355318 13.005403648687265 0.7588816668788221 0.1678750387098399 0.0428309791225972
P 0.39041159796670877 -0.13517969247971012 1.4499306212036571 -1.6401090205771172 3.674090733748259 0.12121388720787511
Ni 2.3188707570395355 4.427162608304227 9.971588059176042 0.6229847237374754 0.8969349942415391 -0.07423211914169796
Ni 5.946665306820745 5.1749675379532905 12.073317753314283 -0.29628621499710267 -0.8123102190116074 0.6935777034646894
Ni 1.2829003226116766 2.59808575117655 8.281391121224788 -1.9573965204162351 0.33276708353195594 -0.6993341463324925
Ni 5.59952133327039 2.073531863990587 7.960414830813732 -0.02110052942404108 -0.46746460704856263 0.07806949060991718
Ni 8.134283617266115 7.523071667587912 9.092174337238866 -4.533995928930011 0.09904712130284878 2.395970412572377
Ni 0.6829379180654638 9.692323753493914 9.175907201658575 0.5711638824114421 -0.03555784249995166 0.40958136157853325
Ni 8.980907022514288 4.869840722467673 3.1767176560373738 0.13133632035385767 0.03814900026589559 1.7128622411804435
Ni 4.645929091381322 3.069308737116483 12.329079990512906 1.071685934135606 0.11900813780580792 -2.374520213118401
Ni 0.5337304866100663 1.6470149109339716 11.231051441760025 -1.0454642814349158 -0.3636144079301157 0.6054919662693508
Ni 6.866567528924069 0.19731782176473064 9.148958907456027 -0.407661261737685 1.0800800717365722 -0.44057421041562184
Ni 0.654244181247118 8.167313048428609 5.310665466859974 -1.306771409253672 1.232176764566233 -0.026320383062083702
Ni 4.941072644997263 5.606238868284283 6.255701690468188 0.9277596929318798 -0.2644911819736929 -2.149636361123685
Ni 6.692367517753549 2.5451084044049352 10.267617359791046 0.2467837373916008 -0.4716873868806586 0.20838482589842822
Ni 1.608654250459899 0.5547465088945278 13.165286564456986 0.6947616964704615 0.035308702603623066 0.438628913763793
Ni 7.128951469265887 3.2002913658222774 12.952868245008672 0.2105826048806954 1.4849329174911847 0.09104636248555932
Ni 7.817405767538744 8.919807226896236 4.277592318309297 0.9638870347820561 0.23824356113107356 0.40510558519536677
Ni 0.6842795642552191 6.920512498467769 9.596713319546868 4.171708981562067 -0.9594153721639476 0.48879345043332595
Ni 3.437898580759667 5.468361927327387 11.993192074940122 -2.2058249925001108 -1.8241982071529745 1.4263570168295048
Ni 1.7268437896309252 1.61317602610637 1.9607070487655587 1.2727176621030725 0.5306378972729378 -0.7675478271942523
Ni 2.8233557757698655 9.155004688968532 11.004865897159277 0.7681702912695996 0.5392228107284713 0.02007594481426865
Ni 8.264503312632382 7.963991313444397 13.749937269041476 0.04907156071567033 0.7279322696851592 -0.914345990629135
Ni 3.0994259958976063 2.825449190421009 0.23377766173556436 -0.9217083445314771 -0.431152917101722 2.2144258467952445
Ni 9.031530440811506 8.459283915839926 7.447105836727202 0.08455612677552533 0.531128463756111 -1.8423831055921172
Ni 3.2996587812632407 3.1205276155811372 7.275525850293402 1.443717105374507 0.8350763090635297 1.6586764991666594
Ni 0.9071472792355332 5.063281540298486 8.233349580997315 0.041205270593716134 -0.2751615172033454 -0.14166932684874955
P 2.1007090381949927 7.20538436419543 11.57934446735223 2.3765007338835398 -2.814381456627398 0.3896116033248258
Ni 2.894438833257596 7.647104159651908 8.855434261170304 -0.1423666100260903 0.8843566433558964 -0.055442240128704516
P 6.123898443219145 7.16599095249346 13.674497117859833 -0.6126602018830158 -0.8083954573382335 -0.8624762983430372
Ni 0.6914157821993407 0.9069491026485582 3.7724941616878103 1.0371346785232975 -1.5618366699277748 2.7290887087961644
P 4.508898820350001 3.7009058934642702 9.802391774225015 0.5876999323932524 -0.07426297237963339 -0.05124362866632465
P 7.718243041530336 8.96740682403069 11.067084041404296 0.3788517937051605 0.9539985720237506 0.7667497567729892
P 9.421947621217283 6.120176817172667 1.6433798126930739 -0.30232727898485995 0.7787298119530007 -0.1086738457593354
Ni 1.8122271952022477 4.213745962668944 1.7541167957060282 -3.209487507407892 -1.7459109441052962 1.4352622897389347
Ni 0.6128485347321428 8.480050589179275 11.411006017204913 -3.5274974872353315 1.3131690852498996 0.4268059529869359
Ni 6.380988370509848 7.120224256186896 4.335084927881802 -1.7876605172382567 -0.8478449215831075 -0.4479581615845188
Ni 2.6487091694737677 5.5187527439967 6.704179028418559 -0.6203166899870091 0.7304645491887096 0.7463984468101468
Ni 5.714417233390282 8.97060742243066 1.008155001356482 -0.5343449138108798 -0.02612420789087759 -0.906564289801187
Ni 2.661520867138768 6.4703911322113665 2.7696238693173276 -0.4653102797097212 0.23610877417625786 -0.9692860943104403
Ni 8.5426855555415 6.45395084915105 5.124296668923981 -0.5545697254981868 -1.092522668375299 0.00038360859166385546
Ni 8.588108001438764 5.827675618049725 11.058531744749489 -0.6636873436631602 1.3142906004488526 1.1090252940160126
Ni 5.617040887884185 7.3520257344917805 8.7710612770706 0.8175431852757726 0.21726927287225165 -0.7245998628778166
Ni 9.051980775936903 3.8087865284865527 10.357451830113956 0.4520858105996472 -1.2624535611729033 -1.5330413429626373
Ni 2.488883938907768 2.179802895747767 10.109955324364561 -1.2033472419290503 -0.18286508436076895 0.7998156860890226
Ni 7.562465079289882 7.506938418676429 2.4131060501624053 0.17993865474259335 -0.670245199386336 -0.8320861160869542
Ni 1.7348825018913179 3.497444597503316 4.088336468967751 -0.48038157222054695 -1.44176306697193 -1.270944886473366
Ni 5.206638575608819 2.1207406903901607 0.8841653079920196 0.5548137231881929 -0.9166761814242084 -1.5621644855808385
Ni 5.428177670090541 4.590653640526007 0.7343233392956976 -1.4249418816495332 0.38594186778272244 -0.2879782093520395
Ni 2.809957922002545 5.485286021773747 0.4819226608235572 1.765424845768508 1.4135575510719915 -0.34432959155857473
Ni 4.551036931261248 0.3635907694562532 5.500751238809886 2.0368883452949755 0.9029444336604128 1.0052288309536366
Ni 4.424724943243784 1.4192793090848643 9.88195827828569 1.881591914581095 -1.0640975802653867 -0.20321099500697262
Ni 3.5825209689258037 1.6754574379941798 3.9051822255294035 -0.8653366506099677 0.6990225286293446 -0.9633722999291666
Ni 8.0533847710808 5.760751477668934 7.7240022578372605 -0.3440904789645752 2.2459360015883836 -1.0428561543881072
Ni 7.549150962108607 5.585351242098424 0.22522443467424622 0.8077976758532347 0.34234624257995877 -0.34990014366781674
Ni 4.606219341465402 6.426401512341996 10.65575597464987 -0.4080528407491488 1.95662184703374 -2.0152795087759485
Ni 6.098154095042633 4.5266602806568175 3.9922654837974543 0.40867247661101874 1.635358136155693 -0.036327373676124534
Ni 6.840413801882446 0.8070848501303898 6.310185365382115 0.4450070493759949 -0.5338327500611516 0.8441990973004042
Ni 3.744327965361553 3.751147845091724 5.188993416115956 0.16558315735186965 0.870801787489597 -1.342623643065591
P 9.150510825517408 3.9309302953319616 12.509307175065697 -1.5033160479840626 -0.23085215376300888 0.339287401148977
Ni 3.7068977113991 7.894899325891533 -0.06508100508127306 0.7467110929545592 -0.06772105749605756 -0.9365862900845742
P 1.8933865552108173 2.2885022885002746 5.900532030348603 -0.29218890499927747 0.13414910721230444 -0.43722509143773086
Ni 2.846076302783614 0.7402677064984348 7.256433908674969 -0.624103410722951 -1.1260889343665186 0.3127014231303324
P 4.051920358102962 6.898601425119129 4.459997584505791 -0.15156293181337768 0.29387991954845516 0.5192759352928992
P 8.434321109133174 1.7889112080210627 8.486061945650848 -0.011142389770064681 -2.240368791913251 0.9461266254748414
P 6.900685535705158 1.5149623147398146 4.284319157388307 1.1577615828794512 -0.19763941445646604 1.0686384055585336
Ni 1.5153530854746946 7.661004432935504 0.772314628384657 1.3572753315404948 -1.3205800330019903 -0.3951155638621905
