# total energy = -381165.21021134773 ev
CRYSTAL
PRIMVEC
9.29151103426773 0.00000000000000 0.00000000000000
0.00000000000000 9.29151103426773 0.00000000000000
0.00000000000000 0.00000000000000 13.59906559897780
PRIMCOORD
 96 1
Ni 4.597207313515413 6.8691211051666095 9.086841230248536 -0.3161212474451588 0.05227721213716158 -0.6322784903345756
Ni 7.119796778172182 9.285880260488954 4.275301059524802 -0.5532288951995763 1.0416963297520514 -1.2751617527681909
Ni 8.410331895353547 3.162718817710847 8.1538499571765 1.1114009933370408 -0.8641290034551117 -0.017866081647143425
Ni 8.63854069496398 3.4314014388718292 12.54406377795622 -0.2297792324138043 0.5055071636435811 -0.6503574593234734
Ni 4.004334584980641 5.972471718740731 6.650473270288847 -0.4918031837939272 0.5041496211744221 0.7766719009827076
Ni 1.3155014070129365 2.214808165560821 11.240334715273988 1.764049562687536 0.43080556106463225 1.595198790327988
Ni 2.916438029368591 5.4530483839977615 9.027563248905977 -2.4693162724543796 -0.3375097404232639 0.28417709043839445
Ni 4.999269573877069 4.96497460708573 2.01037727153579 -0.2863699843246552 0.8734973320438892 -1.0565585915758642
Ni 7.637371102242845 7.02965053926414 0.7366086858025354 -2.143705854571863 0.7299683262785815 0.9497572802488935
Ni 8.06923123811245 8.94462164756228 12.913250814394518 -1.6244841695556667 -0.10604540699755284 -0.29465459293095064
Ni 1.2130903736956369 4.997309065073771 2.8243628727943655 -1.012043796992941 0.3137352637114855 -1.0052332018290107
Ni 5.401694203164455 7.050798018109194 11.22140512008461 -0.35641223375472164 -0.2184059575798561 -0.1601768987346338
Ni 3.4592852631310578 3.6433408028681638 10.388775173021777 -0.710336668090583 -0.5013373485366076 -0.8943757181547952
Ni 2.7800479406310985 7.009738831370929 10.885779950226372 -0.21288039977593662 -0.9923566029766586 0.6913362157286804
Ni 4.043033727946215 2.253860385941207 11.992553139415577 0.6274551008040032 -0.5832228704585052 0.307272024584645
Ni 1.927505356523966 6.710979589374517 7.294851631284859 -0.19275688955318415 1.0029459484567307 -0.15044810148264412
Ni 3.323164628210132 1.0252903550593404 2.849847628935056 -1.5839851810003558 0.8813525664222499 0.03109363608101097
Ni 8.848937668148242 3.081808340653412 3.1073321211399496 0.6223738296263539 0.5550181258895152 1.1523656086748606
Ni 0.4605513924274409 1.5656010063417107 9.355762643240064 0.044352300863130065 -1.5864331283202164 -1.776678050084824
Ni 5.5623723014366435 2.214956829735479 9.829077784212956 -0.46584326939505577 0.731256963183018 -0.17538317416142699
Ni 1.7364068515124524 1.3720216679155974 6.947178159221709 -0.7515362822573444 -1.4267251988022012 -1.3634269529641874
Ni 0.809217197856431 4.041528503177806 10.063812011939769 0.10902274445832191 -0.10802695620395589 -1.131396205512045
Ni 7.060489063994689 4.8628609021177445 8.190567220863668 -0.7198633766340957 0.7101209525353512 0.2917070802668525
Ni 1.8386506376332623 3.158723468016922 4.292993954611247 0.32132310336107245 -0.5191129273524737 -0.18882258749578446
P 2.280118195790117 9.202637614191577 0.16441421481155385 -0.07768279669445977 -0.3129063400522869 -0.10647606677706824
Ni 8.559042527565794 1.1987164063084237 6.671089274709499 0.7653770447951787 -0.3111363926360577 -0.5812611187464441
P 6.750199056951392 5.748388349977047 12.406944305611812 -0.19485928060816765 1.4536613610714126 -0.19677063869826758
Ni 5.876945695012264 8.163084789876017 13.19926674916949 -0.47146652911910414 0.20356400747101716 1.258446239785723
P 8.017310275113259 1.161791941927826 2.567965487366656 0.5295770601085912 -1.5776708087465539 2.091646414872462
P 5.549531433350587 7.941268549775863 7.494703668730433 0.1483768207759122 0.7137145834238804 -0.9711938528561144
P 7.0520152060392025 1.6037612416741505 12.574307645988139 -0.20626623689352863 0.9388187789595187 0.7402833350513444
Ni 8.566763773137076 7.801542808619489 3.070029492265067 -0.07786791612207235 0.7401915466684865 -0.3720885068393979
Ni 6.160829228031993 0.14572341145271883 11.210675283278691 1.1556144546294613 0.6118929846996881 -0.26794597329151276
Ni 5.974841054024337 6.938491525666242 2.812204930760643 -0.1571532814169616 0.43721943501077604 0.6260582204564765
Ni 2.7190212969341268 4.678294329280253 1.003831610598598 0.8874195985519361 -1.7779103798300284 0.9517298305942319
Ni 3.5870249552056572 9.144417006791267 6.178980194606602 0.47784954982731254 -1.0296404270287816 1.1986428944748455
Ni 7.903359185238158 8.176603938258948 6.057758497439649 0.45522178512546757 -0.3268820855060886 0.5141576402297273
Ni 7.8656170678969435 5.560365335078765 2.6887123883257953 1.4798403334596255 -1.0017421579566168 -0.3642949789369081
Ni 4.682717088476319 6.167565573446168 0.008286169434981647 1.4853378662390873 1.3691916233621064 1.7923262981450425
Ni 2.3134747199789305 6.6380876862376805 0.11965700672868036 -0.048898782583231916 1.263814703186488 -0.5993663129875871
Ni 6.9271001332830995 7.080224233180494 8.931880198643027 0.6450255055875987 0.8550080149904502 0.26979459646447734
Ni 2.1820277150488057 5.413782458866306 4.860577977885658 1.570288914460186 -2.058050838305204 1.280610177477272
Ni 0.588053221822588 1.100114892466727 4.490003718867586 -0.7068543659689375 -0.3636547742497479 0.2809066472172388
Ni 6.2861995848229855 3.777835423378771 11.88121760986336 -1.559235999080134 -1.8665766721191854 -0.5629826321522303
Ni 7.896883002129633 7.2165028237869935 11.261984864859603 -0.4401232389211323 -0.34501119100663163 -1.0728724982445392
Ni -0.20322206845484592 8.492004276306101 8.321362890878575 1.0903243751723997 -0.275152518342281 0.05360338714775285
Ni 4.035089486112946 8.14065508252454 1.4215101133569512 -0.7096129025506811 -1.9815548628299935 0.5800527002606398
Ni 6.470143626429099 9.058925814852193 1.907731162992313 -0.3165629629682677 0.5575586329231816 -0.6745515400711738
Ni 9.226581837822376 5.796100258531242 13.587927863336853 1.3220211363238912 -2.7772698964870814 0.3652439731137387
Ni 3.709561401167238 1.9029757677054508 5.292388868747406 -0.11433361514827406 1.3458172103022241 -0.14111448278654404
Ni 8.564682474691867 6.337869677027441 7.311932215801932 0.6939723677999468 0.7213803274992543 0.7892517945302472
Ni 2.2633191440538005 2.1714632671371956 -0.0200176311176547 1.4223172995424924 0.0994916650394351 0.8000709966329382
Ni 4.499116832774101 4.449100629512713 4.121292407788193 -0.7743159991560212 -0.7211743821360355 1.3516561855815046
Ni 7.829417341367801 2.2368011718992395 10.611147045474715 0.3707664455938646 -0.4204789823276436 -0.11652470926232189
Ni 8.371827874117212 4.806935297913714 5.6818258240762605 -1.3306227619499729 -2.636208121315344 0.13236784694216558
Ni 1.0080917683536317 4.73499112889032 7.571904974630159 -0.7220436721148661 -1.6170477678822794 -0.49522789320475996
P 1.025866428736139 8.261974340556112 6.254291607185992 -1.1754633710345885 1.7021319992471329 -0.2568886870360866
Ni 0.21287501914558649 6.434752261349658 4.840464644205567 1.6164607850305577 2.8803845029910846 -0.20706405020447563
P 7.417533953967823 6.48841073689016 4.597095815384419 -1.9013138184900547 0.5855887995875205 0.0646529600936951
Ni 2.7300410288806263 7.575907757532817 4.8638690310521415 -0.6004081239885403 -0.7510608852828227 3.468240501346227
P 8.726587052404982 -0.02724921406365853 10.661395536509007 0.4105902624590219 0.10482361877530978 -0.7305576231231483
P 4.058940794634585 2.9360152428688227 2.289905873389141 0.06322136985349112 0.7534414696998573 -0.5227063011306868
P 0.5999760886301329 5.957187183283739 10.6813314023306 0.09386866242570284 1.3869538324415338 1.2946316885673446
Ni 0.35035778956681257 8.201468021470442 0.9769633484824998 1.2155232151699518 0.39238968029059523 0.5057159372202774
Ni 0.5782107243091589 7.5172876151631165 12.381269073497343 1.871252994548932 0.9555826286814187 -2.0100408860848287
Ni 4.005328776648664 4.945453142650995 12.085067784456134 -0.7452327086368198 -0.8613491267171295 -1.080921336690945
Ni 7.414662877094746 0.8004153495656054 8.58117304826577 -1.3481980518295749 -0.6291988229679873 1.4444233874129124
Ni 2.4074769359171557 8.41540506031374 8.982386993680787 0.09863317369388173 0.005184629524733007 -1.6437530450876077
Ni 6.621474464719686 3.663057389032137 3.0260908662939023 -0.046325879649733115 0.9465464866210795 0.05282100045577355
Ni 4.317309838678692 1.564012157975057 7.65007259766516 -0.5305846754374991 1.2590288517620705 -0.09256382757135026
Ni 7.087183574856656 4.597495350353811 0.5006767823186365 0.21511674530562305 0.27706259088080026 1.34801241818133
Ni 2.023105712339761 9.217801360006659 11.031412304872113 -1.4007963947515811 1.1404300335795392 0.8456350584159823
Ni 7.138556338711796 2.329316746090888 1.138801027317018 -0.614252228960484 -0.31823777956752936 -1.7773902456605
Ni 2.349284203049596 2.9018224826975594 8.384204166657462 0.6099399747383754 1.4601829642400141 0.6221084917801092
Ni 5.969005985169023 4.529249202675026 6.181482398496309 0.33765243664871525 -0.474509429710486 -0.7029468033844153
Ni 3.9857236886156846 9.16635426406419 12.186992871752523 -0.10347430383626696 -1.076227016539069 0.32436523262150585
Ni 6.050408912305011 0.6634008712945512 6.284467647188224 -0.17018388934867465 -0.5464589234655944 0.28394929069830455
Ni 5.0405982144319 3.315266843931444 0.280980865009538 -1.06422022188618 -0.3446232115395936 0.4799653106187347
Ni 5.428732499930318 1.95430207400601 3.695314727479576 -0.6402681934082716 -1.9744203086677419 0.1482688344431382
Ni 7.782811122612623 4.796844717058825 10.462644543106988 0.8435630063783021 0.7875965183150113 -0.342110729530385
Ni 4.789095596954794 9.262279822762048 9.316379645071065 0.7186230764690914 -1.5717230758035512 0.08268127835031566
Ni 0.8027930472090365 1.1140521588408832 1.994724792246521 0.5483525409438814 -0.4953309944415276 -0.22239939500996536
Ni 1.6619075169871298 4.296394647606541 12.582902293585535 -0.08065139240448047 0.41916977659791677 -1.197670503259247
Ni 7.26414040025386 2.419713855793665 5.010874671011283 0.7832865780857478 0.6071058477236899 0.6627316646181102
Ni 5.3787255881798455 7.193887286217197 5.366000863980241 1.5588909570358893 0.5178255759996179 -0.005699364377622442
Ni 4.305082210313099 8.554647642902475 3.7818456394901614 2.1856839987758616 0.9167332599143889 -0.7771542399357648
Ni 0.2750054943393915 1.2039475269541904 13.005181023398452 0.5722689425501629 -0.1148961725199634 0.3014343348569454
Ni 1.6470596825431956 8.626982055384346 3.3370470746698837 -0.6380691288744236 -0.19973563486386248 -1.658815852958001
P 3.8798655047485107 3.925273118595511 6.37385476965442 -0.8927075864237529 -1.5491426193998739 -0.5285162229442446
Ni 4.77787145176814 4.376989213292829 8.451832428860325 0.48341727372307713 -1.2919968220476588 -0.45798829212701125
P 3.1213808856450993 1.2211832797035633 9.52701541008587 -0.9922547872914718 0.7064669007225317 0.8827407050190281
Ni 0.3402727836184732 3.071717759798523 0.9415357465104864 0.11469974023844116 2.0704255578204727 0.33378678304572196
P 0.270448937386134 3.0432950279061606 5.848264659116434 0.42467296580433317 -1.0192523989262383 0.2509226992606388
P 6.357855717007981 2.4498555172055068 7.647515573861049 -0.0254282102651175 1.0766713031653394 -0.3101377761682143
P 2.756233798153124 6.593330478154807 3.05236447171137 0.38000904723805523 -0.6255956789977613 -2.0381278741290316
Ni 4.362875408211266 0.8914991019250825 0.7308897608336733 0.7531632763378061 1.891749828950703 -0.69457452016032
