# total energy = -340891.2168684731 ev
CRYSTAL
PRIMVEC
9.07858103072418 0.00000000000000 0.00000000000000
0.00000000000000 9.07858103072418 0.00000000000000
0.00000000000000 0.00000000000000 13.28742101550007
PRIMCOORD
 96 1
Ni 6.820474716741771 1.8284988662540236 11.50011650951938 -1.3908184576032627 -0.12203355489569305 -0.9206367087338533
Ni 4.514079340321261 0.4164145431043767 5.956791164737959 0.3796097549171075 -0.9535306312483965 0.29773708851101627
Ni 2.6231107573792505 1.7215259449148952 4.80285811145697 0.12071946406995983 0.05594874745147784 -1.3931167667191362
Ni 3.402615889520491 4.279552354243546 4.810206315015646 -0.8329613196030557 0.5134212762843351 0.03322405216045246
Ni 5.1223805896980705 4.676195563384386 2.518949472613043 -0.3031253494061231 -1.1530448941300722 0.06683942622205263
Ni 7.223600032802422 5.992381018445306 2.6795277840344096 0.4362969231965067 0.2543363529278781 0.42113101408934567
Ni 5.170261026525921 4.716195791799917 11.785823088804017 -0.10225662937908195 -0.2658386971405228 -0.47837996840948577
Ni 5.373339807603317 7.743675630853284 12.66879862568822 0.26316757806626284 0.0936647739450129 0.15178764622967406
Ni 1.7427516675738854 6.5739458464231735 0.49548353751250745 0.16948712039196617 -0.05658895213863803 -0.8971535380102486
Ni 2.5541680123525725 1.5669721799248826 0.45143244620115053 0.8858393985490098 -0.7878060632226561 -0.895043176535465
Ni 0.5115381003654409 -0.12525082870839482 4.80427981726039 -0.07513071969656739 0.09754431150507717 0.3438734778577626
Ni 8.783872219860609 2.2685467717304633 1.3999362737527288 -0.30371413203005754 0.4427475639178568 0.9251765055857356
Ni 6.746947288249401 0.5069534168997479 4.6886522845393905 0.45389766699740536 0.10835194364354243 0.3845789259969248
Ni 0.8258567359084521 7.53481379360233 2.725183968487815 -0.19253603179162967 -0.9769168713828207 0.1674448931509568
Ni 7.650910688967244 3.6491175240957276 3.8618958612419285 -0.5013746295324463 0.6068567078273613 0.025454435517362616
Ni 7.627297299473645 3.6581416337291905 12.729881135181042 0.25898722143632813 0.8440242622854368 -0.011922976689831078
Ni 7.677329360026979 8.901376295299151 6.9000784395778805 0.527493180996369 -0.13166182201407647 -0.6210993337893045
Ni 6.986503808267696 0.7381195122467696 0.38310068968386146 -0.15306368472862028 -0.8350755377325811 -0.7647527809476184
Ni 1.9168516177156545 6.517622329153552 9.219570577122369 0.21583202620509284 -0.5332334259142559 -0.41092090632556333
Ni 0.0921112840453871 4.971830478982059 1.4444222290997424 -0.6464372983334609 -0.9972689526766115 0.3188761844824766
Ni 6.2889147135738765 2.1199303987930507 7.05217917194922 -0.046237176590668755 -0.46135386616513446 0.05235614500421305
Ni 3.403387568915707 4.10114915665081 0.23510892312751763 0.3289204560923561 0.34060406307787144 0.14955824267852305
Ni 5.811916982938288 5.664653318587782 4.739170957040767 0.3837829124581907 0.026996840303818024 1.1918109591546764
Ni 5.532986656601754 2.828223140627568 9.319743641202479 -0.924593379388756 -0.7806992769745459 -0.6982943922140683
P -0.006877025198539398 5.6677309575875245 12.622571398482355 0.08046010232928079 -1.4341356323336591 -0.3166457524900611
P 3.6973611041683854 6.087724277369478 12.690829618492572 0.2808948201426969 0.7596465700693046 -0.24118284626505557
P 2.2923508114275855 8.4982963721441 1.4148841575671116 1.711609085499633 0.21739808514063202 0.8874411958184909
P 6.018418389097993 7.692417961848726 5.852510950559078 0.9394407288142336 0.4494031215611616 0.014767645227477793
P 4.729704720506751 1.1276142466135766 12.654381838869368 -0.21807377105141798 -0.8764705557396002 -0.7766009385354561
P 4.201249592081959 6.2441663872324895 8.11452205174112 -0.8783253495601517 -0.5655856169927164 1.4101068735192295
P 4.736368399048966 1.0074501469068209 3.8103404147766273 -0.7300781123835685 0.6429261998564089 -0.17562820029269754
P 0.16442672195821292 5.493040899672944 3.7040810699135456 -0.3167015454286611 1.9443743971249547 -0.8354907708931287
Ni 1.419191036450527 0.9601416606895421 2.7128134938534525 -0.05168328730690454 1.029439366761569 -0.3619452477578089
Ni 1.9389942770677833 6.546691945900381 4.7085570736453946 -0.6729808531499443 -0.31552989371806306 0.1842750773344181
Ni 6.247924919816245 5.9135880129032286 9.424542242363323 -0.6942202221446947 -1.6327458953438267 -0.7317120484425657
Ni 8.763291076461151 2.1719234328683448 10.084262759488631 0.33826461631141747 1.7441970467379833 -0.04575355208603089
Ni 2.219685848141633 5.368927617178908 6.968880466597195 0.5465849075204974 0.04715428908829944 0.3530700567553661
Ni 0.7879091746841949 9.259698813531694 9.019847239626992 -0.34525030360063125 0.14234526986985163 0.36033548006852784
Ni 1.7488070811810483 1.1469879387240496 11.08176278148773 0.15392089052259297 -0.07570870368722445 2.2853651541182836
Ni 4.091889003908222 6.652484651693885 1.5690983836232295 0.5722566012549887 1.5447200648521462 -1.0702692562937375
Ni 5.676246666678257 7.862051250079364 8.398965800391943 -1.1756153232314206 0.8199502520553685 -1.0868968375480894
Ni 5.3366895756211346 3.1291327118560672 4.653839557375933 0.5814459810637406 -1.4227333040339885 0.24387479127492195
Ni 0.7989523607587867 7.747370613369199 7.241325962439582 -1.0477057691709246 -1.2125517912464536 -1.0373313679151361
Ni 4.911721193385321 4.361087091283919 7.3519829719972805 0.6486926700265409 -0.040449623374614205 -1.0356786628030616
Ni 8.39715189988413 7.320477571935906 9.484760470933503 -0.17028313393070027 0.013289260909738403 -0.4437986308901905
Ni 5.115671518250254 0.23049064891168003 10.45422401871725 -0.9847569362525299 -0.1492725931173042 1.4783002426660152
Ni 8.006745675972857 7.098587970777488 4.822961721489505 -0.15718619153742605 0.49726369268786613 -0.018560536611006744
Ni 7.222065752593111 6.3797731534246775 7.223587322788854 0.22324837327382197 -0.7051646369713404 -0.8352421452174326
Ni 2.2606211704125427 5.3529765501507445 2.4030831732085822 0.324891280328305 -1.1596654847703833 1.2344894718598094
Ni 2.2650424394180724 5.084577377913624 11.271705763542332 0.7897505885435366 0.07967077365876601 1.0885878520972672
Ni 0.9744222687915914 3.534100979884116 3.6954182878086663 0.7116006224046713 -1.2190736515253715 -0.10611534100353982
Ni 3.8408480787728942 2.587767841078374 2.364522807758713 0.48691166002958075 -0.5399812861610506 1.0905732579584122
Ni 1.0755939767949223 3.522843539295088 8.045506678065482 -0.5482707798633526 0.08960834448745213 0.32751611954566173
Ni 3.5206646798262438 2.333231662211775 6.823117491705856 1.1079737128230465 1.4801694346642702 1.0856354543371625
Ni 3.8292910450068995 6.985605028736798 6.069202156168078 1.5087801564224272 -0.16911276777168296 -0.197151419076454
Ni 1.0461158238976846 7.1589242209022315 11.386230248657231 -1.0217610242807047 0.2867520502544223 0.5126674288374461
P 0.09651439588867634 5.7575725963528654 8.130612928918536 1.1480551542249646 -0.04755640962272455 -0.18922162270641607
P 8.51509174721644 1.7554889168855037 7.97052576873577 -0.14849946239670556 0.014000942264782337 -0.9498822358625318
P 1.799465563831675 3.1624420259860226 10.541509129039147 0.02605170278172933 1.0217062597833693 -1.0369166489752206
P 3.9398500058885007 6.094288091519371 3.6960419863316227 -1.0326079942975377 0.4979193239939941 0.590290575938564
P 6.843044069406548 3.9313978468656092 10.482778879914566 1.3603984505505087 0.2828961668434418 0.5549566765239604
P 6.809952641223478 7.925565003596171 10.920054186716902 -0.984541220697298 1.1530243253047818 -1.1665740389647588
P 2.370571866359091 8.578850622423493 5.9752606301688616 -0.6820573615299157 0.5060548086169349 -1.0553116065426404
P 7.031533570623808 3.789989867337623 1.8409719288550443 -0.12444010745465664 0.35143766335826576 -1.7084695114293864
Ni 5.49136136216571 2.7363115853668245 0.49473455457009224 -0.03602295506182828 1.0974846403662646 -0.040837859951968376
Ni 1.3332985804724657 1.2643467568646682 6.847273780350442 -0.735553790786159 0.17532609567124643 0.179404122395362
Ni 7.070489762210519 0.5388219602059299 9.028111472020695 0.21410553043228936 0.7376101590945555 1.5404582042519988
Ni 2.6596338892257507 1.9173872540017454 8.93533926726976 0.979822732175706 -0.7051949759886436 0.7786861031992589
Ni 6.349142020725177 1.7217983023485006 2.587964846288682 0.9694169634613498 0.8581187927052898 -0.06276062816698869
Ni 4.145252903732664 6.719983902322454 10.477224603985237 -0.34771444887040764 0.631945532475189 0.10942152255863734
Ni 8.29449130457709 7.220867379885247 0.6411884094846768 -0.6064851834205556 -0.5641817946666542 -0.7177000504341897
Ni 7.760044312612975 4.127014034262214 8.303335658304372 -1.0913502453337527 -1.0964903947737954 -0.4071275007214021
Ni 2.8917550513066157 8.372113173154663 12.51063884827727 1.2232763767528094 0.33696286678085835 0.01777763569839519
Ni 0.06035713086131944 4.858103093289513 10.289579410812154 -0.2934572301887398 -0.4419430657386904 0.14492280078904074
Ni 8.40452370775372 2.549002299695188 5.768587638825985 0.8453216409406217 -0.6921661678291435 0.738850716369876
Ni 3.9940763709193594 2.8139425325255187 11.221227036797886 -1.0035324170878201 -1.2894948815614116 0.3864733148061602
Ni 0.9668053392317572 3.4642776124887806 12.944924578316728 0.8833091759279883 0.5313603772612591 -1.3395352339482545
Ni 2.91415191093011 8.504006799668696 8.093049391675661 2.0425401442641147 0.19147982261297347 0.3488372496209412
Ni 5.307801530496709 7.855160607009144 3.5510234550921393 0.8844378902157929 -0.3278493345153644 0.08425325082312586
Ni 3.019109387260557 8.591297357139265 3.8407818051307165 0.1643351438773815 -0.43786555323520715 -0.5653459901780844
Ni 3.453564886766964 4.319053260697467 9.227782153745576 -0.14086919954495739 0.3694952921909249 0.1564940505664079
Ni 7.194766459164717 5.976784016080829 11.466751816044592 1.141111633027596 -0.5548268358143155 2.208223317528958
Ni 0.6293735440148693 -0.04033250448452953 0.2576374221772543 -0.8001674130014864 0.398713565626094 -0.8047138947215884
Ni 4.696803942527204 0.22201942486843632 1.5143145937115912 -0.9658205043593431 -0.38725724416003626 -0.2734795015152322
Ni 6.284938295043235 5.409663210665174 0.4740898611027938 -0.08765147787139743 0.9619643638380464 0.3697382614396665
Ni 8.61231427243249 9.096465924990785 11.176621244180085 -0.4230182038097295 -0.4995761428711268 0.38155916533399453
Ni 9.113624443307932 5.163533797915865 5.832659725081684 -0.39676878319489733 -1.153394307049691 0.8523685204850739
Ni 8.028352699038894 8.901013152054343 2.2963717150057152 -0.27273850958414964 -0.060541766138798955 0.9165789937247119
P 8.541174510774729 1.434343188340114 3.6047713788979645 -0.3316751360193578 1.1517336315178164 1.0150247339981358
P 1.982980002595075 3.243068904914377 1.654815622985671 -1.7231880485864837 0.35997244030215425 0.5061787357893088
P 4.78295967735775 0.851402955322538 8.39411602235754 0.012126865170521051 1.3702578598430917 -1.1411345158457316
P 8.794466924027864 1.6940360012829783 12.520604406772897 -0.34236835406714583 -0.11167972246519475 0.17398012316631326
P 6.341670348463266 7.68873205791393 1.4902636166079997 -0.6596100882699931 -0.10711575724359615 -0.31367715678004043
P 1.6687158385387848 3.417223326542867 5.8910449881237 0.04055863814865273 -0.19335030016280894 0.28008183732309827
P 6.788636132753285 4.100867720636084 6.113329507560844 -0.01691143104335797 0.23426297921677075 -0.29806644682597694
P 2.500631619486848 8.367819004284815 10.331541520607756 0.3665624348148461 -0.16281459346779703 -0.9433367214345302
