# total energy = -340860.6994312662 ev
CRYSTAL
PRIMVEC
9.37473120300358 0.00000000000000 0.00000000000000

0.00000000000000 9.37473120300358 0.00000000000000

0.00000000000000 0.00000000000000 13.72086672795020

PRIMCOORD
 96 1
Ni 1.2156213572840149 7.171031665535405 13.754619255333866 0.035719564888796546 0.7700322841790028 0.014857633838122799
Ni 2.197624420255408 3.652235792664289 11.474280646773895 0.21461460885822392 1.3042815529522829 0.7317734978081204
Ni 9.288886500465528 6.5205847107082535 3.115679631260722 -1.3079782850775798 -0.3399386615797307 0.4756972793710001
Ni 9.070145904109333 8.680813329358001 10.165474464230353 0.9546248927538399 1.6408078464163547 0.2612492779976275
Ni 1.0295516981541226 1.4100626511178063 8.720584687776615 0.3261943154104447 0.34287666116213206 0.667537827757502
Ni 9.057443143724356 5.270248724859245 12.453867841589418 -0.7516949193223957 -0.09795003158392808 0.31198459956896596
Ni 3.680153741318502 1.9280352834356624 2.6287392332058537 1.480862861186869 -2.2282038744159434 -1.6173655562330145
Ni 6.171732224032439 3.460963157878558 13.352268929238935 5.097590740744943 1.39639132370535 2.6862883258011867
Ni 0.8643305030981404 3.831518146614312 0.5929198560623056 0.14846063873897014 0.021745876317523838 -3.9705998633894453
Ni 8.562129236019407 2.9651055157807447 5.149180637449875 -1.0332991068272914 1.8957373528435417 -3.1303677211565892
Ni 8.618818233840772 4.407042251997384 9.057541578398927 0.3840076268744871 -0.2707191651612757 -1.326154184655658
Ni 6.365123548004152 9.136922112391387 11.226563694643588 0.20038869506682908 -0.9067573796485997 -0.8055376761744644
Ni 6.189834829422394 8.091161504491417 0.029783520105585836 -1.1376699543358988 1.789986594268272 -0.3711935058289542
Ni 3.449150996930167 4.903621748375376 6.08947177270399 0.11240657332889027 -0.2842130858826525 -0.5831346816200731
Ni 8.038756758696572 6.73300673843015 0.8632945953324284 0.8378536146983507 -0.06268298085151786 0.146354905249877
Ni 3.569381920869146 5.867906569924183 10.28624537266983 -0.8750651907516414 -1.1559980632211253 0.8862487181722867
Ni 4.204463691732479 4.183979904691022 12.972681387270026 -3.5705912331010117 1.2161325666191765 -1.6885511752389046
Ni 1.4907040864178533 9.177983433783414 6.892759652945502 -0.27473317141667525 -0.30829506653252065 0.7919218851632426
Ni 6.426059298928392 1.9593843836034555 2.692541776842805 -0.10528358913086384 -0.37648509324519674 0.6014710180354158
Ni 3.6020528580954503 6.627053529669267 12.910045060158454 0.3075844136187412 -0.8636088692855836 0.6371646147822834
Ni 6.630634676877429 8.784310358620093 6.696660906686571 1.1277565518769288 -0.8549496509486888 1.2309822300374993
Ni 6.650584104256935 4.431894663643562 2.1771725072990513 -0.12036722293686367 -0.042900656018268056 -0.3351384119776099
Ni 6.917426444919633 3.8251902032491025 10.585346162398729 -0.4867743631207681 -0.650312465018151 1.0874858772823401
Ni 4.295304834264153 6.521109695639293 1.8242991985353287 1.95870983991102 1.4790042107115755 -0.32629818797816057
P 1.842490863868942 5.304494616878667 13.048927948718799 0.1857262079586479 -1.0369287331600787 -2.1781000157810166
P 4.71376469795727 4.28091462231512 1.2707569621933577 0.1851255982601715 0.2542471356481815 0.6506132840880214
P 9.066358512821118 2.8198346855773586 7.118454424691789 -3.091317806342979 1.0282605159621196 3.6549175032539187
P 2.0752185587449787 8.723458980274058 8.990665997969211 -0.3738085748542982 -0.7895916943681692 0.1874611883718836
P 7.356098228457775 6.821701067583109 11.97109919879013 0.9705418210944124 -0.3431818511073767 1.5339733678586034
P 3.9680517276082536 8.591406520655775 12.381064618804409 0.30221723576955695 1.423130025251775 -0.19857092513179994
P 4.40635789664085 3.116498045269289 5.031592450154826 0.2466947772222203 0.47610145678795424 1.1028446191265975
P 1.125623940534369 2.1896933979043456 4.04400579745259 0.03575427478147391 -0.5347385497048727 1.2763825125491695
Ni 8.49963727976387 8.3856499266119 12.654480520782196 -0.05582507738941999 0.42527794637818367 0.8278939323824773
Ni 3.1840429814860807 0.7371266543072454 10.231554130005689 -0.2943008091359577 -0.12089404197461116 0.24441266605626294
Ni 7.477754111495291 6.380076243807869 7.651495999476664 0.21933026916633838 0.512933023794007 -1.6561835575414767
Ni 8.946671323275002 5.286035771714079 6.171865345211382 -0.7260350526624464 0.6652929975873833 0.546254263653956
Ni 1.4182561659343886 2.272725389586805 6.444608141509729 3.5946840123841577 -0.27571764681713157 -1.6535618036479132
Ni 8.99467932027239 4.209413549653709 2.4768770296986466 -0.38167923585162655 -0.32997229439563813 1.0783430344408074
Ni 3.5626133651511003 1.6620366685549912 7.88484711395831 -2.1150290554624607 -0.24845212623295918 0.8093354526539998
Ni 9.244600271639973 2.4753976971608247 12.155288286899191 0.1691186813089539 2.289148532420116 -1.461309878755606
Ni 0.38523675481613134 6.848362802295191 8.535216258518897 0.2386675360423696 2.2811596006773684 0.19503797227787703
Ni 1.1361986370024526 5.492026734030742 10.456411738281586 -0.3332666488761938 0.25046401445666544 -0.2528451130943323
Ni 5.705142491840085 4.922249338696371 4.883297331759415 -0.34026493457089785 -0.7770773639512424 -0.23533744322787212
Ni 1.8194384005577566 7.777258014653382 2.464940184829134 0.32626939162275426 0.04962151968186938 -0.08084319670031238
Ni 5.979222124766401 5.865825379661847 0.059922342512714534 -0.15472461737081095 -1.1160348925646262 0.0710822606588066
Ni 6.404656788257616 6.757043548487036 2.830971865900127 1.1886104499395078 0.6960040535179949 -0.06618610890876989
Ni 1.250176615423514 0.030520373955223556 4.550717502999647 0.2236587213383632 0.168437081860897 -1.7189593552171167
Ni 2.9304377608703085 3.843133438213563 8.362140913905327 0.2832761758906799 0.5179939832566821 -0.6051947467439062
Ni 2.612887500707731 5.406388567154907 1.3456929362607135 -1.8778851551534692 -1.3761762822100556 0.03391799290368352
Ni 1.9289540070649815 7.686388747928975 11.430825956580184 1.093768110746626 -1.120095178676929 -1.9808786626985757
Ni 5.128577791325845 8.896788380095328 4.879853993095649 0.08272061622868335 -0.6526413702616437 0.3637311360136381
Ni 3.4531352575675207 6.252898644263526 8.108537568235736 -1.1646092019289038 -0.6341176004258434 -0.5386108881760853
Ni 7.292565677071073 1.216849447033411 12.756906955774205 -1.073075358283965 0.8376258149582605 -0.21588576226116368
Ni 1.1172898047541155 9.416542211286353 12.426686746784842 0.9063375185023615 2.2272553944597444 0.04867586793914843
Ni 5.055033027325743 6.857896903632107 6.485249474956923 0.611830764003185 -1.2301566488124105 -0.9971571096890955
Ni 1.8224758133730572 3.2029893126580635 2.3378300833473533 -0.20915332863333655 -0.32090709886957636 2.3762973596234818
P 1.4406336486199516 1.8386940978498163 10.854124384994638 -0.08206112826781352 -1.0925517218410215 -0.14636673232441888
P 6.341311731489141 4.91815258128808 8.791961076516904 0.9529161375928492 1.1777279986990492 0.7190177408043489
P 7.077518724693976 8.564604164980022 8.831490566878005 -1.5711216947741264 -1.6193422203434111 2.197306156395822
P 0.322605115070016 8.759120456661105 1.1390279307915196 0.04281503828299723 -0.03474100302561114 0.46271397973745465
P 7.6895292827843 5.0432489905700875 4.118126169930652 0.8955923641707156 0.39143811501060327 0.0014765845455264892
P 8.170556100580244 1.7572933093459442 10.462599998156216 -1.048550119449091 -0.5253722779986242 -0.7905216623816064
P 2.8752205958020363 8.374025260281735 5.321953178255008 2.1304592739746018 -0.93502254514188 0.33118225554333935
P 6.741181503784911 0.9405292534192649 5.15325583297707 1.2173186165074776 0.8750068267098803 -2.1215329180192497
Ni 5.6764183163274895 1.1726944644406163 8.930801778788148 0.5880966536110388 -1.127277041137349 1.0482580421299688
Ni 7.925678754443006 6.750274992768989 9.885115636539567 -1.280886313956794 -1.3937608280610383 1.681313519839885
Ni 4.047727565624424 2.9373281880902034 10.174530454290785 0.7643871700780835 0.2654455754671622 -0.27719397425234193
Ni 6.98414640481622 3.9891542468898633 6.702615735761505 -0.35027963849442256 -0.46912091170506304 1.1135010703991792
Ni 8.839583772073834 1.6976137723638354 2.6776275174358246 0.5398727856076444 0.17011009868794574 0.5799040904979175
Ni 9.253975002551394 1.3437739288431454 0.23058369391659456 0.7615723263371077 -0.44745833912996485 3.399103280228933
Ni 8.227873205372676 0.6592610768300704 8.187446553263353 1.2575442967967438 2.4202866207202383 -0.31071755993108424
Ni 4.072176863841411 8.586250418654494 2.9677548147363124 -1.4623794576707008 1.079229550810819 -1.0768875329412033
Ni 8.572497688407438 8.744636497402958 3.7332972159091677 -0.7765441171555916 -0.34873029172943165 0.17119844665611805
Ni 8.814703236234923 0.8728315090886174 5.718445235003392 -0.44575755438877424 -1.862625400780921 1.3198529250279787
Ni 3.309298761193582 1.333480474302405 4.849104875706187 -0.7091485613197529 -0.7727345136015144 0.7053554128259079
Ni 3.7498173667212744 4.0916763041371675 3.246082138238594 0.6065641162876069 2.5366493504833993 0.5495966977636277
Ni 4.423710523557891 6.711482356257528 4.143976052945805 -1.6853655784220716 -0.5847773594298187 1.2178672899220961
Ni 3.875907497479892 8.456485393378598 7.5248799463139155 -0.977909317203077 1.7428112221340502 0.3692168417185577
Ni 2.858458576932415 9.290602076222319 0.7668098647920792 0.3941130907396051 0.15088750301290788 -0.6586698358439108
Ni 5.573080657490891 6.971968629362283 8.812377365495799 0.24951707716236385 -0.6494097506982235 0.34198705946832714
Ni 4.3877865547053245 8.130207258737487 10.271261740254104 -1.2899975322294428 0.5601536473438675 0.207554616687649
Ni 7.133617114467922 7.045175903049573 5.208619243847561 0.3819751698254905 -0.8735351272603602 -1.055711927304853
Ni 1.1652978017515045 4.348403310146443 4.962851298273737 1.9732399152063949 -0.2824122852284878 -1.6472014086475246
Ni 5.179876318873143 1.1650259345550733 6.539749473110472 0.06679546035799463 1.9713480975003213 -0.47692986622652056
Ni 7.681298269044073 9.26034981957116 1.5660309867642157 -0.9979256124240039 -0.05124928509327948 -0.3152051633887926
Ni 5.528850677050804 6.214124757213887 11.402986755665628 -0.4536343860336897 -0.5939736812171061 -0.4178888530029642
Ni 4.868794623039445 1.6594867417470847 0.07136513906319553 -1.568503797535305 -1.5465362921252785 0.6714227646342049
Ni 1.57562977374442 6.707141855845539 6.568109909063704 0.5091475886096457 -0.1574564144796772 -1.4708805531631766
P 5.381761149050603 3.133269438869822 8.204954800713523 -1.7855085038922602 -0.9054183491222019 -0.791618752100527
P 8.216473532584388 3.516020952521336 0.3986088709881828 -1.3721532770935918 -0.31026890242943983 0.2387567533220662
P 2.3839284476580858 2.067953142288627 0.5595326893943694 0.4472642208412878 -0.5414337023368611 0.1273325985111033
P 1.9426973625811255 5.79144626461063 3.4777458011561846 0.6326741831110976 -0.3198542321250298 -0.07123009909058055
P 8.880204481113024 7.9632058022814265 6.22389510176977 0.435547703735308 -0.3129634185424675 -0.30933713464378987
P 1.2224555361184408 5.020674638535384 8.223820509199667 0.4592802714655574 -0.5063219462353925 -0.4955212560754627
P 5.407813526253443 0.26454834400867433 1.8134179483664419 0.537402726800597 0.23412851052143552 -0.9171708616724398
P 5.278704732141347 2.6220184886154554 11.803128395157827 -0.18304429025111058 -1.9211262252302912 -1.6415586085394502
