# total energy = -340873.58342382853 ev
CRYSTAL
PRIMVEC
9.21497305025060 0.00000000000000 0.00000000000000

0.00000000000000 9.21497305025060 0.00000000000000

0.00000000000000 0.00000000000000 13.48704452279106

PRIMCOORD
 96 1
Ni 4.194287038490117 4.399780932853263 4.069729172090242 0.3792017208454115 1.0506321987891 0.5054662831033166
Ni 5.627160025490253 8.498960236647324 12.237226835632528 -1.365051633051804 0.15195553926610605 0.7438800512636672
Ni 2.7714122970228954 8.19622994886176 12.599825880471363 0.9077752793901527 -0.5918592059772646 -0.3665932880527816
Ni 5.698419410472774 2.4151890918930237 1.5188975229664274 -2.18818388237958 -0.05421016749381632 0.35558485275741986
Ni 4.28456612741728 1.0509031477514026 5.884680735018641 1.0078148465132577 1.5149742010482814 -0.7147329973860659
Ni 2.7870408909619044 6.8515903268179965 8.741142623881208 -0.2730436995293942 -0.28323118158535737 -1.0882898612408742
Ni 4.396481972576043 2.5860807632367258 8.0545838368248 -0.03894372825304906 0.3755363561786823 -2.881007995507696
Ni 7.945628762439978 3.531269742551625 4.103959110206894 1.0121240154115732 0.24502690260149412 1.1655006033949218
Ni 8.342434707963362 0.6892827330283248 8.94901766722657 -0.4694343291804238 0.9995783175360785 -0.026243249967245127
Ni 1.866925852748445 6.384068679709736 1.7820835977977056 0.5181716464851269 -0.5896498570307716 -1.2736869679948775
Ni 0.7393744038968729 6.621381875294225 13.062916968637479 2.5957430713217615 1.194825320500968 -0.17674560172659237
Ni 9.41945308874728 0.3167858858605464 3.920171084371658 -1.2442270108625475 0.439876670127965 0.03976468149244765
Ni 2.1266037874190036 6.268181181256331 11.11746480332379 -0.7586189001357386 0.6781706248809998 -0.870049739814921
Ni 1.8659398506544156 1.5583809170999594 6.822704151452071 -0.3731439446871057 0.88758337782331 -0.9145943591945153
Ni 5.69133309635774 6.375931858690783 13.525212804647385 1.1879100814383736 -0.29073108950682836 -0.34948311073505617
Ni 0.5722221685322102 0.725986891352892 11.907576847685391 -0.21197151480842205 0.36003774632245095 -0.805103159740207
Ni 8.952502769955187 5.607329403935568 5.209600118133477 0.008435275251546763 0.016478457270997428 0.034853360233759324
Ni 0.8254956970779981 5.705837463610099 7.58176910931644 0.7559742634240401 1.4976771045307304 -0.05852550703971855
Ni 6.137282492044292 1.7848480896501246 12.863187039786627 0.21807145705857284 -1.4672851225024344 -0.8830469234055371
Ni 0.48238724129600213 4.352222458018815 0.44286975176295656 0.39533667873406103 -0.6602397514341919 -1.1516868374402809
Ni 8.479903672811316 7.772110823836478 11.58797394462723 2.2735643048286134 0.5464188142562783 1.181878273421997
Ni 4.180353999553925 3.8300191620697057 0.2302296459613073 -0.28162681321271493 0.108606997077142 -0.8713823425834154
Ni 7.535848135155908 5.452987823815015 11.172680920589437 0.9868690974995262 -1.2838608232040858 0.11893614691729192
Ni 7.389376141841908 5.193973367189036 8.353712913223946 0.18243031081619548 -0.06810980829404399 1.4034397459116992
P 9.05855789238682 1.0236360431137097 1.687296544156531 -0.26849747491960857 -2.475128508260782 -0.39149133684604187
P 2.530413112301848 0.5536834861698883 10.985844581738268 0.20592890815876794 0.10027996526868535 -1.3233501395479597
P 0.6833777784315578 6.724101177557274 3.4562036522883237 -0.4365028685597257 0.04988685752811408 1.9812216478602913
P 4.806400824452734 9.60200170073535 7.8386972960911265 0.5985988386939433 -0.9957545729146142 0.5019220173954839
P 6.714453100992332 4.315648230811312 2.420560499562274 -3.6354534809920356 1.424483968176508 1.03158906611472
P 2.816971122750761 0.18904056035483238 4.500923553263148 -0.3260325930215998 -0.5026465542663343 1.0666769109567886
P 2.2025720235234783 3.626239252655059 8.277107000998846 -0.20582400714978746 -1.1641044943783434 -0.0960705551730281
P 8.111295544182607 6.023790886529651 -0.025017729767107873 -3.1587614418079344 -0.5764346438920782 0.06844199482248213
Ni 4.324697334141563 5.484374021312812 1.8373669843650966 0.14551569717803325 -0.1456941317374265 0.9394013909358659
Ni 2.9171655224552673 4.068346004666749 11.501481288040596 -0.5575745737627816 -0.7801421189194951 1.022857085558361
Ni 3.7565666135509326 1.224365796517854 12.530043655635316 0.9280818521579888 0.9708480394809215 0.037142413378252165
Ni 2.135689750640621 3.8567149383912316 6.086892256055681 2.6580432149125643 2.242923954234937 -1.1429965087551346
Ni 8.166299717072905 8.61188972881864 6.154367973189525 2.2023308633039234 -1.069122544283804 0.07222537312431432
Ni 6.032065932141224 3.4849092141865583 9.862899697810109 0.20191181657957485 0.5513622743044827 -0.563029683340082
Ni 8.898567533914491 7.505383434942251 1.691585192516917 -0.37415464533980725 1.2036809711193852 -0.22722792674686026
Ni 5.995694434336231 0.7872231503758252 9.644464295588506 0.07432133642139459 -0.2172620737834 0.00037743794407676934
Ni 7.926931582544784 7.745037233628454 8.377302322200638 1.1777189998379847 -1.636459082529356 0.17858034094248598
Ni 3.848052863920319 7.842854170339881 1.602476405140611 0.40570465223194646 -0.8816343593287268 -0.6864076680788114
Ni 1.9570943620015113 8.691064775471922 2.74651528340001 -0.3007105693170434 -0.3671905553171482 -0.36730934028319967
Ni 8.688696527451683 1.6142052225731407 5.883601661698914 1.2395501742121686 1.0622265884949191 -0.7949205627802504
Ni 3.8692749463740554 8.146524385355267 10.306084601644242 0.8382994439865176 0.5254643234917983 0.1944373625794006
Ni 6.728201840471695 7.402295533765545 10.541028627711206 -3.579092585703804 1.1668069809111712 -2.769871547140481
Ni 1.1785765964689539 9.006143126864957 0.4917662406539757 -0.7370463161712856 0.4500831783473216 0.5893577797116496
Ni 3.3424273041128827 0.9606701336884461 1.383029198901022 -1.6428431316788288 1.77265504496836 0.13261235885280387
Ni 2.6857867693806377 9.382593197381693 8.347279940683368 0.9681746064138164 -0.12364769346034833 2.7336058799402276
Ni 6.771668867364564 1.9700137539251497 7.043770428419894 -2.192890029605998 -2.4894392684564997 0.4363408890605646
Ni 1.4426592881577 7.510488529896384 5.488404650433639 -1.488032896572747 0.11059523115176438 -0.4421083876719612
Ni 5.54354336192742 7.3964163810927355 8.158583098815518 -0.5440860523580435 0.1298859610605763 0.5051963172713816
Ni 8.253676089555027 2.7312995202442956 10.776931010953678 -0.41684421378853376 -1.2501292352795954 0.13016569708452422
Ni 1.0553816245523213 8.623436089788912 9.900758492231702 -0.5518019329450626 -2.2998013841482714 -0.32741918895648126
Ni 4.370873563049802 5.948163604420307 11.61498855900907 1.0339148860344194 0.37390653388474315 -0.23704002774127564
Ni 1.1503972095199626 2.5584911345495835 2.2775164761452733 0.6009981921640554 0.33003837174688316 1.0974838690353164
P 0.7666608599775327 3.055565199560204 4.602251394627147 -0.24050664613363743 -0.6486682445465086 0.5103966305253984
P 0.7308754344452529 -0.25899141919387464 7.454936987619309 -1.0736294310152221 0.16135857774756082 -0.04283689265986816
P 2.988802721324285 6.1239299963971074 6.367382206888535 -1.7716533431767232 0.06629692345502129 0.2309477988006087
P 7.75852795386826 2.9123460916592165 8.585056649401778 1.2726865517548211 0.5496154668167049 0.5592992697633722
P 7.258799976679317 0.48069352928775344 11.454829566533741 1.568024029685409 0.1267075633325947 -0.1958851507695207
P 3.039844455892781 6.13773402571352 -0.07251907176993952 0.5984774826247306 -0.4729935072865918 -0.19933479988101802
P 5.005398162962695 3.1534927159457267 5.778847693432485 -1.0406971990635754 0.9681560944710551 0.8666905935347009
P 7.12897943928972 6.34754052736644 6.543927264070433 0.04237563675273347 0.9932778292393473 -0.6031216662649613
Ni 5.992542913624474 8.349235357920312 5.868388663035052 -1.4905921726594908 -0.06585006572558981 -0.04453484918758136
Ni 4.727142843043881 0.4348739198284767 3.234476661767773 -0.369059490205087 -0.5045409430755697 1.0836477344831725
Ni 4.900061808412689 5.436889266261095 6.74883600765815 0.5357777896026643 -0.989233998187277 0.09498015032232675
Ni 5.820204491544673 2.6188860665520974 3.8671803830472062 0.003502099615987517 -0.9618291238117629 0.23839011401126686
Ni 6.9613130084405075 0.3769716379795606 2.3883532479843086 0.7424667158559085 1.639488613384299 1.7670973483749244
Ni 7.52424648434859 8.9776596458122 13.79549256557197 0.6216114975390327 0.0551938715633243 -1.9211084846184785
Ni 8.522016098696499 5.256837911913045 2.0929331981538244 0.34736760705395014 0.2800000762425694 1.3785062158948131
Ni 7.706223768020492 7.469592480426266 3.9005477997059033 1.46386581240824 0.8414223058862154 1.1143130247775133
Ni 8.570643510380549 2.2774805377511917 13.163691911630993 -0.2600202906865328 -0.14529792474027234 0.1810894805175849
Ni 1.1539910489281073 1.670333622150088 9.376435752529073 1.2237291480195118 2.43348666435028 0.41166446935980716
Ni 0.41019622255921634 4.223194408293578 9.484008580987686 0.32572637463509063 0.3171694862040151 0.8322843481406892
Ni 3.327821572159269 8.282436019793026 6.550172251165048 1.3021513939831573 -1.4518160803325577 -0.9964737104688258
Ni 7.884496632610152 2.770988408272191 1.868468439202095 1.7592953358320025 -0.4806276267930819 -0.8264528290605767
Ni 6.748023247053539 3.9771730633739697 12.954157251676895 0.35195882596905836 1.3267982459975602 0.6810055232266335
Ni 1.8437317661066495 2.419538559074163 -0.010791654694559663 0.649574558410862 -0.21740888377390946 -0.34648880399342263
Ni 1.9110010678488454 4.610472071898957 3.45825306224825 -0.6960305358805561 0.5124797383066723 0.06789023608407017
Ni 9.439633879269941 3.56119075936764 7.082478843337465 -2.836014461516142 -1.114508685728087 0.7433774005956358
Ni 6.878728421835911 4.070152139343662 6.294956206344294 1.1961692361233722 0.7041284823973422 -0.6879978953840667
Ni 3.925541570543624 2.1700800292847133 10.096738848633391 -1.322495504857148 -0.7774509452405771 2.5244209267380073
Ni 2.953168421346604 2.400629434803617 4.26024689259155 -0.40149395658470854 -0.8525775511720864 -0.6866637499536755
Ni 3.2487847500986096 6.9463018176818725 3.843861894272052 0.6034906195686058 -0.47022134385809344 0.8872933573867171
Ni 6.453365275477039 5.543700016465724 4.411585313063092 -0.7452555914549552 -0.12733054162857427 -0.5422507989215177
Ni 6.406101679773516 7.390408218800145 2.063827706434273 -1.048243901062582 -1.0293372939660659 -1.2724649226623181
Ni 3.6937942185553387 4.728451369187359 9.428657925118554 0.3085010118957397 -0.04407770704550473 -0.7306864353915287
P 5.6228842780918455 5.690190439725407 9.709322960435394 0.36335189829734843 0.7810147513324356 -0.303706932941206
P 6.972131386556307 0.8514791559988845 4.762814924410211 0.46576922162401074 -0.4158425119968967 -0.8187109803316288
P 0.3681483014839233 6.461087422718129 9.742109833805081 -0.6625295759096332 0.1402750176043842 -0.1049866267157353
P 0.9947931781201381 3.207907130574174 11.649366858188468 -1.568723369745279 -0.4339353649428656 0.1898425441198666
P 5.023330500112053 3.3664230933918797 11.76105325052348 -0.5007956171005247 -0.8180946869038684 -0.21652930938243353
P 5.139927551474246 9.337163381273609 0.8299861533436108 2.6177586563609045 0.03947671793838362 -0.6305249979785785
P 5.377452691434086 7.520431485592252 3.933981564169059 -0.5265475292536481 -0.45641194877882685 -0.28596683534896555
P 3.3239789284844066 3.1947481493566596 2.1125297593983383 0.10253585118239761 0.2729709373099299 0.6250642319743235
