# total energy = -340890.69266864646 ev
CRYSTAL
PRIMVEC
9.07401909320928 0.00000000000000 0.00000000000000

0.00000000000000 9.07401909320928 0.00000000000000

0.00000000000000 0.00000000000000 13.28074415881705

PRIMCOORD
 96 1
Ni 6.523393985278915 2.1659048370908973 11.470140858728444 0.12657875106421426 -0.7877415285333078 -0.08458029514524143
Ni 4.269389496906599 0.4581499457301661 6.013919572808821 0.6842921643977053 -1.2920862964376714 0.9267857590543845
Ni 2.8890769359862705 1.740287971980699 4.5615239116913076 -1.6927374454061104 -0.35626388110231544 -0.224836029475916
Ni 3.622248603911628 4.635371908600226 5.120218525875873 -0.0101784831948986 -0.8159928100695173 0.04052572802818827
Ni 5.22803239101804 4.660815458110279 3.0012889781781955 -0.20686684659200505 -0.47542577087716825 -0.33692430023343906
Ni 7.289858229221527 6.077142800772904 2.7146770114076864 0.47563480156418086 0.5613628371606203 -0.4858017147948536
Ni 5.090624520037041 4.831016834058941 11.454190547983517 0.3113204836224058 -0.48978769602579514 0.36735819124326413
Ni 5.588307244708164 7.468643627223152 12.459303308625227 0.6367871768382065 0.0007592467635277248 -0.38484606361538237
Ni 1.849838604375442 5.885245445195663 0.5635047517007122 0.6980498803034301 0.517633771703786 -0.02997752019869676
Ni 2.625576495821362 1.404349637472443 0.3182049790134292 0.7897179355333883 0.7849822206206158 0.1701761760391908
Ni 0.8935495108142542 -0.46866854865172547 4.636055182237212 -0.9469164683659885 0.8719251024607629 -1.0015781215749266
Ni 8.798958342993556 2.0383785728917987 1.651142086298957 -0.9875216434818606 0.34610262429859745 -0.5862647426086226
Ni 6.900174479681873 0.9634702722638467 4.834071148882438 -0.5015420083482459 0.34502507496370255 -0.7373965004218526
Ni 0.9268112351666247 7.2760657202146515 2.2182964084750414 -1.2330301137054636 -0.039685748625396165 1.0006268134052507
Ni 7.623918241779505 3.8275482856751553 3.7967918979917306 0.0937899866689675 -0.3214506300778722 0.7801650017376306
Ni 7.729385565586686 4.030171131809058 12.590981843956923 -0.09542906493428727 -0.35249155854407677 0.6221334314807736
Ni 8.168422904921337 8.972907288823691 6.415569231313848 0.44299721803481773 0.4421605810661353 1.3664338581113111
Ni 6.796059184718128 0.5801637433360564 0.32287356183187493 -0.0261036390655873 -0.19298160396948055 0.20074093619992525
Ni 1.7271306443096666 6.773210804665949 9.265763088125537 0.8100350498241856 -1.291385670826221 -0.4264074319969366
Ni 0.10537204660680474 4.409074946677549 1.8179878899905513 -0.02239096610069047 0.8607102075815499 -1.1157914090952525
Ni 6.1062704020308445 2.1013613393501696 6.85509475287519 0.8364261382232047 -0.3969248491567874 1.2726736962390146
Ni 3.353639491002725 3.9405198232643666 0.22450393575178462 0.540467738879166 0.3851018883799303 -0.3264984769144248
Ni 5.913175275934586 5.826509319668356 5.081943405979884 0.4421441260059031 0.5277736883512653 -1.726125533948253
Ni 5.241280458879906 3.2185454948880117 9.20048822444668 -0.07277404653893273 0.12701738126352963 -0.36912968132139007
P 0.3103650265253104 5.554933002519158 12.45660741755553 -1.0755323044648897 0.18702615771699405 0.053171956037289074
P 3.8648788001845538 5.998026428384121 12.840367647437493 0.21528515256268732 0.06813423377407621 0.3520297884163099
P 2.4083444789630706 8.301901725639192 1.0972231283580232 0.19239950621376542 0.4890963263857254 0.8122143168636915
P 6.267778867697542 8.064861125121684 6.021090770090488 -0.44493351582558216 -0.5329251506452177 0.14979169884556784
P 4.895514961704252 1.1878616901789965 12.577887127017567 -1.1319284238664313 0.21823317944741769 1.4964483743299517
P 3.9242682550858703 5.991139247899767 8.529106089470218 0.9757956132941839 1.7790228961679169 -0.754196602698327
P 4.749432328479456 0.9426091023909474 3.9000097724681195 0.24973999180644735 -0.6353422168615639 -1.8133255261045287
P 9.405493000589995 5.567137558186427 3.682178870350319 -0.6019489861130988 0.32208569255870984 -0.18522252884935198
Ni 1.569406044600777 0.9081459779119253 2.470590435071863 0.7598584289697946 -0.22299383406085466 0.6162003538257903
Ni 1.902123102334401 6.470710230480283 4.977516872161577 0.3423611549782942 -0.22066184349356838 -0.06364251655130976
Ni 6.11692330043484 5.894500944660804 9.421133887284174 -0.7526493128158651 -0.7383475514812122 -0.4126689993649215
Ni 8.74357053050805 2.3157441142162507 10.284953281973346 -0.7958685285158165 0.9291971967093545 -1.0893075038721112
Ni 2.30732342450679 5.313927055662174 7.113365835842294 0.044797873040980915 0.1872552430086646 0.20131943441121455
Ni 0.8702701148556099 9.158588941328755 8.988593545613288 -1.0113367436235872 -0.21629431055349202 0.6274000791963518
Ni 1.6432322638638954 1.331748410785593 11.415145043867343 -0.03683208122668495 -1.3109692493851035 0.13983304497095916
Ni 4.14889559749719 6.680964326663385 1.7824485868482296 0.33091074704950757 -0.11510391765539532 -1.2960486235195292
Ni 5.522012461284326 7.965074137260757 8.286042155085102 -0.16323753993782852 0.6093627620786667 0.21892686308033266
Ni 5.0620595079622746 2.782956282805079 4.87407305461001 1.1215558223828554 1.3211171364523828 -0.680264531295551
Ni 0.6636510707173461 7.385453020265891 7.072620767951785 -0.1430806053739794 -0.6098553854443691 -0.08181198837148491
Ni 5.164387221166575 4.754758777681453 6.966241505226716 -0.5189566042802676 -1.1491072496385628 2.120467452869213
Ni 8.063872057041587 7.463190141753985 8.993972624125968 0.27458738986743036 0.7124202900924892 0.5129818747540714
Ni 4.79399483619838 0.2672661580845492 10.711929435142247 -0.12622676704143423 -0.31623643286678443 -2.420377380661832
Ni 8.030325408489995 6.963792427476086 4.8250933144012516 0.5970898582485845 0.9865765059597719 -0.020658042569983777
Ni 7.150490370118498 6.317522640313128 7.172066572695175 0.23187005350456194 -0.37396849747093014 -0.8994289643079866
Ni 2.4383522600721084 5.146066776637047 2.8206307026377413 -0.12395776850159944 -0.52699104454897 -0.1953213078462507
Ni 2.224541148408286 5.188306335470604 11.522055136708795 0.138474988281168 -0.413263695526127 0.03501199729881067
Ni 1.0829206594786565 3.3316259207062253 3.774852734651715 -0.3868720929064757 -0.7649952359757277 0.27064511739023067
Ni 4.004400917612001 2.581522133171111 2.4009328201756914 0.21900656727833248 -0.17559451884128469 0.12356464682823881
Ni 0.9771811150989711 3.567042271807791 8.012378813546706 -1.0960731047307188 -0.7514984870408734 0.12365206433572254
Ni 3.5902173165469757 2.6313747940156995 6.832305353947053 0.7287869043759707 1.1095762814234762 0.5745130013893331
Ni 4.269879493937107 6.933049650821288 6.3866829989635265 -1.115416285144021 0.9053982945175438 0.04406587997096282
Ni 0.3649416217047539 7.388420224506187 11.056351977493549 0.7846855153158034 0.04623152016371393 0.9778085299591547
P -0.003998920210085585 5.60562954713851 8.266014887565973 0.0962369055475633 0.21316116424114903 -1.503884776003339
P 8.672892995866897 1.505461432119558 7.975179872314018 -1.0023692500176544 1.0079220615150837 -0.1490386227296272
P 1.6144766973883764 3.1841186664853236 10.466992623218303 0.8236469841806653 0.6460004679063585 0.1934055788807766
P 3.9075085418386997 6.302214770119313 3.9520175128450323 1.4477164563418874 0.7841931490604173 -0.17656331051245722
P 6.870057810343833 3.975727017308233 10.435716294241395 1.1063863137312686 1.0423265071368824 -0.5165091711810395
P 6.542694423869457 7.91731757482445 10.510487118891104 -0.721859324018202 0.08387144200367491 -0.9938915515639463
P 2.3305982834558923 8.354939367182078 6.112436197998064 1.4690949220176635 0.043043866464351675 0.0983539518905661
P 6.979544924604991 3.824408675072274 1.7515043669697774 -0.41410290359797064 0.27556698017188025 -1.0964803674714665
Ni 5.5050621936364035 3.011793970071129 0.24354394999463141 0.3632575388113293 0.1982816760261553 0.7181317386549697
Ni 1.545024155323491 1.222950921974778 6.871297321350635 -0.27662164668863976 -0.11527232491245955 -0.9381996573182809
Ni 6.796195295004381 0.9224738540447257 9.16117685157136 -0.2434078789408324 0.3841436382317191 -0.5919067713857483
Ni 2.617418952665321 1.909155467124091 8.874883382870681 -0.1443964959719255 -0.1990074984485863 1.9117640672891014
Ni 6.348392453235096 1.841608469066734 2.6006483505952507 0.35953586698536794 0.06741432488891616 -0.5050947586965107
Ni 3.8315317800527984 6.830694715559736 10.752050210519814 0.16090169271580032 0.6216150970834585 -1.2633693881189534
Ni 8.20210566375918 7.086509461560945 0.2516488638399876 -0.0026958016646082606 0.14702184940991453 0.8363772872631402
Ni 7.374400865022224 3.9093868637889786 8.110125054515763 1.2650917701266988 -0.11207747212424568 0.32089887133946027
Ni 3.5122170485054607 8.493608526815681 12.549320300138984 -1.3571804578338431 -0.013266635201919088 -0.1277282912876252
Ni 0.1208840822299981 4.853166514641694 10.25958776902741 -0.6801439465572867 -0.6170385334563695 0.18789647613708932
Ni 8.6588373403066 2.342022473481982 5.731265693162522 0.21803134784925673 0.5766449601306715 0.6049031836454164
Ni 3.8647608379364686 2.7560971863180055 11.175547384772113 -0.6074048670213474 -0.9080269903896426 0.76396036695331
Ni 0.9875254968541279 3.3139043614362063 12.850939787071644 0.1743796725975771 -0.10554815564616016 0.0872879238843916
Ni 3.0537613083321817 8.559739977896015 8.193422734898208 1.0832841804961664 -0.08847397377269278 0.2592091076391471
Ni 5.912694352923163 8.156154831120483 3.831428336235247 -1.2756438346109322 -1.2466649308800786 -0.7837874289815663
Ni 3.069395843213002 8.166381250627557 3.267315625255942 -0.26729214175759775 0.8703310185007656 1.5369293651631335
Ni 3.0393971361230476 4.3408836932652655 9.449355901437585 0.5515278533480695 0.04899314206925111 -0.8283225352794639
Ni 7.439679358308712 6.154934366375499 11.446089263745794 -0.6988456367318481 -0.4629991150780413 -0.06282901951107889
Ni 0.6022626094119411 -0.1644266702039411 -0.1006163532051577 0.32136141279817554 -0.19228920588814627 0.5270787191667696
Ni 4.559594775234162 0.08505713268273031 1.6549268596586726 0.6171879145500403 0.5974536693459066 -0.6241792582662089
Ni 6.06256992612485 5.6080886063101305 0.6193299319060414 -0.43887676810854087 -1.517979563533508 -0.5430794654704002
Ni 8.090622265299658 9.307130633725173 11.0421819892928 0.6212595135162527 -0.8117353203447439 0.8371604452860679
Ni -0.1295769925119631 4.90243843826494 5.780828892798348 0.7034574244722466 -0.27782749407128277 0.8251814185473207
Ni 7.9592576910282515 8.68966178313315 2.5422661118121996 0.2980361078086738 0.013298516881119033 -0.22836152613067123
P 8.892075926828133 1.267395467445618 3.776618538765358 -0.5912416269979237 0.25737256865104063 0.16367385614429877
P 2.106769454723918 3.1252010605763476 1.71867456592578 -1.969955588028169 -0.29502714577902095 0.06855923712663677
P 4.590165145526376 1.3212860667823512 8.356297747838875 1.442976884774373 -1.4006213026262977 -0.13658034236161637
P 8.522717980035454 1.618732412338524 12.6995252602334 0.06604212713173788 1.0674523556702327 -0.5680448771664863
P 6.250066382446607 7.6589167333844514 1.2555947056275643 0.7277867452462304 0.5679700580644929 1.8867711447891893
P 1.9533459400605935 3.4332821564983482 5.780576635067828 -1.8465758035172262 -0.10560317725381169 0.6788972186343791
P 6.891127682655652 3.978068114231769 5.866702687198591 -0.263479709990043 -0.3599603561172962 0.20312691993359855
P 2.3754693078236557 8.575056922108914 10.456355150646749 0.10978867609006897 -0.4395809932644172 0.4790499978933168
