# total energy = -340891.2710006233 ev
CRYSTAL
PRIMVEC
9.08031177923203 0.00000000000000 0.00000000000000

0.00000000000000 9.08031177923203 0.00000000000000

0.00000000000000 0.00000000000000 13.28995414088673

PRIMCOORD
 96 1
Ni 6.332654662339282 2.058088929442501 11.418130352142708 0.0033195512915362184 -0.09486496490070113 0.6594424523438772
Ni 4.365160001028151 0.33684051241063556 5.893297432758836 0.64884282245116 -1.639640051360499 0.7263798375963748
Ni 2.815114501669867 1.6560490561554815 4.7942183412716615 -0.5945182408666664 0.5832992322223954 0.12265884718451779
Ni 3.6971941242836452 4.555011154490185 4.882051286666864 -1.5191453017068353 -1.4994228835772434 0.2863370742041907
Ni 5.059767511800667 4.66790666773839 2.710699091359207 1.182652175473544 -0.04971330806472729 -0.9661033257070846
Ni 7.330299409790984 6.1819033303239435 2.614027370721037 0.09676835257100108 -0.7351308443161275 0.5328117649958051
Ni 5.053928871487098 4.815280123864696 11.336356698631244 -0.13911776407148946 -0.4389919535301665 0.3916618009856352
Ni 5.660675287898667 8.012239885979628 12.529051077895708 -0.7970360664613563 -0.7497249400802185 -0.09260213700845342
Ni 1.8291016332876529 6.368403848831535 0.27430349887474625 -0.4196284614018902 0.7544555127866683 -0.26657120443117316
Ni 2.57632046906299 1.5877832740755324 0.36677103527468546 0.5270121275948924 -0.47505141825688507 0.10450197376983292
Ni 0.7054357822716287 -0.052198170828223714 4.774814623563941 0.189199511219229 -0.2477167907288314 0.11537825436270452
Ni 8.532641620055706 2.1904435502987574 1.529075427911699 0.9978253394007138 0.7735724361217775 -0.4299779229570143
Ni 6.690409856296172 0.7286968163171468 4.933470366765843 0.5520359033327396 0.718282405300221 -0.5174309116643605
Ni 0.6068145187480422 7.187920125005988 2.188257011282416 -0.6765413168076929 -0.1109526144911831 1.5838039182274852
Ni 7.678329590099613 3.728730046226138 3.650271614454151 0.5289882774846567 0.17888733065994353 0.6126913122312675
Ni 7.746631693425681 3.77031787303196 12.89509568824802 0.0710488363177099 0.10011232934256953 -1.5213415380272057
Ni 8.097113557847317 9.138788735906319 6.891678593475595 0.7748194211550011 -0.8235500535914848 -0.47858797065523384
Ni 6.815908841947538 0.6632404826244733 0.2424270652498912 -0.3370873081738646 -0.012085984630256603 1.2866633256498874
Ni 1.9688203867944594 6.263780499386845 9.366798990540575 -1.3588485895648856 0.5324803497983153 -0.27051964755595986
Ni 0.07286859199433113 4.753997101351052 1.589132608368839 0.3410043838400837 -0.29353102084946864 -0.3402428230837108
Ni 6.610439552654498 2.20986633666069 7.093725513353108 -0.876864191633593 -0.591228257261485 -0.5514851730355922
Ni 3.4907895629030503 4.621061340556898 0.2542142176465368 0.1570049287645554 -1.108656083602052 1.1932543764694223
Ni 6.032450482857347 5.712060770844987 4.7716247101235725 1.0376476136039743 -0.6479694187072711 0.05190645906130416
Ni 5.558113169171211 2.8577647249246576 9.228185310946929 -1.020061525091095 -0.5763207440220333 -0.17465246664298953
P 0.1584895735009102 5.517687622241185 12.219634014335785 0.476442899287773 0.9030364791535866 1.0087417292029013
P 3.95156997147541 6.458271692040532 12.530246954924163 0.42892479910215164 -0.8954841207276255 0.10078955791525222
P 2.271703258177643 8.382761997947215 1.7268564174325807 -1.0071144780121235 0.7883462519968423 -3.7401205195848237
P 6.418091313521809 7.930880294673917 6.068604651243821 -0.9462284411600284 -0.13882517253173512 -1.0332091182166465
P 4.6805918629453185 1.15498838563757 12.630386446535509 -0.019734245204133756 0.3410480925938255 0.6733737177129886
P 3.899340019556832 5.967635219158666 8.299296682397776 0.4250005243470809 0.3827796680046569 -0.9036206337918309
P 4.542198834921842 1.1158340823216961 3.4798414312917445 1.949922066416061 1.164401713903788 0.9903616840338169
P 0.13905135060937704 5.533841496452442 3.891138682183248 -0.3573036352207395 0.14673182897332146 -1.444084773126571
Ni 1.6548232140989778 1.2905846777099133 2.6845178291257517 1.1880458356852894 -0.6944271959491782 -1.5203624619433882
Ni 1.7522912780582982 6.4427716002594115 4.998763254850982 0.24817290442964357 0.06564823412742887 -0.9556265945454768
Ni 5.742670501011455 5.384016356213129 9.092720683391766 1.0713478340698968 0.5732282211396387 0.9386822533816545
Ni 8.640760889439312 2.1961732268739698 10.32706463558045 0.5219357415132495 0.8499601681538975 0.14218457592227124
Ni 2.2889740107070473 5.238222874292982 7.119374669330925 0.07216520931034023 -0.5087791495266335 -0.5178281471027791
Ni 0.5534622403243993 0.012094974957500912 9.133786392284632 0.7927027291933252 0.028036080201609782 -0.10592842180371434
Ni 1.452450311037549 0.9081945985730676 11.504196268914239 -0.40444609723449704 1.1594996486164806 0.1034125973603961
Ni 4.016857411373632 6.9161554812349335 1.6426782974280638 0.6309949956364617 0.5031941992396882 -1.5827569650202098
Ni 5.684738113452254 7.643579237875623 8.05815084910472 -0.6929536967274453 0.8282348606616639 0.7438962492135833
Ni 5.499054822982332 3.03447666760328 4.639748621684928 -0.10655731363696487 -0.8073343630635709 0.5721522144666404
Ni 0.9399756889268613 7.478508254578018 7.1648270767237685 -1.4063353222919392 0.854612065103612 0.49634580885928714
Ni 5.156200420245606 4.470718622560395 6.954273721005274 -0.6427588210406091 0.4273057754414899 0.04070956190422022
Ni 8.006855261242544 7.221944052307606 9.22682962043555 0.02953914710969752 0.15580010982317682 -0.2418940133994673
Ni 4.567106129447686 0.4616611987907367 10.446036693304302 0.24175363116686105 -0.5155910302421444 0.6687063941443064
Ni 8.139273444279507 7.342748516898141 4.923529241703176 0.1317330415716441 -0.714629381928666 -0.39612240786015007
Ni 7.235918651751747 6.074664851158714 7.087054208472271 0.7919527384011781 0.27881582612648115 -0.19355341731255052
Ni 2.3285823295994037 5.405445891423115 2.69326216912881 -0.5428362391113425 -0.5875235547163882 -0.3376663206057862
Ni 2.515772951783249 5.182515163058547 11.437666642398762 -0.9433994563516656 0.4941351743612135 -0.45514079537588714
Ni 1.1682183995362778 3.4399488986485096 3.683270374584072 -0.7643691723559546 0.2975077461090296 1.0333147905565752
Ni 3.48447874638994 3.026449672211065 2.9062735651783824 0.35720079109428804 -0.5209962604181155 -0.6789000468478567
Ni 1.1268303395841088 3.3255097324402634 8.423876740522342 0.29007674375228104 0.5359389977708771 -0.5820437625487396
Ni 3.987900297905561 2.4772996718320988 6.972826613522665 -0.3139648632237883 0.022145939969419926 -0.23318722965408872
Ni 4.133920787613949 6.597254940313437 5.811125153571221 -0.1420115406795167 2.54386103774049 1.7999712162848098
Ni 0.5064371229746202 7.592130192748595 11.2419586880001 1.5906867613902476 -1.7076796685382396 0.2576559042194143
P 0.20852209002931113 5.7715731326103485 8.111244338649767 -0.5879004784398326 -1.8515107789249983 0.31492645580610923
P 8.72483549389239 1.8252515811990788 8.044063653797613 -0.19410209072716894 -0.5297989463114101 -0.1117907941217623
P 1.8124120206961463 3.0907927597102027 10.53450798460004 -1.229543954929076 -0.4815141431630932 -1.4586315605924944
P 4.048484136431422 6.294662638899203 3.6416861799028624 0.08863338216869251 0.2926185363375283 1.5164201894661884
P 6.9631460934008995 3.945540644619719 10.531091971402585 -0.062494776100111726 0.8751909176962283 0.3392151531501448
P 6.244085303679023 7.97165089344207 10.452801525393895 0.430343276716233 -0.308837569299552 -1.4975500920345628
P 2.3490765927218358 8.290224543148499 5.899796211720611 2.5324890484581224 1.5633677618603203 0.00999799175297633
P 6.964172168603751 3.9590158269297273 1.5928146746941143 -0.5243813748402646 0.2606581813808479 0.42699595751055497
Ni 5.091975376796354 2.9589375559880775 0.8772089435092717 -0.4490951034024394 -0.2280869323130459 -1.4404942275618355
Ni 1.6615880461885713 1.257132810034663 6.9407712977606755 -0.39883157926119694 -0.4432453294898818 0.3957333999518475
Ni 7.155485252222059 0.5680461286721786 9.01393808449817 -1.145452426494795 0.04248465152677199 1.071016161762091
Ni 3.024415682428422 1.646414845622517 9.001577964444003 -0.5805859470562904 -0.5184814644160619 0.836299125727037
Ni 6.424075238819851 1.8439933441962875 2.3845633582108823 -0.830688464408479 -0.40536295262181155 1.9858249509602572
Ni 3.986583652733761 7.0416453865747695 10.242421603625617 2.085368038062918 -0.10474340035667767 1.3997011048048735
Ni 8.24376966936278 6.999603544192466 0.28647293238679034 -0.31240111828109424 0.01989905291677218 -0.5070128016548301
Ni 7.579953494987327 3.9428982739645897 8.41098542224369 1.371066471787316 0.07980524235410126 -0.46193210726610767
Ni 3.186027067033228 8.489419337174548 12.577519056747548 -0.5250781437969732 -0.09159812122397128 0.13632014672169426
Ni 0.042927172756445614 4.765356571074651 10.157950189558692 -0.01480286934078741 0.22506331499537371 0.6926078833522523
Ni 8.615036366875799 2.2745817169325435 5.745566212358262 0.4145091378974538 0.13618207848193323 -0.6969401921790191
Ni 3.4991525298218624 2.7621672051404462 11.641892837043393 1.845215689944906 -0.12228038079917651 0.4297714633731631
Ni 1.2129298535083008 3.528963192573721 12.618306000076455 -1.049546164813773 -0.1888045897736555 0.34962375007797847
Ni 3.2377757624407337 8.104341485824923 8.101289593119805 -0.31199976907761756 1.0999055911029316 -0.3091569003121837
Ni 5.612894688629621 7.932060735172772 3.865130853900009 -0.13696035140885443 0.03158163146102303 -0.6283233623415695
Ni 3.2289224586993197 8.534221594261867 3.474352382972068 0.046424095790494245 -0.9791362476316428 2.766160416837481
Ni 3.4483300261903818 4.129989012721608 9.432066453753434 0.07400200540876288 -0.1815340242541712 -0.6608272485065458
Ni 7.184941782824261 6.210333785723295 11.344503554135649 0.33643270530900127 -1.0188736754305805 0.30821484811388855
Ni 0.350921351499672 9.160763089808086 0.5642768913562187 0.8352573147260841 -0.43054330854218104 0.031836942004938716
Ni 4.6304231417439725 0.296045396801353 1.4013853630882267 -0.18008700739499953 -0.3652799685579967 0.17673634575521177
Ni 5.92408604506244 5.521319746853047 0.25570702086201214 0.08246993367045796 0.642022714205533 0.8077161718830218
Ni 7.958275594558887 9.075317358314027 11.360757311773733 -1.0045950540243795 -0.6027797095445103 -0.6254768940317099
Ni 0.1313221894353344 4.693876358713204 6.01240206303102 -0.019093012075709053 0.1685422399801936 0.12020601476865103
Ni 7.76640861193727 8.817227663706634 2.7782511609529252 0.22986099349433317 -0.4112680052523369 -0.48497279113565506
P 8.912471051341189 1.4164468758224658 3.580937987738315 -2.5706264787597917 1.7531694254399226 0.8227386134337831
P 1.8990018714429393 3.328624279294935 1.4453885527609363 -0.2999011860418706 0.5696495026494448 0.7012740436676825
P 5.063000102705224 0.8145230128642962 8.31645393103306 -0.7389687300049789 0.7359654244022809 -1.6101255868411497
P 8.428354242137615 1.5957013057293918 12.581824940474911 1.5053163662435431 1.6783588080869354 0.1733743712615143
P 6.376903020423291 7.629967850892669 1.353395916653998 -0.33463164754452046 0.8536383883364331 0.15789401623772806
P 1.950995735261746 3.3186631775469033 6.027897614656377 0.36250754801918217 -0.45105479823197164 -0.21722042191218716
P 7.059333833434539 4.178387073174671 6.06742239468266 0.07740511755304089 -1.4552891264828227 -1.3615819293356488
P 2.442603801477286 8.505355283909092 10.309575047543182 -1.133439461194319 0.3423830093551652 -0.6047985397467519
