# total energy = -381166.8728436369 ev
CRYSTAL
PRIMVEC
9.30148345168136 0.00000000000000 0.00000000000000

0.00000000000000 9.30148345168136 0.00000000000000

0.00000000000000 0.00000000000000 13.61366123988829

PRIMCOORD
 96 1
Ni 8.609090148160062 6.269822917019849 9.812454662626394 1.4987312568268576 0.9753865507812234 -0.5604475244352025
Ni 3.079153717104285 8.362731062519929 0.7012155693081458 -2.553707591517266 -0.7893628661868147 1.4983594753097356
Ni 1.4682391326850048 6.437128696428181 11.44175083826526 0.64556800835463 0.8985694445211686 -0.43456091434200644
Ni 6.766447711269566 5.142985425931743 8.463640063969152 -0.0827920928965671 2.0119003078910707 2.834675945210376
Ni 9.24114453868405 0.40619205339690273 12.294933110936691 -1.956625960798798 1.0987858756761915 1.3644525660152242
Ni 2.4315193421187993 6.026756556453967 1.77775342936793 0.8327749146238625 0.8543431277129415 -0.7235400541547345
Ni 3.8287230471426366 3.320136545419794 2.2067471388298565 -0.29982970937398684 0.5629486935905014 0.1872264466532582
Ni 2.0509212500617515 9.193158186542638 12.079973042339352 2.3373497747156904 -0.7327996250797897 0.2186044467439074
Ni 8.552955696682368 0.5048091693707147 4.8758003192711366 -0.2226858159021326 0.2733835993673163 0.8499442273142975
Ni 1.7679050188916114 5.720514521582119 5.358786348615841 0.2063531401803801 -0.3025368238925048 0.24104966312130094
Ni 0.23438807668374684 7.799321618459137 6.272330596906905 0.2996106513846453 -0.23952834138076812 -0.8177000225686111
Ni 1.0668615270237864 4.669725957632642 9.0651325709438 -0.7406484317002471 -0.3004819982460051 -0.7409636489478207
Ni 7.783388177633737 3.110592730525098 5.299403819183548 -0.9820832460751087 -0.5933285914339393 0.9190912186236042
Ni 1.03318085613717 8.698598321576775 2.056424937707046 -0.3813640186040529 -1.8380590242954669 1.0581560179699712
Ni 5.455431550138408 1.8791414572050733 6.014610679612281 1.007544880681323 0.36567977509957666 2.4108023353788868
Ni 0.6344588239468516 3.7503766536386403 6.735263558490094 0.13458953718383274 -0.9258825305138246 -0.5434949557412639
Ni 8.301890060512374 4.590858681066053 13.618017016450148 0.2279450074185429 -0.2125998924210403 0.4176463979748549
Ni 5.387130758555855 4.806792614960779 10.647271156599777 -4.956109104426968 -2.185664972612468 -0.7966504009871634
Ni 2.857731908085808 7.646247108439517 9.471295789742594 -1.3132343912701965 0.46857583783487045 -0.9980048024013715
Ni 5.4672165294295825 7.270392772845373 7.169634455424971 -0.4887379146050421 0.00652931647808553 0.7678273061078841
Ni 5.8390247198053675 9.603409407234464 8.615841164710602 0.07934630043981174 -1.9691678020195504 0.6068446236425032
Ni -0.015335355451743856 6.019399083194837 1.785908039742494 0.6203251746274413 -0.4644895835806387 0.5472209984425995
Ni 8.057902853103693 4.105358460796008 3.1059429190431262 0.15945596140820925 0.3199120819461587 -1.2377745703689844
Ni 3.9383038214357127 1.5817916403303551 8.04767494211034 0.6256779542989224 0.38874565578010467 1.3836617919538237
P 8.514559173782631 8.516382264501708 0.6823763451121356 1.0363036979815703 -0.19890799675624452 1.0806765676699905
Ni 7.486596449754654 8.919220203034838 11.139487047783971 -1.104037610993434 0.6201837639535707 -1.080214026211275
P 7.854711951275983 3.5897586406946767 7.6909695701047855 0.4148341253370404 -1.0463495122533464 -1.7632165252632794
Ni 6.482073463543379 8.966527546898227 5.823420551487393 1.249968541332015 -1.0856547376108723 0.5973896488771906
P 4.533859191645123 9.364361287437161 6.679065856926228 -0.7447531978972399 -1.6831284615614368 -0.2665578346947345
P 7.8054233914780875 1.0443984449494483 9.599141886714504 0.21015168799086387 0.3966425420296782 -0.1704327721346871
P 3.1112996432529028 3.653771448494095 4.804750939385078 -0.7717904045206901 1.3255993405934525 -0.5494923109752795
Ni 5.3845635491759305 8.16968807892953 4.031590257352877 -1.1385269030195553 -1.379747801611398 -0.47871652581329815
Ni 6.135769940268147 1.45800750109835 12.420042711533332 -0.9661884292217231 0.23451057645120257 -0.167281370989899
Ni 3.04845882234432 8.230473272037521 3.158832083011198 0.7010135909174443 -0.6967810408933355 -1.4674933818584983
Ni 1.6207555537089902 0.4532380255806689 4.312889434713112 -0.3119979693054046 -1.1794364967497235 0.14291939720576677
Ni 5.777476805070007 4.497648517311625 6.684565823978218 -0.5810927114893798 -0.7765106928144949 -2.0303364031090707
Ni 2.923856152585382 1.810180260311018 5.97956920172464 -2.6803056258551905 1.3684015233606435 1.1654923758648057
Ni 1.5094819094624856 4.898486636943729 13.316910330486476 0.20284178459301194 1.6683775285045073 1.2750856481146169
Ni 7.4154214998445775 8.621954099509466 2.968091216527796 0.3601552457369217 -0.47440915668719585 -0.8388540309384069
Ni 7.109505016886851 6.635826981841023 1.4317894102317092 -0.05061165150928058 0.2426216355941112 -0.21351443381550972
Ni 6.7156058037671515 2.5573219032183543 2.1197150202571162 -0.8138971038827532 -0.686322821674489 -0.389582035638471
Ni 7.7213379828023045 7.759232225605969 8.05069699402171 -1.086124221048123 -0.49530656896149533 -0.6728939498630927
Ni 0.3900316563799441 8.478041550501532 10.508520930801474 0.5472901611176382 -0.849659349084027 -1.278808605492159
Ni 4.21909699810657 5.851507310341087 8.737247844821201 0.6697160663557434 -0.8415827427234797 -0.3630137982316393
Ni 1.4954645741887682 4.610475509262648 3.342861929322081 0.06142596851596518 -1.218936611726875 -0.23791497414706125
Ni 0.8997231743141454 7.377499352591129 13.582581155672255 1.0312841332797915 0.270365895586915 0.32078574280036365
Ni 4.455791842638945 0.08280087383749539 13.15938692102331 0.23069274536700912 0.9326992963253421 -2.166800017387165
Ni 3.1334743793461626 2.1590788974159563 -0.07819570947517454 0.6567224823095529 0.3948952203212683 0.1584228921580046
Ni 2.3840259685901986 8.965374162973914 7.273180427378572 -0.6754771372092367 0.9303796470532298 1.6888098282169302
Ni 8.478115962367617 6.991850555123579 12.138021739072075 -1.24759926976889 -0.7831595655895802 0.21938631921525442
Ni 7.608799336832358 1.2224195330739864 7.240997295296912 -0.30099364777510096 1.839446905781929 -0.4983988347335739
Ni 2.3412856530077626 6.389923668880659 7.489841737264276 -1.6967172559894652 0.5288756631661924 0.6160244903695584
Ni 7.181610115122988 3.2769125527078065 11.843204716089216 0.9230648585593716 1.285970927568553 -0.7501013495830307
Ni 0.11082531275334366 4.467455902647732 11.330064208161987 -0.46903477974915997 -0.5284637724397544 0.05572608991771048
Ni 4.300652403335472 5.823454036827131 3.3894205037829916 -1.1059960202713857 0.013720434909886049 0.23539786415216232
Ni 5.925035535516094 7.378671339481964 9.626518942395414 0.0537432551597268 -0.38988285470834144 0.19036473517192376
P 1.1998820391335634 3.0245912162976314 12.697897549642168 -0.7503008671883464 -2.8763393863874334 -0.2893172398784372
Ni 5.923082224031369 7.553985695977669 12.026907150189327 0.12848008185198517 0.4105902624590219 0.36790249378250833
P 0.5924161196089598 1.493511262704043 6.461138615168756 0.1797584204109872 -0.613676301852356 -0.20378692211510066
Ni 1.8065526818393858 2.2521030315051727 8.299826991525174 -2.4275600144531997 -0.5096453541816707 0.21922176861293213
P 7.155203204146157 6.665508014925583 5.986634608409388 1.0868716407371088 0.16662548257345497 0.4855222358812219
P 7.15869126036888 5.342669668570208 10.781257162672004 3.670679651184182 0.28819495334853595 2.067307581016782
P 3.119568661871573 6.375236626812179 13.059067633612809 -0.44743468498088107 0.930379904163546 0.8759092839194915
Ni 2.3120324881531897 0.568287141882649 9.835380028418783 -0.5226535935158806 -0.15696173423144583 -1.0098668439462801
Ni 0.35108634596783056 2.113148173075136 10.451779092466861 -0.11530754902576915 -0.19500403371614805 0.48130691224829375
Ni 3.9921036006149975 6.800686471151819 11.115186922765666 -0.6273661406346228 -2.540151964320019 1.4325243219824813
Ni 5.644530704826315 4.7159078220214985 1.7943212313517025 1.0211506443902154 0.5971891028306103 -0.4292227899585447
Ni 0.6462512444246348 2.4325890126937684 4.3331601571829275 0.1469030644438631 2.14430440738781 0.19738101858875687
Ni 4.010222890006637 0.9952866133335039 4.362674693717123 0.8255979372594491 -1.6258663946151741 -1.9048822525676032
Ni 8.97544766934514 1.0519698523235732 2.654514031956643 -0.6505793455262925 1.8335477666886746 -0.9140569986338064
Ni 6.598639651765162 8.977689326810943 0.17255088581898168 0.6465403995702285 -0.12641240068967907 0.7100682449205449
Ni 5.144129508372796 0.2635221825525842 2.0633545427361897 -0.7143025947168666 -0.012763470313255438 -0.25946518951401115
Ni 2.7757486346269196 4.655345864511762 10.4692593699585 0.8697255237062829 -0.47515117705954296 0.8537173212034845
Ni 6.174408301732661 2.5202461909416205 9.006131402325192 0.5017790640597165 1.7276694813966051 -0.08891800328864687
Ni 3.955241822453257 4.3878073014872525 12.759757994215084 0.4108388881347183 -0.04762248697396959 -0.03998502503336985
Ni 9.278806244406201 0.05102142612934468 8.202748340882664 2.2145819127571342 2.791809484864153 0.6014545629751835
Ni 1.2730103005283655 0.9476537175559941 0.41750358719011293 -0.5370129475613461 1.0043765102556703 0.6439284158686781
Ni 4.961373965268615 7.07747070853736 0.4825283963682842 -0.15900190458992616 -0.660151819706076 0.8516290712158883
Ni 8.828437726411426 5.218411153691912 4.895104617630176 -0.3276863265749389 1.3868551020801407 0.5743042278126367
Ni 0.5154575074074446 3.357779648175424 1.3753749841078713 0.36519589348462267 -0.590458468974996 0.3469256344205251
Ni 3.667295805155001 1.754873640843517 11.13127755865817 1.1575389253456838 0.23603755461869028 0.45787696336012756
Ni 3.073628636047491 4.015450323599092 7.659454284521235 0.9052067473320281 0.8316307737170903 -1.2589483762331222
Ni 6.325362073568866 5.438065680890875 12.842828611067135 -0.4376938035440333 -0.3753990592698696 0.528043139962568
Ni 7.980216864911199 1.94312636055471 0.20325043132057724 0.789005482847396 -0.07950236640170179 0.12990755832713113
Ni 8.89392016856602 5.662277934887531 7.386282743234109 -0.29655643793935377 1.0784777602464588 -0.3460658575233911
Ni 3.98449498730783 5.987848451974896 5.982509400583314 0.9130614674897566 -1.168692370859342 -0.8980241135406598
Ni 6.262697980842233 1.0976029292000546 4.005874446582309 1.5321887651543546 1.1320880893727472 -0.8852665567646754
Ni 6.467051568077517 5.945908063952871 4.1170978628192065 0.6091719862240992 -0.551936658750714 -0.4568498076471939
P 4.446797308325949 8.792375875810098 10.687962355419904 0.29077865491531213 2.001957594856062 -0.2582804251772907
Ni 2.8592852557903274 8.052582404678633 5.329802926775826 0.9801160950464087 -1.0518226195527756 0.517473849087154
P 0.7180103274834772 7.454385413223212 8.589131025379476 1.156234090491331 -1.3037411070677805 -0.9466971532663307
Ni 2.7724001006531047 1.3639881083002503 2.448485247586126 -0.9865934752406362 -0.7787454956822847 -1.0464734394257205
P 0.9699958803479447 6.888148318251198 3.6790100931733947 0.5713289472343968 0.0899814115561547 -0.4370700539171053
P 4.063380866840941 3.2345722009055757 9.459669865815178 0.22437220246562006 0.1402513634553004 0.46068717911541307
P 5.241581148494056 2.9996818441257562 0.3617867723108197 0.3234671462872687 -0.30924226093713836 0.1417012085279495
Ni 5.20416128133668 3.3411578975887397 4.449148723294228 0.17795684842587417 1.8480117646328045 -2.086901443988309
