# total energy = -340870.9487055317 ev
CRYSTAL
PRIMVEC
9.28376034918648 0.00000000000000 0.00000000000000

0.00000000000000 9.28376034918648 0.00000000000000

0.00000000000000 0.00000000000000 13.58772168791426

PRIMCOORD
 96 1
Ni 7.432420478140227 3.8326517995917255 2.196305535610954 -0.46471404088661905 0.684795329286369 0.3415805680585278
Ni 1.9581956576553383 6.106829514565269 7.5543793772640315 0.7089439015081145 -0.15497375726713955 0.34482632868933516
Ni 2.9751573018776574 8.8330799255404 1.2417381859833052 -0.8429467129505418 1.07762826776197 -0.5284468031588899
Ni 2.055721557059726 1.4446459025527656 -0.1420443140082776 -0.013509090230028347 1.3861441920560449 0.47448423289950536
Ni 6.035910871485772 8.920932146964839 6.768818237603749 0.5019718967968129 2.3583556875433964 0.67112091712307
Ni 1.6726179145255546 1.0240358693861593 8.758848836872374 0.5000528253972292 -0.24350738063317418 0.36811126735920474
Ni 6.601319710269727 6.5495813154690925 2.1769563228990427 0.25310633717551895 -0.7402974761187315 0.12417836915283774
Ni 0.966745786071121 7.609601038838251 9.28915020862276 -0.40473920299488364 -0.344348103501336 -0.733330300772279
Ni 4.801170783833836 5.309985821307066 11.201446028177648 0.6643933685912493 -0.8146866896635842 0.9651928980776732
Ni 0.8583801684235571 4.607140198631388 12.911133996612934 1.334007619261806 -0.3322451495902149 -0.45232363764206623
Ni 8.967592325014001 1.4356499390570159 12.650630761022542 0.03946283398131269 -0.1919012264211082 -0.5383661191551309
Ni 1.2562784109854137 4.316326414829156 6.089826308019897 0.16866591004225148 -0.3000621370997671 1.1817839139359776
Ni 3.9745819233512956 6.873491703876431 1.7364567621851772 0.7778489520099443 0.16245592457679764 -1.8140050686700564
Ni 8.490137829015117 5.703255181104237 0.7075209242406517 0.4391084245033728 -1.0947937237976628 1.4686187537121933
Ni 9.166979639769645 0.9353666770766582 1.4384508494663735 -0.8414822125898733 -0.24207219084854442 -0.40999299519465515
Ni 1.162568136964672 7.018039847972226 5.1753323086805905 -0.27640721668498847 0.29616691581041893 0.6949049069165452
Ni 4.134596811702941 5.6084958421969935 9.020331509148836 -0.9808658287282398 0.11483575159567319 -1.4936864953140985
Ni 7.4740952770384945 7.183513587237701 5.86469141312069 1.7967894761227186 0.9332754805437863 0.2826879074873777
Ni 2.9834105645688043 4.595266269517803 1.1213426720531896 0.721875264857802 -1.1891447251764231 -1.0930595147153757
Ni 8.639671352261807 2.06165387973649 3.6281119980041505 -0.09009094055082549 -1.261131757037686 0.6308127044223265
Ni 1.8295970133383863 1.6810011498575075 2.406888136619977 1.2004023003681135 -0.3539473171539969 0.967699980770243
Ni 8.896887208415826 6.462267552127992 3.4341603247621926 -0.28163581207377947 -0.041472922432805995 0.0046539538322435976
Ni 2.3531453780229223 4.760507914781839 10.737859612952708 -0.7402717650871187 1.053288919685657 -0.0007211944367406934
Ni 8.703590040257925 1.0312122159106327 7.912836493597463 0.5947671236526789 0.20297625328834723 -1.1317147651937285
P 9.120013097638584 1.4877875355401233 10.24705785511911 -0.4809287029732685 0.5259083530077523 -0.9473353010709621
P 5.161937699669582 9.20444889536185 13.512690083556901 -0.6704827693184389 -0.5054745106334326 -0.412076102975929
P 7.125508654398232 1.7315883584110066 1.9713748834330127 -0.39914731072940285 -0.5893955749281204 0.3743127681842263
P 8.710654981661708 8.120560624884773 7.761876984805936 -0.7756498874760964 -0.0975211715766256 -0.6429616810800346
P 3.825326912906332 2.0373118608656378 3.378056705982507 -0.332155418089886 -0.888426956770528 1.7547241715215522
P 1.2655157522426594 5.134708431420837 2.1551209192437244 -1.7266873199889938 1.7568023942068194 1.1389017698604709
P 5.267429065203333 5.285690221236501 0.9572457144042471 -0.27362708283669 -0.2552670922722636 0.14439058243465455
P 1.3882006414029628 8.799082796209714 13.072134820282688 -0.5130065573444197 -1.2926226285571156 -0.268884168835066
Ni 1.463519786749731 6.991497577967738 11.545813181871763 0.4407235915092926 -0.8627953722453529 0.5852049338855405
Ni 8.7988228509281 7.786168871372478 1.576216278464134 0.6903481407837981 1.43055459985062 -0.704362195674703
Ni 4.373319417822353 0.8028242914872661 5.465334691853795 0.3598549408876835 0.944383674641806 -0.31756132232579504
Ni 3.5410210449044306 7.793168826455858 12.686610901501519 -0.6199060848121518 3.6015360023089844 -0.3676723800495732
Ni 5.697341425947589 7.033933645190723 13.029306978385277 0.7694360453559006 -0.5529100784075769 1.0320446655948998
Ni 4.8058869339430625 3.812933093229525 7.4690616223353 -0.7982596544558123 -1.6163661684342225 0.6986358347138871
Ni 8.932341888075547 0.09491530607620953 5.664150126989895 0.37671829230192544 -0.1201011137596706 -0.96007203191134
Ni 3.7931865355871515 3.1757515054407803 9.845146243084383 1.495230699872767 -1.2947623006079378 -0.20404480376217762
Ni 3.877845143551798 7.85018039696917 7.8266906272716 0.09507039604328787 0.17915446827840115 -0.4195988937155354
Ni 4.885021704673478 3.3974755468948494 13.490799905717243 -1.8228576339646798 2.498407790503697 -0.883402249862427
Ni 8.017566590806497 3.272906054442867 6.710812376388275 0.7644630176213414 0.75743799245376 -0.9305220861683653
Ni 3.2353903800503745 5.6530764579932695 5.225457185983226 -1.554272998647904 0.5569055727202151 0.825555771167604
Ni 8.771185097236824 3.608829628364654 10.928128418579844 0.5611070123960723 -0.9395682555310335 0.08987651054717424
Ni 1.6544588798530195 8.54117065805138 7.082450575251392 -0.22556725121498572 0.232559880482735 0.2147115394474044
Ni 6.33852431432113 7.35360135525177 8.386939552215576 -0.05971901312718748 0.6882292946685825 0.3583441606701119
Ni 5.214455930315048 6.998766762092787 5.708636048433584 -1.0361005808318284 0.0710560354065615 -0.41459218452956337
Ni 6.145125024802595 2.856408726981748 4.809333065676419 -0.4224170798906209 0.07894777944981242 0.18065830651743725
Ni 7.9228908057397724 5.380171047342018 12.11723047016495 -0.947013398955169 0.4988294945130893 -0.9609582911710353
Ni 2.0731100396474864 7.403250904039457 2.921332846192096 -0.7278085996231013 0.01647562905752001 0.921578246711516
Ni 9.312818226513437 4.195851060562546 3.9343108289737274 0.8145277954882166 0.14682130336333424 -0.05694504992647612
Ni 6.869481119531577 0.008930977175347089 11.676105184023207 -0.3917697873184091 -1.095435985367352 0.7743008296473698
Ni 7.490620369940904 2.702344728826982 9.042750861311774 -1.479485264113052 1.0688685192914686 0.31348046738820207
Ni 4.427146658635932 1.5136149560201808 1.333114522725583 0.09914842276740343 -1.103001456419436 -0.21158842043739046
Ni 2.098473272124667 0.4661264519766808 5.103888204781837 -1.0985773592098111 0.8821436948649777 -0.765833672716623
P 6.135924818585579 5.0328005972692935 9.626520192361513 1.8276375718518263 0.41342130414991385 -1.2059592256306004
P 8.883072973450217 5.534411436937877 5.685319885049089 -0.8826617721519766 0.29594194428380644 -0.2357804443025617
P 3.45321524228028 0.9631344034087406 7.4544276313566105 -0.31138347564985724 -0.8306028466732082 -0.38961057488356127
P 3.126640414736429 7.315844303097781 9.89656249141102 -0.5014594759367687 0.5732235931539482 0.11191780661792983
P 6.488085688847992 8.008171425628273 3.9337538033702755 0.7938178166343747 -3.5338797366125907 -0.3023002824016665
P 0.5701546969253651 2.2756538328226914 5.9396410648171685 -0.4204620130467791 -1.3891526398650655 -0.5191530365617898
P 0.30409791606855685 5.563191093116231 10.205696847310787 -1.2673795377196106 0.16731171000720219 -0.030979736210966
P 3.2421118223320287 7.890109848976622 4.950617968111991 0.22285859403457103 -0.490859074713103 -0.14932838605590412
Ni 6.452695995508675 5.383865983844917 7.422714307000076 0.41907361733968473 -0.947522991601736 -0.7487049834561363
Ni 6.334977917979152 1.8521379827580775 13.197114654929214 2.1154216629151894 -1.2331931216458891 0.4601757866966333
Ni 1.6359749135784705 6.652714605948232 0.5915073450576918 -0.3836417588946361 1.0783558899566137 -0.24283040917080756
Ni 8.822700681796077 5.388879214275985 7.919263640685294 0.4156180546909165 0.842101591341427 0.5646571916411759
Ni 3.290749441273446 3.337047552680365 5.576278409669336 0.8654824321592128 -1.7931806757255375 -0.08515802202558237
Ni 4.620666637035215 5.697610654989257 3.454813905762187 1.269709728514684 -0.729303439001073 0.2963895733441863
Ni 6.6588883063864905 0.6048351109962866 4.460807715852536 0.8727005471742066 1.775038457598872 0.4367026432753576
Ni 7.5632008060707 7.0901932311393745 10.30049796313829 0.8023065708316763 -0.3622404104007245 0.5888425306381277
Ni 6.1781102242870105 3.4482669981696144 11.143575709859013 1.074111512857963 0.13965898128694013 0.6333532114559931
Ni 4.638073687143089 8.80819944858621 3.316518374065142 -1.5770637712901743 0.1672057805569572 -0.2981901168880348
Ni 6.967229829177346 9.672006903139401 9.326217477404473 -0.020166190535229785 -1.5994840479669032 -0.6818529588285934
Ni 1.731003481527382 2.4613754527736464 10.7860413992753 -0.09197735894026095 -0.8732080829382446 0.8737035345174242
Ni 9.30520554326626 8.857291971770447 11.127732044944828 -1.0193832680771477 -0.32394974235064206 0.5902458387435577
Ni 7.01034361088453 5.118081217157794 4.501910635131259 0.3553154011461171 0.037194863882742395 -0.3624455844329951
Ni 0.5526056052886098 3.236578701337739 8.628637603433429 0.5407274202984558 0.2967456711320244 -0.2375730174266102
Ni 0.2726306113535476 3.3886559748401925 1.484118593565386 0.6023163967548465 -0.6474924790708525 -0.8590166219292109
Ni 3.442492499413829 5.707785656012313 12.79649441391849 -0.6260397085137154 -2.2622293394317685 0.8281556706842963
Ni 2.4267191764788745 9.239773602380764 10.860964128067613 -0.7527508713907359 -0.48164886896874465 0.391437600789971
Ni 3.966440065780839 1.3487353773983886 11.978636001394054 1.2896514617439339 0.6347917436747326 0.0772739912918153
Ni 2.7563669286017687 3.9913019752149133 3.2875354035415283 -0.4107409291042733 -0.36132509767530674 1.5587552027889737
Ni 4.278996415637814 0.37604798489044616 9.419402290605959 -0.1877481234846831 -0.006855846579568838 -0.3815087717120333
Ni 5.1102457236692365 3.4964775641483854 2.4243759554403526 -0.09508710821383623 0.7919969613755522 0.1234234932646842
Ni 6.551187405959046 8.807085397379307 1.6852846767480534 -0.13469778062692286 1.584487574558071 -0.4916021235267147
Ni 5.080853339327086 7.516327101540214 10.741542480567531 0.48708006728664505 1.3319643635795317 -0.6069045303461612
P 8.273464153032347 3.3576575000080893 13.179043815977227 -0.9279034175985955 0.9737436158611616 0.17755729899461034
P 2.7966491634914057 3.374674632193548 12.537240772431842 0.39569560473537657 0.43446038420840016 0.19905223564359267
P 5.1715185400489565 4.740074358895209 5.532104422563581 -0.6047301484026618 -0.028254881080635213 0.12995409529435037
P 7.791423479565043 7.389965843397127 13.02392611105593 1.0821058439173492 0.9370696574788958 -0.16299354224782253
P 5.66101407284246 1.5742379091958738 10.463659117773432 -0.06817228610086323 -0.10505013296381907 0.6358952611515565
P 6.279266073873894 2.0950754159436102 7.020204820817643 -0.16372065022183416 -1.1228945957989371 -0.33832452301507543
P 0.6788944501032476 9.173561825650435 3.328175991569386 -0.3918780307614993 -0.057535375212307366 -0.04184161862613439
P 2.5602382136263193 3.9574812373253194 8.191316802163263 0.5314963886184911 1.018437873444743 -0.5687539874183689
