# total energy = -340873.6474753444 ev
CRYSTAL
PRIMVEC
9.19249634917174 0.00000000000000 0.00000000000000
0.00000000000000 9.19249634917174 0.00000000000000
0.00000000000000 0.00000000000000 13.45414759878220
PRIMCOORD
 96 1
Ni 1.0769561279966515 3.5117175391553217 4.10962325497065 1.1926311410631267 0.7765050363875401 -1.1265625315688275
Ni 1.347463724522288 7.937840289483873 10.877463723938977 1.1403526433743845 -0.3551763044650915 1.1744961220253127
Ni 7.018360820204749 4.914648787972839 8.576360293638807 2.171801584366815 -1.375353014977812 0.33636919906091745
Ni 5.114668320810074 5.795455424187655 8.630633712629768 -2.1076222214754283 0.3965877775323428 -1.6438283784102334
Ni 1.6826037644220964 2.6231156658502894 1.44800297874326 0.660505860611385 0.6354597162760346 0.5285005392149609
Ni 5.0488868153648205 0.5929721029069344 2.8141908995262295 -0.3947129291071331 -0.9917711627868339 -0.24950653563940253
Ni 4.7424089797660605 7.563034626890344 4.723038550996604 -0.3044299271501596 0.20364062634522345 -1.0799690000800046
Ni 3.76302201034905 5.447528621560856 4.24980239289495 0.1624916629107395 -1.1041389124579886 -0.6523855454970958
Ni 3.169480891904516 6.228734557454361 6.638949716830327 -0.3527252718214377 0.6120302816085008 -1.3413627740752962
Ni 3.6758863353748255 8.257702400086586 7.320052122840214 -0.3799774226691714 2.225091811149523 0.5700526516251344
Ni 1.2553181389181498 7.763522977052581 8.496603435660237 -1.4182639554087253 0.525723747800772 -1.87791497995014
Ni 8.026134219025748 7.483537916564667 11.651668654445796 0.7148522965727496 -1.0566845756307672 -3.1614898964826907
Ni 9.193415818305946 3.345710243622088 8.96030145932226 -0.04094301807126497 -1.72725939044238 0.5491572962333638
Ni 7.271375095760247 1.6613874823416541 12.52185611862451 -2.2747202728099274 0.7253477967874347 -1.123209813046511
Ni 0.5909212569224689 7.367170102502138 1.884791807199876 -1.4832429313832713 -1.0994638755798227 -1.280262821440182
Ni 1.4265559649989448 9.226508805953081 6.3406706689211445 0.9309460610796612 -0.4198434056261737 0.4589090041690677
Ni 8.513217034708756 3.8801068391439335 13.034809377400668 -0.9862908563985531 0.8599602167894028 -0.44069890891894425
Ni 0.7417728833629708 4.9237585520723695 1.0419547780618634 1.8164938965301816 0.24570027451943494 1.1163395682892385
Ni 5.40225557596026 5.5098537482962975 1.7843021924603748 -0.6559043572836317 -2.2890459454039807 -1.7524595438570918
Ni 1.8344270377499046 1.1232679257095057 11.032038311489782 0.22999674774124906 1.095391505282662 -0.1451122910920275
Ni 7.625378138618922 7.950250159851549 5.344000886705417 -0.2339567608302616 -0.1560839596121828 -1.0116686730417093
Ni 1.728244509885439 3.778713601991734 12.506599332069523 -0.043964578506408156 -0.5196083789316535 -0.4308497840390064
Ni 5.265986006826606 5.856429253927505 12.715757125745654 0.7839992878820563 -0.0428579757057907 1.6716739398675922
Ni 1.4725368328353274 6.044976551047067 3.677018850952083 -0.5924240773417991 -0.33653709209734944 0.31588881971937854
P 6.499049111552057 4.193258427251533 0.24249530173199213 -1.319827728216998 -0.25328322907301537 0.654887228873027
P 3.012574167974245 0.9580236073914699 1.959785113456572 -0.1370652524178349 -0.18467205566252068 -0.5482108731596945
P 8.420832444193833 6.600028686358666 3.556576922410329 0.5335949230187326 1.0398155677895706 0.0038862224282836294
P 2.9627140665858924 3.1899250042731917 10.800761532570167 1.0641831980006575 -3.086262503307259 0.19559487322261151
P 5.294620633637948 7.42009130524785 2.4371385907713226 -0.8929829515723265 2.3470027244244225 -0.29668242199425676
P 5.835350859295593 3.1561885418662494 7.8373102277594695 0.288698889568148 -0.29193847955136815 0.45494744841815843
P 8.954135132624009 8.08409290989108 -0.07321363892100559 1.0270667527643345 0.9455429850572296 1.675333133886734
P 2.551405000118258 7.640582527943468 5.053149376023703 -0.3415769685141021 0.8919267423936704 -0.9582833154420335
Ni 6.30516097392611 2.9124219178588135 2.9843044832766785 -0.35792327108260935 -0.4778534064820545 -0.35892060199887216
Ni 8.703134013817046 4.788040532732834 10.81930095964982 -0.11335505328508864 0.36988661409207263 -0.06187642578982246
Ni 7.65431611781703 1.1774485004851234 6.0221708863099055 0.7213939543460092 -1.1865746504564016 0.24858916603145573
Ni 5.099914363817392 2.3300404902486194 1.0544243996572358 -0.2061237977783934 0.5527627541964351 -1.1011980846621099
Ni 4.014059899142288 8.445321255052713 0.20460107312705003 0.8677195490198475 -0.4977576016051492 0.2594317651729145
Ni 2.7782022754599685 6.359341548701727 0.5058116081919745 -0.35367735132206185 0.23882874421058223 0.34983380920625556
Ni 5.4898141057766425 6.872099007300974 10.675678312510902 0.6198523487560809 1.6784876203553156 -0.8476567168317015
Ni 7.357039971283487 7.350687956154551 7.760070275341396 0.4591023511267964 -0.038642137852230224 1.3627828916222853
Ni 1.8921834936907267 3.995546211053029 6.8260832079776295 -0.6557166667528578 -0.7723712167248247 -0.20523573874648526
Ni 0.36355404679350245 0.5044593919467262 1.8494742353831262 -0.05783105207585524 0.3453886289507084 0.10700211448386732
Ni 7.925310916660804 4.966181923736685 2.124504540220538 -0.7539356357274565 -0.7580059491420881 0.04949604984759863
Ni 4.346046912719049 9.024954126188883 11.005412245178688 -1.3286116450572152 -0.5876935046353491 0.46014776167217525
Ni 5.02976642250203 3.3847691615422777 11.908817714957873 1.6679813215073533 -1.9609623833906227 1.1156615683856077
Ni 6.631182057229819 8.357275522918194 13.081589073188868 -0.9124816837268866 0.47238826960242514 1.176963866839515
Ni 6.900209661807903 2.9350814219005334 10.155365540981885 0.2295889707798691 -0.27962083852627967 -0.12200321587838987
Ni 4.078067252749792 0.43205928897204604 5.1746806154088425 -1.0651612456432107 0.9567303691326169 0.03393521929486413
Ni 7.764083719343268 6.172145548577757 0.032844790239783164 -0.30180765903596407 -0.5417463484812735 1.015611202629225
Ni 2.0639269070827972 1.1230381132952894 4.012861197589736 0.036734893527188346 0.4071118169921182 -0.8123323304987946
Ni 1.7893194570875433 4.766723133190138 10.130220385868002 -1.0391900183904295 0.975116070728656 -0.8353161929884775
Ni 0.864880635909633 6.052128313377476 12.358119369743735 0.19337369720157663 0.6148854916691089 0.22149693780035404
Ni 4.206146307440779 1.5678262522659439 7.402122732205113 -0.2808521398302195 0.023328904533927563 -2.040949916958859
Ni 3.243388564316455 6.979651217154167 9.255646262326728 0.4988557197653344 -0.1833307111432778 2.1189358467160346
Ni 6.728300783477596 1.0753106711108633 8.422781253466388 1.0024952340725575 0.858517313695289 0.13936124754086324
Ni 4.496813048941463 1.7267093629584747 9.491161701414145 0.002340989428350807 0.9134980408065428 2.9420182166424818
P 5.496055810946755 8.481944161382213 8.796133582352411 0.16720243812284752 -0.7629296116959505 1.8753611031800346
P 2.6969589907862477 -0.01305426437713856 9.278734136708549 0.19309164718478355 1.099022931387662 0.06694561278261374
P 2.9001867049259418 2.1725546390345234 5.807429570217979 -0.7710123887040851 0.669491351939447 -0.2363052064577801
P 8.748508176879898 2.7423791163319424 2.134702695913797 -0.4013911124582571 0.9521476348579407 -0.7369398725004083
P 5.572546574894484 6.5993760191022925 6.380535768790405 0.5706874569956559 -0.2531287057730221 1.1076356127573377
P 8.901425357299376 6.918217762585885 9.788888280279552 0.18143992187846814 -0.5773635834642508 -1.1083136126609685
P 5.276428682928591 0.8179998226591796 12.844647877883654 0.335732336807867 0.9136772466968845 -0.6019158188823182
P 0.27237275407941536 4.887530923095324 5.739970434148947 0.16031496697439487 -1.1640875250974791 -0.7633433021946014
Ni 7.87539566029304 3.8662537468149796 4.270871595030294 0.5681880876125699 0.6384411675018618 1.6425492545874938
Ni 7.490156514094094 5.556818213265526 6.136585294851595 -0.9350510843869704 0.8857260128995973 -0.4348697038316769
Ni 5.85067475107553 8.904412918684187 6.719822543892331 -0.22864126215461913 -0.24046910802748261 -1.6364788800236976
Ni 0.10892097259226609 1.83541063488275 13.216534003566979 2.8424175368290077 -1.8383685851160854 0.9303130554813526
Ni 2.6814052865920934 7.904765686829873 2.457991769237303 2.079844794251844 1.4012615073134576 0.8747335184438354
Ni 3.8667593341262547 2.9435477112402593 3.473188109037486 -0.8393006315575223 -0.05879881530576325 0.010378257910530514
Ni 8.758822158029922 1.4892028291142883 3.803231828839635 -1.2702234349263093 -0.27303444355801365 1.1510983119266627
Ni 6.76005166662571 9.195713942448108 10.770691037794803 -1.2874117737801378 0.6494359759504685 -0.6178006084333747
Ni 3.955586428469111 5.025776878991238 10.984732804897856 -0.8808283184876637 2.097396687092678 -1.2860202927492497
Ni 7.915741527732841 3.377084234410887 6.798704276197566 -0.32802416953033187 -0.33976665477824064 0.7355280797545461
Ni 7.421295522298344 8.128354780869126 1.961682444748341 -0.2152375871542035 -1.058329824543674 0.8213484179544759
Ni 0.5499732809574215 8.503546528318537 4.188935196115297 -0.22456606364398102 -0.5852105903124953 -1.2153812902754488
Ni 1.6519559808622202 1.783436259283608 8.143217209321318 2.073125987470772 -0.2651326722124337 1.2046942428752478
Ni 5.710608680859025 2.1824825353286643 5.431089679947141 -0.3005190221315276 0.06218907193423484 0.520624993121626
Ni 4.224227948191312 4.246326709942344 6.5454702999740775 1.872268066077008 -2.1798491372616398 0.22610769709948803
Ni 0.6727767618676614 6.989395263516936 5.96061792928623 -0.4359973896782169 -1.0172515664461257 1.2282339778684008
Ni 0.1137194558011009 5.484749040167317 8.055711076735376 0.4410820032899759 0.824123923817084 -0.35721158972756545
Ni 1.7932262681292193 9.099652353305725 0.1261651769053949 -1.0525078185452583 -0.9135643752681041 -0.6933272780167801
Ni 3.253049878210105 1.6917870684941767 12.94848723837277 0.10335654731148004 0.6793836713524944 0.07209604663530164
Ni 0.6161886722407145 2.144802491893772 5.934382544079306 0.314823868789974 0.6520168493037674 -0.30442967003984345
Ni 7.134829751729533 1.2008617892454725 1.4967204528081293 1.118003843365539 0.22341009566266687 -0.18880947486966193
Ni 6.27237133866574 6.05754269385641 3.7917283386336273 1.8439946730536114 -0.6015741192721833 1.671004167494077
Ni 3.672144989271385 4.216304016149136 0.43469385848862085 -0.17195537942680064 -0.9667823540519801 0.12527288776859716
Ni 8.920159665306283 0.3018429788288475 9.887332564532528 0.04427876731271729 0.7419890048885415 -0.947465141780607
P 9.069933011899282 2.267090273746511 11.104124950331471 -0.9231990701443906 0.4022051237191202 -0.4948437703924639
P 2.8909390533778807 5.044906464350596 8.311393934044752 0.39744472621599936 -0.1258740116877058 1.750559241510585
P 6.608688018126333 5.04535689668246 10.823888934687233 -1.6962146053214335 -0.21430453381697284 0.15714633943842612
P 6.6492453129872136 0.5174465510989136 4.2320424895243205 0.38930821315179404 -0.15870468506448152 -0.10568313856212767
P 5.567012691960158 4.109625093469964 4.699830254909735 -0.20529641678109162 1.5555675490896113 -1.0249821023211638
P 8.971830688518658 1.0481192662607994 7.69671466974061 -0.9013050982847768 -0.6302190367023857 0.6035618391261734
P 3.3288971673980288 6.961514421424223 11.916917223684509 -0.3802494453836355 0.5829696167971186 -0.1558276206270026
P 2.645425855022401 4.6714153287663835 2.328293915900576 0.12257117256671793 -0.16382735100302753 0.33339854646836775
