# total energy = -340857.0005700339 ev
CRYSTAL
PRIMVEC
9.42426433341704 0.00000000000000 0.00000000000000

0.00000000000000 9.42426433341704 0.00000000000000

0.00000000000000 0.00000000000000 13.79336347118677

PRIMCOORD
 96 1
Ni 6.674264150067422 7.206574884306701 4.950934653711781 -0.3240381882993903 -1.2649678429543247 -0.6953749045744282
Ni 3.919655290763472 0.1438830740727539 2.8574888431986265 -0.16132978139215443 0.9072626014197924 0.9640040199758946
Ni 3.893173107394806 3.3041942704523977 9.924766500559688 2.559432666926502 -2.0404346678853376 -2.8762913067583176
Ni 0.3752902353921771 3.6406876359962514 6.461032625347574 -0.09199638510365446 0.3134339304209828 -3.646441090351791
Ni 8.26360039556279 9.260913766668034 12.835277198509367 -1.0706029854840724 0.6794880581408427 0.3912298556545391
Ni 6.259747298363714 3.671976194282362 3.5914336022098956 0.6750817015430308 0.2710593221095138 1.2864481243152879
Ni 9.16758527488871 9.05386267463615 1.5373256143298897 0.5729173747674391 -0.5292441022492047 0.18535571199310658
Ni 2.1802376324047548 4.170510364395913 2.445673928139687 0.7819565464204146 0.31985140391155237 0.07586039877374032
Ni 8.857960487559827 6.745897984866436 3.143218407776174 -1.4577175334186572 0.36488581844337153 -0.372230688844217
Ni 0.8603109525760726 9.024996152337849 4.285295079262584 -1.5305566288675705 -0.2848905715656513 -1.7247013999072167
Ni 2.2493928856286955 1.3645392633271136 11.024870325046443 0.2630328522606115 1.784363848764856 -0.2831093112955124
Ni 7.840790191060354 3.03252099644224 12.857553332612042 -1.6729947155615446 -1.5961788948530704 -0.8248762286020762
Ni 0.4461663593218538 2.2441341460131383 9.33832750291189 1.8170243151123544 0.43902614920221167 1.8978711113570925
Ni 5.659044676328557 7.649929985515076 2.329409603739607 -0.9061706539071942 -0.703068416563944 0.6186223330037217
Ni 8.837038620272127 7.194172552166784 5.6489484617225605 0.8939949377766088 -0.6364704169287361 0.21855662422510747
Ni 1.139054309847146 1.6984503803859088 7.289999416476726 1.238653373429512 -1.7270143643111096 -1.6210574032623049
Ni 5.611763141111262 4.352455215682557 13.261809045080229 -1.218944582146675 -5.090729751959052 -0.4324217565118166
Ni 3.7146021428149165 5.383563999442621 4.241942519933686 1.0931962974035558 -0.4774314884532874 1.0996878186651704
Ni 2.645362784709792 7.745275269906819 0.6308376503410802 -2.0025713171806605 0.10412479293607228 -1.5573822337008467
Ni 3.759339126605329 7.086358965783318 12.55303649666601 1.323083001929502 -0.029881875161096923 -1.3936063047610452
Ni 0.1420340333692193 4.1759481650378065 13.497634301617886 1.5414215966065323 0.30468138103933334 -1.001950674422997
Ni 4.597184517361392 3.7990247046001526 1.6256856338416126 0.34621806683053924 0.26757290622281016 0.8517396286518234
Ni 0.9672311186807675 6.034799527962754 1.2122572846927386 0.4165541933519407 -0.1510695371167269 0.018555651515000302
Ni 6.537744253882901 2.3686192563749575 5.564821821844006 0.6085690625327778 -0.5066201942021017 -0.009131015766990725
P 1.7371746833972432 9.186933289997562 6.122915459022788 -0.16413588338238183 0.7985237067504763 2.2619586022688853
P 8.451077290136768 5.22240907574006 1.148360771084355 -1.88891158817096 -0.41183544772003267 1.2275212680720924
P 2.7338566287780397 8.243300529734993 10.225393000101953 -0.24533543498084842 -1.6101934639646076 0.2679829971770352
P 4.291951437310018 8.983359751582414 0.8874434101982754 2.09000219440082 0.4937885896550722 -1.5032671970239981
P 3.7629863169838607 1.8816203860632745 8.156553944313204 -0.3291240874627299 0.038671191317952755 -0.7813901323939834
P 1.5490852116279046 2.915499903599276 0.7449918819097566 -0.9208267132574722 -1.0246614857569514 1.7317225684200561
P 4.709455780874175 2.762996454748117 11.816582056006672 0.8063077215712695 -0.3544317129895831 0.11769970340702955
P 4.727550368798673 2.261342853070499 3.179398159360626 -0.5083253498186665 -1.41957727490351 0.4863308478254463
Ni 8.821874978620816 1.8600293959929493 1.152257704473303 1.2895504173896952 0.3948957345419005 -0.19776385584947231
Ni 6.400479840799405 4.06893564114058 10.696380987379817 -1.4231207692803942 -1.1066161703538877 -0.24347781294681942
Ni 8.073333918683785 1.7456753700159398 10.605965535771047 -0.9303649917652106 0.4099356595941585 1.1948469177675227
Ni 0.3953808825470962 4.308849143637426 8.46347019801214 -0.8896502876546679 2.432788352731675 1.911476103735037
Ni 0.842447259132903 1.1106872735696778 13.208055867400564 -1.9758909796759971 1.896948342432507 0.3947334979324234
Ni 5.662493957151665 5.836343365195005 8.58914182328005 -2.4896968929932606 -0.34660810318010626 -1.449123363991743
Ni 1.1658097968875885 1.996803747320157 2.981477294818977 -0.15634441236242105 -0.22369625944451796 -0.8675141178772608
Ni 9.267322266557962 4.000223328350208 2.958345437495706 -1.569843085172019 0.6513725308515491 0.6147870184180316
Ni 2.235916187330762 0.49796117482927477 1.353936965715103 -1.2757623624666674 1.1870022249121235 0.14026576163300358
Ni 2.7010319153712556 0.216325510769645 12.81610353229458 3.4916786777645092 -3.764334397826865 0.4781305714028411
Ni 8.221125235262939 6.857245670453906 11.927190879253892 0.6764490142042027 1.2928781962113476 -0.1027363972289779
Ni 1.4842274230360322 6.096820612926879 10.480031915948812 -0.7338535202656006 -0.303400971665013 1.1956020507659924
Ni 9.190467389201563 0.03884493359749774 9.205222017771666 1.6170930192979183 3.383117703433954 4.328158809154101
Ni 6.465921933793005 8.09640451828752 7.340745311340399 -0.07418892460858836 -1.353558801920856 -0.5355258214928583
Ni 0.7925655693279159 8.823693861677809 11.505238282824962 0.3513006235597692 -0.9173526386659426 -1.6819655516015874
Ni 5.754550173217548 6.163167435316706 0.5704865450541531 -0.8455913496622405 0.9809128799160913 1.000063484702613
Ni 4.4574509469673655 9.29453954256106 11.007076371160899 0.49846851162924477 0.43374638886051103 0.1469190052834631
Ni 9.16892352045396 1.788329591342126 4.83672576140875 -0.4147806463912857 0.6390101526314543 0.9393558824099112
Ni 4.291282314527393 3.148872966502579 5.231933237488236 -0.7742974872132601 -0.628880263286304 -0.27296939464803316
Ni 3.103843830511303 4.2829135676123125 11.709503562257638 -0.14953535986038763 0.547001940453258 1.2328002570828445
Ni 3.2342662275358487 2.3591667190373165 13.362997373489257 -0.4339680179530139 0.5322193828274446 0.3476128902955369
Ni 5.8487456973349214 2.0837048906804667 7.963970983209282 -0.6806972479575955 0.29425864304411253 -0.06554564711129356
Ni 8.202144766471305 2.2404681071055186 7.733194305187853 0.0006887985369084911 -0.11127965881329867 -0.1672507748622797
Ni 2.6006823465066438 1.2809177640281186 4.6436188111961805 0.5808253167606061 0.32499746688886605 0.8375607660482801
P 5.8026233466565404 5.620188433613607 3.082678817198367 -1.5597471343885976 1.4983293934027484 -0.4577383808997343
P 3.640423756589019 5.1213621112991925 0.23606274800416374 -1.126699314257008 1.5611242172417823 -0.5417334929654671
P 1.198511994855301 7.746877394879301 2.531703327029676 2.237321777556811 0.0801338293381136 0.6147996168235218
P 7.100542483922052 0.5614024964601825 6.666374155791176 -0.5842505403920712 0.8919953908480767 0.1270099250643619
P 7.477173792158841 8.769692825840636 3.068112673919146 0.4879575847955919 -0.8644884436770596 2.3801295888853784
P 0.5572426260904568 2.568649271321556 11.537859432117596 -1.680593610954725 0.7889293781938218 0.500564474926325
P 0.5438648825702356 7.791473014701553 13.36553532793096 -0.27935138691497696 -0.40034004548592345 0.3050958428689326
P 8.03242318629824 4.022455168409526 5.226084538912224 0.12104933660555282 -1.2862761175137978 -1.6454170630535923
Ni 1.8948049321603437 5.807957480388449 12.720198446588924 -1.8578655174984329 0.8865045429368346 2.231972854540072
Ni 7.386069426811903 1.5581042327965215 3.095079264485374 -0.1628549597874292 -0.8375790208807252 0.6986479188987452
Ni 8.543764931927099 4.76026199103093 11.034359617015808 1.5541069053836847 -0.9495099401247777 -0.0005288759202765085
Ni 2.529284118321229 4.888328321919474 6.588400618233406 0.029901415545122698 -0.9198674346679965 -0.7876875353669208
Ni 6.75850765082632 9.30718690557912 1.258828230363415 -0.9378049929830237 2.2001377123073462 -3.080917951165894
Ni 3.2906987236253764 6.596570513166608 2.334182051304693 0.4926333930047064 -1.080673482346197 1.0600347230499227
Ni 7.190449967671901 3.2572331602295987 1.5366225641949065 -0.782145265392453 2.054509657921165 -1.5142272955799276
Ni 1.2705039517069883 5.724939134020271 4.371613803074074 0.15750372277784488 -0.036832595447317214 0.41935489602552944
Ni 2.373906268784147 0.5607098130161978 8.961976095332059 -0.24772758936210884 -1.7239472953500115 -1.0784911299828974
Ni 6.829161362112758 0.2338527579685936 9.256643632403144 -0.8490420272150023 -0.9684240034204612 -0.04608059640814644
Ni 6.998364607735902 5.260143830974274 6.542951160043467 -0.29066681192779614 0.45173974011413814 0.46430317860144554
Ni 5.942988342775015 7.305755844367855 10.394016653455639 1.1891100152837457 -0.5387898369561108 1.0395438021854224
Ni 7.759939425537298 5.936504448768736 8.908829840289027 3.1489035751772483 0.7500923507219662 0.13888585056634145
Ni 2.6395480134861384 7.162667235796161 6.935703615209238 -0.2072638249201076 0.9712984967547788 1.477868040224603
Ni 3.09511696154355 8.141575018246956 4.877319838505616 1.4252059339441971 -0.818551314825313 -1.3347393552215077
Ni 7.774085246617855 7.262913137750789 0.49890077400431254 1.0805174163843068 -0.5158723089279891 0.32697541655084333
Ni 5.461106848110729 1.9640638522942684 0.030279219553447635 1.2363879744341029 -0.9271038045154356 0.28725907179782784
Ni 3.6376341742839924 5.970846468767108 9.707507045173731 0.2772633940376967 0.5891621187610756 0.10430708415020744
Ni 5.446141116014842 8.916758474049901 4.289074209344731 0.8467457749816578 1.5250326137255477 1.0236844665556628
Ni 8.854153084684047 8.894441815609687 7.362193995016109 -0.12763316047065762 -0.7492878525428 -5.282362555210121
Ni 4.603922866510359 8.226911733692962 8.784234466032041 -1.5422150390421052 0.21699313639272952 -0.6891201819139681
Ni 0.6756443736891182 7.3930999281617344 8.93903743543194 0.48506637929072594 -0.5719272429400278 -1.9166779596509504
Ni 4.395184831125095 0.47706381062938846 6.170875541287251 0.25763636383538857 0.5604994607190605 1.3528941717536636
Ni 5.901945670685854 8.144411721874702 12.641659453158512 0.5018330572261035 0.8308774404908337 1.0056319799293263
P 6.442351848168438 5.6569147925416114 12.109869880748516 1.6064910754123558 3.863293330291282 -1.6646864528061651
P 4.781315798022248 6.8955553058253045 6.25791145163054 0.051324104195272904 0.054887396066499027 0.13760544119202106
P 8.163175432581825 7.839320005791488 9.91857381632782 -1.204718411244964 -0.5486297058646681 0.8911032180511105
P 0.6083164853602611 6.015140512123951 7.062519346192792 0.4561255278866596 0.5637225956420485 -0.007200117292865019
P 6.975030128724936 3.9453364116458975 8.565126912369005 -0.10427545958132364 -0.5029805405669854 -0.3564292030355861
P 2.0902830273321853 4.220213935601018 9.70033517985574 -0.5219023171721527 0.4769157251591335 -0.33588943121102155
P 6.479973512228124 1.0542736260092378 12.017371666675517 0.0639559340266705 -1.0334711136287815 -0.2243644891561362
P 2.008197683153864 3.4807013210971487 4.659025598872727 0.13738509765109885 0.5849845903446184 0.22026512227578193
