# total energy = -340859.9025710602 ev
CRYSTAL
PRIMVEC
9.39487946371296 0.00000000000000 0.00000000000000

0.00000000000000 9.39487946371296 0.00000000000000

0.00000000000000 0.00000000000000 13.75035574411761

PRIMCOORD
 96 1
Ni 4.008081000830342 2.2947462516356674 5.5462886228306285 0.29680454939441786 -0.6384594223343069 0.9659873689545107
Ni 2.654147360543663 7.418459778455175 11.159527034768567 -0.5901082847244289 -0.711839992108987 -0.06918607207735826
Ni 8.905828889917393 4.131830351412909 11.538377422873042 -2.942124917423675 1.8680275456330988 0.8258787017246616
Ni 6.06787071521127 0.4083568856276054 11.208698893712851 0.04585973864659199 0.48303752178615517 -0.3768789862495057
Ni 2.270648386144908 2.833354683832645 8.973674950513132 0.39731308573414154 0.17375463741906852 0.315329861892115
Ni 2.139486475768107 8.560642233441179 1.0843804598858482 0.2837826832134532 -0.1507987999538435 -1.2573038986511638
Ni 6.193987575385912 7.185617089050503 3.5131747288296076 0.12016796244186402 0.41567024808509057 0.46631815214894523
Ni 4.675906603382059 0.5115887592334595 3.4566335265360255 1.8114375650531964 -1.302438586206273 0.26494601012292435
Ni 2.7197799875683986 4.999494432270259 11.055079463776941 0.6832588380371846 0.1441923503809194 -0.10800690159929786
Ni 6.716145573869704 5.399641132848206 10.698560703848504 0.3140006015577302 -0.8341730805229699 -0.6583199087036598
Ni 8.303626519511077 6.392661088654173 5.63878684679781 2.492328931299469 -0.8022831737929087 -1.8612426615007813
Ni 5.482099988759472 3.2510979934024804 11.794174620953573 -0.25854473458227084 -0.6192075160832304 0.08480963754722813
Ni 8.415143737201259 1.6876209644585298 1.6277943728619775 -1.0286721495782414 0.16860317512511608 -0.36220518628741494
Ni 6.065381072187858 2.767111389651224 7.195533384187148 -0.4417026675931103 0.9826023518033723 1.1175472154440946
Ni 4.159723748154455 8.065222061540895 13.168880339446904 -0.3741798421507878 -1.326750166368444 0.3811480459385049
Ni 4.483198838490651 3.523699812147073 3.5668420375350327 -0.05516121855317596 1.6086562013844745 -0.46682183125824117
Ni 2.6491680744968398 2.6289127146535347 11.66852468628181 3.2488441548286437 -0.6083700591480942 1.0424650895972758
Ni 5.290820245526775 7.224089119921715 11.063481304365006 -1.5994645075828777 -0.08391823608121032 -2.304327297043083
Ni 0.4668071274017812 7.975040614817387 12.532170577248168 1.7578478047521984 1.2053938400454336 1.8036576639974613
Ni 0.88415491255167 0.8503455602937376 11.678396825485589 0.9689569931057957 -2.2294454601325278 0.5251534771195988
Ni 6.220424765830745 2.6802087558151513 0.7627167022851754 -1.0578569986723136 -0.51525858660339 -0.870271883128056
Ni 8.017373941094721 7.905293030644521 0.8526172421166093 0.13954071054152095 1.0497569952729984 0.4317363004090177
Ni 4.279019925932882 8.906308028763409 5.489733328218046 0.38130591167260786 -1.1349163028501617 0.4915183055636567
Ni 0.5864762818897533 8.124625883567436 2.8405070054693375 -1.533690803621178 1.065675466275468 -1.4306502448882201
P 4.275271369078764 5.610405855818849 9.19216790122362 0.11750609933898472 0.4621737909632686 2.4095697485233667
P 8.855876316500485 8.369625546829825 4.6543716609735135 -1.8158506065192277 0.5457675538255246 0.5898735430058034
P 6.375196007972957 8.00267095493759 12.520633665426471 0.6548954564031431 2.1948368689197233 1.9998351491964206
P 3.2554290327752833 1.7454934211536877 3.1780368352886437 -1.2877431889776274 3.324186990536017 -2.4927449357909652
P 0.47507931865504194 3.580520042356864 2.576170801562472 0.23100487729078925 -0.6138717056926138 0.5332331688039397
P 2.545307683463566 7.471550241569515 2.989561463537036 1.3526226632598317 -0.8631111037135587 -0.050538889289816195
P 2.41558318962481 3.439380770127748 6.868894098491386 0.14175391614275587 -1.5846639522349353 0.5290399566581986
P 4.690261979003845 6.731684704287527 5.985240872496132 -0.24530278197070016 0.34153197420877957 -0.48085105565779773
Ni 3.835299775005562 -0.0453180794416285 10.159821682828788 0.24521922111795832 0.1446615767078541 0.18374902962761902
Ni 8.032424537787195 6.768296549050681 8.078512997334181 0.25510125611836065 0.7932118076192598 0.19546503251296657
Ni 1.3744238721133242 4.2700572110485995 13.082596828158918 0.41879079599194324 0.9187322926222887 -0.14467443222366053
Ni 1.1726312589062966 2.0489856031472544 0.03923865302483687 -2.182768882011596 0.5697438621354639 -1.5735711847558835
Ni 0.38945344892040956 6.240069458517364 11.345761727799106 1.5423579923778727 -1.9419989549142427 -0.6974775527397278
Ni 2.7318899870294473 6.888870430418482 6.882506339157882 0.3527849214147795 1.6243155051882863 0.9558705922354829
Ni 8.406415894300318 3.9055922621797774 6.448311656386928 -0.3345452584783013 -0.2416739269688612 0.6106262021721226
Ni 8.243931456225196 0.08959708522895758 12.430224862623087 -2.236975449960986 -1.7459757359049608 1.5487595250288424
Ni 2.004669957330524 0.7657305795754037 4.355053623867879 -1.029965414468368 -3.354526779170139 2.5900915294629394
Ni 0.6249492522488994 8.78565898836094 6.822981323187938 -0.499586684394088 0.8171194674747927 -0.4067901719866414
Ni 6.818934948658944 0.04546839751096657 3.9310476877342464 2.3244932304679966 -0.5435972856470831 1.2590661327579091
Ni 4.386873140682948 4.49437874489767 7.475545883750109 -0.5708082988442363 -0.4434587310522685 -0.9075364239064693
Ni 6.948311831962356 2.9053476441662482 9.625812983553555 -0.7789072180711295 0.6228908784720886 0.7116296758703938
Ni 6.406377612481273 5.684475084485184 6.4822750846659325 -0.6104336265453423 -1.6631476475641356 1.3361737736751889
Ni 1.97758452021167 3.0347808967456613 4.452983967065766 -0.7831855337315092 0.5171018104597159 0.24532952144357748
Ni 1.34902011839519 7.423890018710013 4.947583966000223 1.0600540063236326 -1.150412855823864 -0.013886271063788988
Ni 2.957601963019895 0.5810216149486481 7.167895528163477 -1.9098925612980011 0.23270154826692183 0.21765648100834128
Ni 6.852127057344656 0.9534017496560528 8.391690360432786 0.2707479615166821 -2.389471949332227 -0.23160291588610438
Ni 8.256642727963596 6.432025633062081 2.73981362825943 0.3639617639672054 -0.9086180870064223 0.2971123104428238
Ni 9.12558451241032 1.5642098295319733 3.9482638041131226 -0.58365224468644 0.0057384451456739885 1.1843197929839537
Ni 1.9085885263854951 5.367275773543852 8.73844690124565 1.296350213920348 -1.8417138474392345 -0.5969918992181396
Ni 2.1566697100693153 5.18079681365064 3.0677597416705007 -0.527505522291543 1.3826338649099414 -0.3013374042677649
Ni 8.054192473203214 7.6160998549967385 10.994839497489709 -0.8807419294214444 1.0874015450986498 -2.4382810004151296
Ni 0.4032207050959102 4.824524199560743 4.618661724626388 1.9297880146703477 1.2936181597011658 0.8331891193431457
P 6.078261451754264 3.2674075039256607 5.1929725772670245 0.669121370194538 0.3276073937078874 -0.9575711198663573
P 8.708414290479837 8.927634404850748 8.60355616326133 -0.5188049091937517 0.10649714982299079 0.8028084501687593
P 2.7303022524220637 9.25467015445439 12.191518829026297 -0.14204342235871667 1.4149647158321632 0.5010308730397822
P 0.7583321121001706 2.7208697935710995 11.077973845225063 -1.091916659360184 0.8321686484984314 -2.8820894014973333
P 7.317718487360667 4.668973182433841 8.509284186075961 -2.3169601553157455 -0.7762409840928761 -1.6672824956681158
P 6.064460374013162 5.123469259956834 2.9247283407435924 0.10128732348727716 -0.06961030409897044 -0.9050128861536672
P 4.101907660735299 2.070997805425948 9.988753143506528 1.1543173330845926 0.8228391435673893 0.5625954240161407
P 2.8554890195426768 6.216779552649296 13.339357001371145 -0.6424400042486097 -0.44115810794355 -0.5987549046558334
Ni 0.8660152795342982 6.409928876869385 0.5176277876691165 -0.11256521039394163 -0.25349328820129247 0.6963244129718912
Ni 8.3159807858348 1.0547161283899131 10.356203785027578 0.5512347475876829 -0.047592662177298684 -1.175797871555872
Ni 7.868502683174029 4.098797955675868 1.6921878153026073 0.4673201110508983 1.058623444524693 0.4190257948208848
Ni 8.113417792522416 2.221259505488018 12.674073653167108 -0.5809122200474576 1.927115610044507 0.6196574591364553
Ni 7.171430821256721 8.091696831503064 6.380302124890785 -1.4063618046545006 2.760519930722252 -0.18218039958891852
Ni 4.948611765799321 5.602889952351946 12.780350407164992 0.2511715820466513 -0.9930374310937672 -0.3816527534890653
Ni 7.284958543124302 1.3529753625946481 5.719061393264008 0.8355979858949546 0.49431849401661315 0.6586796060359237
Ni 1.5097571089142567 0.3837094196958285 9.088145918265807 -0.7100903564077319 0.36761401600781207 0.1898471721055569
Ni 5.865176193588214 6.806120333247874 0.9403578991892417 2.4118778278312525 -0.4975979360988333 -0.3689139657661582
Ni 4.197237501333637 5.287203216983328 1.2827871585810355 -1.1323554841015206 -0.9178475760244903 1.003865889167839
Ni 5.715252709182154 7.52296841616247 8.717862720625668 -0.5573128354609628 -0.0552684335550016 -0.3259050663048
Ni 2.6424131562559596 3.4056531533200185 1.6923663180099462 -0.24675776924967177 0.2451436306850165 -0.5681369226596603
Ni 1.3308128422466161 1.2928199502214186 2.147035261312678 -0.5550505217893473 -0.03732547592333572 1.1948320053691872
Ni 4.479694548499207 8.16890394986683 1.9134165548750475 -2.0809591103619454 0.5373353638977714 0.4677767389723428
Ni 8.989302392796692 5.175545076103142 9.424493872264941 2.3594792596248784 -0.15920347907777097 1.2020254377938329
Ni 1.045255484900948 7.3888659085542425 8.89397724963802 -1.0474337464564607 0.8190902180479183 0.41089956616932466
Ni 5.342144471326393 0.5599470216274505 13.625392558074896 1.4197004307449355 0.38461954942687304 0.5204288179504198
Ni 4.134573656178328 6.1068030951698296 3.9755578075531828 0.2052809901621239 0.6229721253319852 -1.047850522278905
Ni 9.237421155997845 2.6588823797278125 8.60658131440676 -0.03744014712432907 -0.13319471371883512 0.09988298694058283
Ni 6.479761014956253 2.363394634926498 3.1093132929631437 0.20899494867860133 -1.0399276678874023 0.18943553848943503
Ni 7.626077216849053 6.355758002631678 12.858109004945641 0.9017691824053888 -2.0033285070616595 0.5410894316235649
Ni 2.8630425025269144 4.94728708781328 5.546728303183442 -0.46756745117501414 0.8097846243762764 -0.5235791906539434
Ni 3.1456028933651545 1.4083487813870603 0.6816877470084879 2.979030532200773 -1.1660284508739338 -0.6831513659250429
Ni 8.00318767330094 3.8687455454332826 3.986131744243183 -1.9159068858128812 -0.05307322567589569 0.5364761012212697
P 4.968181299451272 0.6836484583254164 7.2424081951343595 2.187542649251155 0.4097240578039847 -0.383947463060513
P 0.07661524096574839 1.6412478400677348 6.610799852413783 -0.44101901126252435 0.1388753090433802 -0.5973999332898358
P 3.232035783234546 7.6465768435550325 8.984743997344014 -0.33541943355313847 0.2551467646443154 -0.43518414974830205
P 6.334074621129661 -0.06327545179992788 1.931925406650231 0.31716023023263445 0.16405952161849166 -1.7100512540942099
P 0.06912846162477905 0.11934221268716186 0.5948179952500829 0.8935871608152288 -0.5389772703765685 -0.08239305768593552
P 4.159169450273771 3.4696698610993697 13.554303385133188 -0.26276931418657967 -0.6251830169403749 0.6634181491621736
P 0.7257901290643447 5.972869695389608 6.849671235886847 -0.4983672101646901 0.0032521883887105278 -0.24851537537072682
P 7.145519744054572 4.357946307214703 13.504843103393362 -0.15353008284207753 -0.4938197000033237 -2.4003173766871626
