# total energy = -381162.4623002248 ev
CRYSTAL
PRIMVEC
9.34602211553197 0.00000000000000 0.00000000000000

0.00000000000000 9.34602211553197 0.00000000000000

0.00000000000000 0.00000000000000 13.67884807648520

PRIMCOORD
 96 1
Ni 5.134218487895437 2.2727469353659915 11.284379473321394 0.509611929840574 1.2437300166214709 0.6754640245831142
Ni 7.847237827143446 2.720776537499305 4.571525345779376 -0.8525531256920543 0.5121380386965373 -0.4884450659549717
Ni 0.9727993908225249 2.9076689392236124 4.447102689635177 0.8158876519502207 0.5214040373794956 -1.038630546342534
Ni 6.197319143180645 -0.06027249581037462 10.91801821513905 -0.9929471853728061 0.048340596086916744 -0.9640261314630816
Ni 7.549538988711462 4.321918332698833 2.2955568366335988 -3.1321777777821347 -3.833386258319205 1.2465893404471369
Ni 3.8416823387896555 4.6489823722218695 13.682951902732208 1.4062293928416942 -0.026646913163567012 1.065243778054688
Ni 0.3399232311784081 3.433401368177744 11.732909087631146 0.1361013458426688 -0.17239400962611598 0.2641433117159709
Ni 5.099647552556227 2.419432750491411 5.8236324729629185 -0.3875660336497067 -0.14705835907480477 -1.6478917498463297
Ni 2.4260871181479446 8.88733792231246 13.230619392074923 0.966217996908078 0.0018542795999193869 -0.5306381543832539
Ni 1.378351323013498 -0.01886307618143574 7.27554633505588 -0.39774580239618595 -0.15342980981878737 0.7721912395035347
Ni 2.302897202304163 7.914931064413494 10.879991120868116 0.18124477514852655 1.0030050838294404 -1.6108323831001872
Ni 3.322454741140225 8.3438947816882 2.8285118713812265 0.3742397488544458 0.5184266999187265 1.3589828011499046
Ni 6.086578128626896 6.439128770115335 12.89111018967065 -0.781029663730771 -0.028111927744867714 0.740160179209919
Ni 1.1934309319289775 5.17799525489432 5.516268913191579 -0.6560025734243927 -0.6076311240995406 -0.014016883104382311
Ni 7.867864497674303 6.276377143189943 6.0250261624061565 0.0701296669375502 -0.1575029514468965 -1.3677060399555154
Ni 4.3699568857249345 1.6176001399230624 1.3017746918424167 1.8340514457979704 -2.1290865619967914 0.32399602220754525
Ni 6.940561541896731 8.549301652973735 4.773753634986277 0.7194586849965093 -1.1586617260962173 0.6899393353811537
Ni 2.157837595004919 0.3583489135307346 5.272634942764536 0.5472225411044963 -0.6101657175959362 -1.5041593698209643
Ni 0.6664218363710787 6.914972133689442 7.270977999507406 -0.2836441007530599 -0.2140926749164829 -2.379974808475069
Ni 5.005850875869465 0.5806468503579177 12.72901558809112 1.2626880457812124 2.1153843819193505 2.0925807537612737
Ni 8.378820865863013 3.730829171972032 0.18434280692556848 0.9161421632976093 -1.3436860228918344 0.34773990279170436
Ni 7.690458308269352 7.6749065276788 0.7684159089448419 -1.6504919064733383 -1.632862109206717 -0.08456538274690598
Ni 8.897244705621345 1.3520983472449537 8.043353817969205 -0.7346490195837025 -0.7180191243365053 0.6349043579931968
Ni 5.156088179350899 0.396576947274443 4.099236274367881 -1.0306932937733282 1.770433097616377 0.6017821215179313
P 1.00710863754603 6.6480310536249485 0.5528742114138785 1.2380746181079065 -0.4775957819452937 -1.3790687732665026
Ni 8.7533440050488 5.836786998913159 1.6106709992200368 1.5355705371423942 1.6959364119593825 -1.2237384039908925
P 7.854938949262806 1.835502642608577 12.646067773729786 0.09075814182117918 0.4634937953262728 -0.416366759931483
Ni 8.269332218255858 5.839011352146663 12.80731375651267 2.5274905668022662 0.9186759854630566 -0.2551657908077089
P 2.956716862624581 2.287597764307329 5.6125273320703775 0.07477307924683252 0.5838291365839364 -0.16411505744677543
P 4.654206798514007 7.604147795196192 4.798334607420896 1.4771622724068303 0.6012522171563903 -0.8271190018896658
P 7.907183212184187 3.249639883819923 7.54277620719985 -1.9079377515644755 -1.9185021573438827 -0.025445693766614243
Ni 3.1549646810661485 2.0047217167507143 13.072273479915387 -0.21845352298833992 1.5268167022091639 -1.9485760939111276
Ni 0.6719958038856247 0.7997288210185091 12.378536959677756 -0.683543459157139 1.7794263022539225 -1.1724220131051035
Ni 3.5128425550886115 6.452867422439922 9.221075956138208 1.1972614407462865 -2.247321826192317 0.6862927397675019
Ni 1.526196044865617 4.338208449026556 0.18728026163687267 -1.0796465837435794 0.2900877994958746 0.04763739937230505
Ni 3.820410792741522 4.858006154017346 11.431016689132468 1.2686566046598216 0.7847176541053196 -0.07240637878686884
Ni 7.869780432182153 6.829540146683296 8.263624602626862 0.11289611137079912 -0.48724204678580607 1.4338127017766016
Ni 3.6111627064182965 5.652361946994083 2.7044864211715822 0.8802120250599035 -0.8759655910787235 0.2926529891198895
Ni 4.484735381778154 7.948315054960037 12.088599992508062 -1.5808592337768645 -2.372296465994205 -0.7416228797983744
Ni -0.1454839166975679 4.788789515163006 7.5508193937240256 0.5102241095032762 0.6513041395074589 -0.06455834349735978
Ni 1.266778512502682 4.577008656880624 2.762292501778924 0.3802633293407064 -1.6538484816503967 -0.1753543778060206
Ni 7.177501891374886 2.4514709138714643 10.161674562798062 0.4295611471345699 0.06819465469836643 -0.3707721020208195
Ni 0.22205680945985357 7.893837092783162 4.684950537848514 0.489369377541454 -1.4813030340480813 1.6588847585227238
Ni 6.223030049673797 4.566139233306819 5.161002317712986 -0.15036376929895395 -0.047198254952357424 0.2980906151956931
Ni 6.803081558430983 4.276412551631891 12.162000845407107 -0.8430752681086061 -1.155515981378384 -1.7970542997483308
Ni 6.014884793945335 2.943109054607849 0.2728804770388297 -0.19047632104912357 -0.1558240210825768 -0.11673168306680541
Ni 1.5623744959870252 6.738977193604908 2.8920638863077213 -1.4389669922840316 1.5522809079185396 -0.4609496887481804
Ni 3.675482029750131 0.463878586223131 10.782201823587434 -1.3842446610404868 1.4840751974765796 -0.1853037757092486
Ni 2.8531255548928103 3.1001315700536707 1.687710258479599 -0.2752232236792163 1.9859625049793859 0.4160993652027092
Ni 8.255967406810854 8.335651590293448 2.878302803530361 0.6002453731584309 0.3122301399208687 -0.7376669804744199
Ni 6.542364929011505 6.301302983835976 3.535257119626063 -0.510693592940527 0.1361602241050623 0.2261930577244427
Ni 5.1465085068116485 0.31892552357456744 7.102303798447258 -1.368222831690934 2.922621300173109 0.05805242405804195
Ni 9.242832560727598 0.7894949269399915 4.339176696904669 -0.3118760990155597 -0.25745278706967273 1.0877710126229265
Ni 3.753147472482991 5.340980532369451 6.680640258948562 1.7290339658442995 0.8613126170522393 -0.5836170205731304
Ni 8.718399228830007 5.421085286841574 3.8146751390465568 0.6311505473777195 0.5151613989038935 2.7506312108536304
Ni 2.3781794094296966 4.519586697777051 7.969939880639375 -1.7887786900031 -1.2582726903223362 1.1485135819186219
P 8.517403679923524 8.566432911280513 6.945763537736095 -0.27322239119910363 0.29808058789336406 -0.4118958686443228
Ni 4.588588378125631 8.471467981845063 9.076832256558648 0.8821331533420164 -0.04433250336878817 0.4407937826255957
P 5.112619831077671 1.3938376814501223 9.170149482317346 0.31517456726117327 -0.3069447231522133 -0.11221579747432288
Ni 0.4294646640533432 6.856353883771212 9.832410469698695 -0.14431576333266113 0.5406325465918044 -0.5745520821573847
P 4.655094670603011 8.608471318189347 0.5528704730050826 0.3674204119397672 -0.16694378514482217 2.0143420845633435
P 8.60647126948359 5.01192579016265 10.492852721200881 -0.1730007899721795 -0.2524789880041652 0.16030134012764005
P 2.0704055592930173 7.650532102330148 8.46542858243544 0.9480798925464704 2.0799080433896115 1.9189940093786373
Ni 3.237583515453451 7.117173319432573 0.9467838040125142 -0.5910655064313756 -1.6048633100009457 -1.3948000679588302
Ni 3.507926547522127 4.36387262540976 4.7652319321362375 -0.6546476020583951 -1.2621666260601034 -0.9210288019659492
Ni 3.0429432614998357 1.3488365855706135 3.20183498134356 -1.0719726121380893 0.3267722994011018 0.8937167444145576
Ni 0.28766681842843955 7.9496889201924965 12.116572636322676 0.08116587014705376 -1.2650030670676342 0.14965954414307775
Ni 6.465662126543566 4.749573606895006 9.40772349208639 0.954891259041349 0.5885183145294896 1.2548896327827161
Ni 4.133035228290759 3.5007020725242333 9.682695608846473 -1.569951328615109 0.2573000635418924 -1.0445016604113302
Ni 5.541882621056041 6.203823974485346 7.8533136760388285 -1.2131128059562462 -2.6757331759931597 1.2946458296347316
Ni 4.918073037343952 3.033924350279955 3.3734503755238086 0.8436049153598311 -0.32829619224479584 -0.5469991122397805
Ni 7.698075316190805 7.247569018230271 10.727458434386056 -0.5774288894845475 -0.1254567216446291 0.5335913234743068
Ni 3.712623121136459 7.753656108962445 6.8643877242733975 -0.10165164880523136 0.4223216919633372 0.8841836081131418
Ni 1.3752671357569584 1.614740257194271 0.6828764426858167 -0.6642869249203721 -0.15316087242811688 1.478647598703105
Ni 6.260993590995202 7.872462740493144 6.968634188146633 1.3036776008196966 1.1370901705730287 -2.194371242137214
Ni 5.489143018969214 3.1837784668598195 7.840318967064609 1.497876622136046 0.3127484743181839 0.5414180186075772
Ni 6.939935358423433 0.5732476047488196 0.850074906873821 -0.49314298565127324 1.6607210404005142 1.8305858558468733
Ni 8.525207608284767 0.5197304136324655 10.437972880078457 0.8494302637923564 -0.17859191090671178 1.1047626620849167
Ni 1.0881293021731253 2.568539185312114 6.709871811925163 -0.06558987008566769 0.4581888381735915 0.8831615946065307
Ni 7.314168770927546 1.0288568307156287 6.3309261351339385 0.05916751149909165 0.38426962228662204 -0.3736957034255177
Ni 2.1092756647474054 6.185711383869668 12.25182920115712 -0.4519441428154603 -0.07324892929282223 2.0254245676297504
Ni 0.4442482016363562 3.1992367872304754 9.25406928296559 -0.032504914606240796 0.026183086153271036 0.20427543171574497
Ni 9.022425324148893 1.9310563714293663 2.3484254138238803 -0.9893797797365219 0.9612549964758478 -0.423926831666928
Ni 7.545959462289478 8.93653538206526 12.660115779382224 0.8303753040434344 0.31131765540892836 -1.6935856523390187
Ni 0.3599386718711509 8.702641835755687 0.7657541618822283 0.0409522740426456 0.773072099446591 0.4368630801126218
Ni 1.7748749979626006 5.085993014429546 10.197526837752035 0.20174700886693642 -1.7025158649491132 0.35819272269391217
Ni 3.061682035588811 1.872699810126842 8.113184490468255 0.7087736944788374 0.07355489056901526 -0.6741638177144518
Ni 1.366724871658543 0.8811448223757606 9.50093136938781 0.5614818792369879 -0.6169027792094537 1.2709351162813531
P 5.946331722652251 5.052123030739549 1.0436581257404218 -0.6687968969755836 0.23916658716597522 -0.544294568824424
Ni 5.841188975270221 8.27852870389354 2.4963897647574655 -0.2902826891155001 0.03083498310298561 -1.6154760525197855
P 1.1299807886421682 0.17325094802841345 2.651344005537008 0.6611152120606099 -0.059528494382936184 0.40941141165957234
Ni 2.6791119714700526 6.857802517179586 5.052063216198815 -0.3324945465968596 -0.024647880455667227 -1.2546988569281488
P 6.685966556880386 1.63917075867486 2.888849789345528 0.08540536214969807 0.161926791546205 -0.09119908601333972
P 5.607613193708291 6.822642782455035 10.592174766087844 -0.9251675067246712 -0.5487549185886227 -0.8289293156255273
P 2.2958409557020802 2.473751830294465 10.729907092147307 -0.2288045272053608 0.48306323281776803 0.22853507559405803
Ni 7.095752237032608 9.063837547584427 8.895983927254958 0.040227222951162975 0.3154640734771341 -2.186404421881654
