# total energy = -340865.08994533104 ev
CRYSTAL
PRIMVEC
9.26134644231759 0.00000000000000 0.00000000000000
0.00000000000000 9.26134644231759 0.00000000000000
0.00000000000000 0.00000000000000 13.55491666957422
PRIMCOORD
 96 1
Ni 4.314370356133655 3.9473524664762767 1.6593387331931426 -1.2176081227234385 1.8836783647964785 1.960497270828746
Ni 1.5007918948519636 6.7577913313867795 4.1173870786782905 2.5900683895344874 -1.754931145326036 0.17642395672111552
Ni 5.915425585246659 1.3453031530351698 3.897892246947265 0.06718215427345203 -1.239750977369065 1.9306873865561651
Ni 5.62544357351126 0.5499794889240103 9.46492358366582 -0.2460165202082731 0.5948967072520077 -1.2289047786831802
Ni 1.9706662957141372 1.196797466274059 1.2254529976371742 2.0544772620213325 -1.095967689501106 3.429032463688198
Ni 0.3600144596399941 4.522463544523764 13.683145421667401 -0.18047730085488273 1.89652179641805 -0.2878275427067882
Ni 7.432378529265953 5.479957085620377 9.843349599606475 -0.5700948177169795 0.14129317445625345 -0.090709805081747
Ni 8.187159724130748 4.222210699821849 7.616385734521692 0.4135606579412555 -0.7158074613971672 0.1607988485893489
Ni 8.54082275252779 1.9502728113207497 6.330552464018428 -0.6812749748379364 1.449173243393072 0.4871687703457093
Ni 5.890975631205541 7.9115605830869615 8.40806042821914 -0.8243990318553415 -2.9874534661571457 -0.4888489862616098
Ni 7.673006826953959 4.98750352265508 3.462237594261806 1.4023046038659914 0.2605419675179577 -2.5126743277250405
Ni 7.875043094911154 9.159063919957656 10.86083628929686 1.001075213796579 -0.4718871615962905 0.08200507821889749
Ni 7.142591005801334 5.178713276872099 13.610491086645744 0.8759581348795559 0.0033398630065103775 -0.7330155977453375
Ni 5.4810128790903345 5.74946226084634 11.327559054037748 -0.9010158491791321 -1.8288691302660824 -0.15976577933914418
Ni 8.78914722893101 8.59114890792909 0.8996888486164467 -0.3536873786243908 -0.4649703798717992 -1.6035628460219675
Ni 6.866556581484845 7.281112961328988 1.660314879085542 0.5773193604898766 -1.8713553244547512 -0.7529079657938904
Ni 3.9007678949509645 3.604312202202405 6.595727033748321 1.3564633771621606 0.8574281943961685 -0.24277435912189155
Ni 4.466395354461291 9.092928646545678 13.113812497531372 -0.2932327728827595 1.4202822713903345 -2.0366638879889956
Ni 1.6314139220473927 8.836407878730945 13.171000384352775 -0.5171434623309287 -0.866658711855501 -0.5671164518149459
Ni 7.2461884247043455 7.55983317605151 5.7005475346101395 -1.5651317957392787 0.6863392767347212 -0.14953253164691022
Ni 4.572567427615601 2.788026407039477 8.920829680269511 -2.482933606127498 -1.2288212178304387 -0.01104237385709066
Ni 4.419569987934058 6.703334615567925 6.421912866150785 0.9152993556813398 -0.18849708583556568 -0.2819140054358306
Ni 5.4065609167658835 8.40709817434608 3.0511032818487966 -0.7375381682060395 0.8607904260001822 1.7564064443199816
Ni 4.62861709498562 5.395891845911577 13.585686423044107 0.6243024141076345 0.9001658424740111 -1.470744027585312
P 9.035304550316953 7.932982076911623 6.82589001019903 0.29680994871105654 0.39236216948676944 -0.7282001786345653
P 4.082410678514773 0.9376927828617987 10.884733340968184 -0.599965894244799 -0.13156900518995404 0.3272034734012494
P 6.098855808632413 5.2965176008883965 1.9498069656054966 -0.32989747529364477 -0.7033417248299887 0.06040601189188306
P 3.0559664147529597 1.8899351406473082 7.53948877679313 -1.16905978150109 -0.9135538337451429 -0.019956902737901114
P 3.42092828554779 8.203765317917009 1.040340913776471 -0.10886256473137382 -0.5971775328663844 -0.34006978784095626
P 0.8857838633901834 0.27843033458559435 10.96145433311842 0.6636104676786377 -1.6049170460570166 0.7110324086060271
P 6.000713322657515 4.0222674961121125 7.367503725075563 -0.4000711080952529 -0.42085127806539774 0.04914303738355408
P 3.79951359664356 2.221528380983748 0.5990081297188119 -0.5634562293545393 -0.06228008898614435 -2.544587117273237
Ni 4.287410577264831 3.118276752172901 11.481068646165683 -0.131948757126876 0.8063876828795854 -0.23195078614382633
Ni 2.2587775155115426 1.9204327537751122 12.63437483055448 0.06315812071572349 -0.019844031309120665 -1.645485197287366
Ni 2.0445255318800157 3.6084612853124125 1.2152034657669828 0.08435558072894504 -0.08877402151161486 0.7929289862715182
Ni 3.827649566483302 8.890957208012077 8.08869309103788 -1.07771259994566 1.0037450473192584 -0.7284338919119262
Ni 4.410317903052589 7.842693212537811 10.362990770557797 0.2527612951312744 0.4148996884676532 -0.8696530185971345
Ni 1.5615463261056517 2.1605609387668228 5.6462732673119715 0.37349618582020194 -1.0904855833406122 -0.5105760935260562
Ni 6.656916748274711 2.8157641389914283 9.295853077606111 3.1014700642856328 1.0769952621636611 -0.12017079065534143
Ni 4.091486797817915 1.8970663772426344 2.6513826525268 -2.3020667831436805 -0.5773049623121735 2.1939020158102798
Ni 8.935013432017227 5.961315555804895 5.413617136456765 0.2326385562394703 -0.23930902628111045 0.8796484392469496
Ni 5.845780261614383 6.175539755397738 4.192698493932672 -1.1015097023652578 1.0137723496482733 0.2593875421985403
Ni 7.769861985803208 8.930725428713805 8.361756475484524 1.6316922572683317 -0.3079371689724697 -0.6342965492058689
Ni 1.6354148236177575 7.477397933278785 1.8451898724828162 -1.6004633811610371 -0.09057250817293434 0.6744972897944707
Ni 2.7030072486692247 7.484482863142973 11.638278146111583 -1.4732282274597466 -1.284647066550807 0.41111425328329193
Ni 8.39958722255542 3.2340898867502434 1.5866982901908293 -0.33677851868419423 -0.7907224655385028 -0.8064414189356562
Ni 8.02916115748625 2.2927851788596434 12.585685155031612 0.43790000601756845 0.13335695032831227 1.1213411352688882
Ni 8.909415071043876 7.5811157496827555 3.2106985045829513 -2.3498044555392754 0.20596310383081307 0.27391478928043794
Ni 8.09236058414405 0.3478070791772676 4.806329363210393 -0.6267555036338174 -0.9404385739511287 -0.8187742294693964
Ni 6.211001450103588 3.065246283673112 2.501695217987035 2.7892504658877253 1.6674714717504702 0.287565290184337
Ni 1.6537059824174578 3.748807726046923 11.104702353626069 1.9511140298416332 1.1205078407343154 0.36786675544856645
Ni 6.080314593484565 7.329160825558278 13.025162891439864 0.4224564177689886 0.7916717168256495 -0.6866400958045916
Ni 4.777641417135482 5.2314381209463745 8.795649620117477 1.653462559065888 0.7911438693466374 0.13361945996107957
Ni 2.7492676730765684 4.238140215333487 8.846073945788792 -0.667490005238702 0.5068045422987658 0.561314243310872
Ni 2.4046159345590765 6.057605772534254 0.2718288469944924 -0.5822499650222747 -0.6326204470550265 -1.275931798164996
Ni 4.282807688189666 6.591022269864652 2.246388612662753 -0.5217560214022756 -0.890334458205886 -0.9283726439255301
P 6.714179652000557 9.497140102653486 12.91965207840621 0.44089636964173096 0.15355399410147746 0.6389803278347834
P 7.241002070816836 -0.12623122294887829 2.51366458185171 0.7324221871357127 1.2429352886343177 0.394340890479695
P 0.6611212004641029 4.626505508045705 9.349273448782084 -1.1311329245483293 0.6282192326635374 0.8722467474662396
P 0.18821463484698156 1.539022732079894 0.47558679921541674 -2.20792301267972 0.47459093368069877 -0.8892599941947846
P 3.21303884677469 5.2808103576862235 11.761126199283483 0.11622260464087082 0.18547346851789348 0.46636648888837745
P 6.545845422965948 7.473943451135854 10.639891130746577 0.512359410678724 -0.29432600594693825 -0.8815721386322236
P 5.419999130142271 8.929947475630678 5.606150337049722 1.214814104918069 0.41177862634016826 -0.2990365240487301
P 0.028342497860619098 6.74838180361944 12.863751518710458 0.4303859570287104 -0.5534510385127114 0.07543231009738623
Ni 3.3792151821382452 8.61680283697981 5.508256981288349 -0.47575435786118064 -0.47306961194016584 -0.9142642295486061
Ni 0.9716170940938503 3.1628423502205756 7.790146186311107 0.5006791461273183 -1.6345474673289397 -0.11219651420061322
Ni 2.909729757817635 3.473523470774877 4.109376014191334 -2.0195961338734314 0.6507261555168019 -0.17077395752418978
Ni 0.8797426872458571 0.5100464162594293 7.44929437815084 0.24214135352358301 0.20342542501062386 0.4491146437864652
Ni 6.315191595165172 1.5975637015851627 11.229096125483373 -1.196014969933695 0.2278177378120593 1.8784199446110168
Ni 7.0350019466741855 4.290420514788832 5.394463746323266 -0.45372951685065727 -1.2869641447197577 2.348119354527369
Ni 2.2575642791557144 1.3080818025460583 9.567643026946445 0.9163069710102476 0.26265927097127667 -0.004951944688636633
Ni 3.1586376990332017 8.950757720604312 2.9939153950273947 -0.9831913915376228 0.02764835784488787 1.550372120931601
Ni 4.99670930080541 3.997613792453985 4.109389906210675 0.6381483188517914 0.27220500567818284 1.3087380460617395
Ni 1.0169328611859685 8.680113399792342 5.098125672671799 -0.9286078998647879 2.0800324847826177 -0.6995992270684209
Ni 6.831993237363083 6.0334243975337385 7.406650509445412 -0.5483576831502041 0.2561163276464364 -0.5497108547439888
Ni -0.10311582889917101 0.7908078316905348 2.6953277403772193 1.0600758607005032 1.4566327849949108 0.15761505154472855
Ni 1.9424469737583465 7.571335768066309 6.897026410573966 -0.4778878592644156 -0.4809652126381587 -0.7916634892955333
Ni 5.775931188365097 3.1123217065484923 13.587177499786764 0.8655847620650318 2.1717740735629887 -2.7427314963905793
Ni 2.3980218560449567 5.314642055455998 6.647832293759963 -1.0107549029781882 -0.49533253710342434 -0.9912656839053251
Ni 3.878920379199829 1.5803098135629643 5.44964562555175 1.0564539476772 -0.24077301242114663 -0.4761289675917799
Ni 0.11113152405924218 2.1968005865557987 10.431592340470212 -1.2724957759002538 0.02514821713085346 -0.2041245079601775
Ni 8.704915284990111 4.4479930595068575 11.575600133246402 -0.5199822173313045 0.46187065790055293 -0.46323128569350547
Ni 0.25874071250551195 6.789520703562866 10.535490753125623 -1.070792218676743 -0.5228220007729447 3.5036728740119076
Ni 0.5061807303439888 3.521339801348473 3.4259775715111296 -0.06691758775815572 -0.4634557429994857 0.914672006509986
Ni 1.5097568780003736 7.806805495905489 9.045561491264126 1.7811381427387065 2.5954167983305947 1.795255298866379
Ni 5.704294675293865 1.3845712610406022 1.2267542167821657 1.8736911716767797 -5.330956147848109 -0.33111412130956525
Ni 9.107811629933586 6.443683512728231 8.389409003051181 -0.7002538299332843 -0.715639054140103 -1.9008214522346685
Ni 5.985144999648757 1.7098575245959808 7.1568331040302855 0.24672023114351702 -0.622002048109232 -0.6568438383787655
P 0.7642092453245909 4.111000454319671 5.5946023644384075 -0.17980110072346456 0.5417185805671315 1.0533477979480506
P 8.366950238449018 1.6394157251881223 8.561895093599666 0.5268671173765959 1.2094847222853558 -0.6854717865281034
P 1.9324354584862067 1.4699238278750517 3.467889793864569 0.32284905308729556 0.4410706904360662 1.0795931047978244
P 0.2779116991968434 5.572589070589796 2.4402647084587255 0.856945084112163 -0.3266355167129213 -0.5751308374789902
P 3.2836010436835084 6.680384999615693 8.357771318202747 0.20725559738999147 0.06288429822904655 0.6126422041608868
P 6.54853121337198 3.6881273855630567 11.397719308520285 0.4942261914131231 1.823191877375647 0.358628267569434
P 3.4965008707657916 5.848790199138383 4.097583542039607 0.41597183848590935 -0.8285639618663085 1.7011958605861086
P 7.780318045694276 2.3876306255774815 4.185257002238718 0.47248237197812826 1.6252457303120398 -0.3992193016179189
