# total energy = -340896.80245957774 ev
CRYSTAL
PRIMVEC
9.03523610004297 0.00000000000000 0.00000000000000
0.00000000000000 9.03523610004297 0.00000000000000
0.00000000000000 0.00000000000000 13.22398132808051
PRIMCOORD
 96 1
Ni 6.252022051364464 1.932862907304097 11.325149973003654 0.8795777339100141 0.5198122674123434 0.42267804686149135
Ni 4.672473021013595 0.27136428448274513 5.89461611592944 -0.1379841646876785 -0.05642337309505122 0.2663526606624639
Ni 2.653215185021212 1.4217215241464138 4.711850387486017 0.5486525886828035 1.554840955336232 0.993620814401063
Ni 3.531566638430867 4.394901529251113 4.790678305844201 -0.44265217599057316 -0.2198367764891117 0.4748310747159629
Ni 5.160402882334822 4.748188300495696 2.7474545057914033 -0.9490134601043333 -0.6063738546536718 -0.027026665100488935
Ni 7.091901468970446 6.1791980474711785 2.677988899199251 1.1042070466917628 0.12036130939959272 -0.7887406592217836
Ni 5.0224800015121165 4.312156835993705 11.795381613626843 -0.023873464183487916 -0.054107580477681 -1.376526723570939
Ni 5.632304234610552 7.822291894122479 12.365533931552246 -0.4051266682412894 0.054740843186305725 0.3317095888017191
Ni 1.9703410671241153 6.504186458890232 0.26774205828413244 -0.1524255369239891 0.423063198115052 0.7929277007199376
Ni 2.914749132501985 1.7717556103535799 0.38559677594959424 -0.04772584532105329 -0.7215803593252025 0.12461417113867569
Ni 0.5844135347672348 0.13007035702820638 4.554114137167334 0.31541933628212776 -1.108940190501374 0.9551221441052324
Ni 8.574963211780819 2.372255479678086 1.4156670123587105 0.46191693775745607 0.780985697866713 -0.28469516772539355
Ni 6.978753205849403 0.9756519122095048 4.984145301298912 -0.4465795360694374 -1.6092442126774609 -0.7836447327561149
Ni 0.8181388322253338 7.298817413531255 2.359436286536176 0.20430988449810616 0.051292222516072954 0.21906698820262271
Ni 7.554957324991644 3.9908186600055306 3.8035209238384544 0.6577031010552673 0.04425022806762702 0.5253468240773276
Ni 7.434942282347166 3.714430784187219 12.699068772907113 0.6145283654400061 0.5762433538168786 0.18775326569100567
Ni 7.880542062000892 8.645356737132255 6.9933306559587605 0.27642855684122714 0.5162384340181561 0.39261516603783997
Ni 7.0951993301889384 0.5707531611337039 0.46085848657369927 -1.5264652324070163 0.3160428287987396 -0.6978807017154174
Ni 1.78023969715951 6.617804554294459 9.034690486780395 -0.1464919450483735 -0.5509041037211415 0.7376404981118587
Ni 0.1484100794975104 4.904100336622561 1.4862430494816916 -0.5034289409583136 -0.13895629879296068 -0.5040768589549577
Ni 6.418089692997042 2.003518454505771 7.103896648569544 0.030819813594334014 -0.09915510763562278 -0.3392838016045512
Ni 3.4908719345182915 4.331645840509563 0.4470562597315923 -0.2035041007673592 0.271341629236623 0.49920333291274027
Ni 5.999785361948976 5.753457717018128 4.882122124529457 -0.11477533067138297 -0.3387749802889327 -0.03465409973875967
Ni 5.134083239240387 2.8365220573521013 9.174070751204585 0.06702274587745231 0.5466155036481167 0.42005063654097335
P 0.22390489921596363 5.635538849175538 12.426959081436628 -0.4521943111530535 -0.7709848779002593 0.04876662788074182
P 3.963848479903613 6.172015034680216 12.532777057416402 0.3358526644358152 0.19622530771775884 -0.1799715648630578
P 2.331596916710371 8.594208264918871 1.3756906097252313 0.9794918311988485 -0.18178753502587403 -0.2059808444426259
P 6.344533834970338 7.784181267767407 5.78288638489416 -0.3857539201416324 -0.35193979980566487 0.4222684701278986
P 4.92849547440319 0.9851569807077352 12.71741030242366 -0.538040617494912 -0.03622375821872471 -0.38047158869677056
P 3.924292215754134 6.003164540293404 8.069048712773542 0.5360955779533993 1.206897935394786 1.5272954416177953
P 4.736885219990671 1.1232967071996007 3.7867668853248917 0.03861796948251414 -0.4019277016880175 0.7660581300226033
P 0.22029983996615957 5.68123907395125 3.6851665576103008 -0.8921072338355925 -0.984931514157181 -0.5198436348709111
Ni 1.5403632108862062 1.2657010651849687 2.56501591966078 0.19515187214792198 -0.21051164243344392 -0.862401993461676
Ni 1.7958164443942521 6.442611324084682 4.868461750895927 1.4372271267747894 0.0891979964229109 -0.8883760489279345
Ni 5.803530996121922 5.629123831462855 9.376596474488505 -0.024392827022067666 -0.0011924776462043979 -0.33320957038601323
Ni 8.54858032203288 2.2148978057568134 10.065221520236479 0.20264046721548326 0.6597473851788057 0.8666057471303785
Ni 2.3702857981832057 5.127758573889853 6.93503982951738 -1.0153314666052773 -0.6149029751706055 -0.19797571474996228
Ni 0.5836907158700309 0.08945606671794509 9.244290800020694 -0.9085630653987706 -0.6644417053306815 -0.2810953661892772
Ni 1.438364429254532 1.0302970208381137 11.547511653874086 -0.38494170865298216 0.9206814459288596 -1.369132230879081
Ni 4.019595887350458 7.014803798347444 1.591995068237097 0.22743464344102765 -0.23714132920583028 -0.13267766487310054
Ni 5.7623122485088745 7.731876285318496 8.071561411964947 -1.0343213774442186 0.4322281524437717 -0.09297828940094956
Ni 5.481171838441447 2.9685629993988094 4.700199450386713 -0.9076202418695272 0.09001072213219338 0.2940732665061839
Ni 0.8820342156909087 7.525005516938761 6.652562204490126 -1.3075900485002254 -0.9416346511417589 1.679299831843966
Ni 5.267380079120987 4.487223572896471 7.2576519738118765 -0.6403607531220777 -0.06659002921540791 -0.6575961431637578
Ni 8.32260002905832 7.0461560680136595 9.329545481898643 -0.5334563405583393 0.11272847544468327 -0.1469776264355404
Ni 4.552774211636643 0.1600808941164876 10.325059553879687 0.116370957293277 -0.19314486902022218 0.028505820749176715
Ni 8.126707072679869 7.387895807375411 4.575484277863166 -0.10356146423343456 -0.543284896612987 0.5480445227851594
Ni 7.399605473510114 6.082421632371803 6.987657431139332 -0.23749768410398453 0.7250742314110739 -0.35470424992467947
Ni 2.317420631088961 5.279568612775087 2.6859489423047083 0.5267051378774349 -0.2612911869791565 -0.5319491598851935
Ni 2.2519693799471545 5.208605867542101 11.46142301969349 -0.24601831998048598 -0.6666258574661938 -0.3715732577658762
Ni 0.915206181930835 3.4163493062165777 3.6213208679439086 0.43276319901163535 -0.08147825918115 0.46564246623815936
Ni 3.6868100670778183 2.7036679440460385 2.785909374646268 -0.12455503576596615 0.7858245140162531 -0.576244382258143
Ni 0.9132545709083848 3.3388631204363275 8.127789493978431 0.16787092494478184 -0.40822330488874214 -0.3622645787704406
Ni 3.766600238092905 2.5790901071129593 6.864516196764446 -0.5011887387738853 0.2189698005031261 -0.3164449493331647
Ni 4.172697965014442 6.794425351826213 6.078561779460734 -0.2976550703201713 0.5698068541629154 -0.5541704331772391
Ni 0.9394567559320234 7.44529666304961 11.373179481675605 0.18453604430528864 -0.14768673668742308 -0.08977649463420022
P 0.26865009952374475 5.580252238775661 7.934177031220658 -0.13420515726122048 -0.5311084091514531 -0.06724411785963903
P 8.408353455975337 1.4355183298467917 8.045126117846959 -0.05102508489761534 1.1496808627538457 -1.0056679753735842
P 1.7310880121496501 3.17098843156074 10.374491331212214 -0.0498392921196303 -0.5781284866547334 0.1815247682827906
P 3.9366253131876743 6.314979577310917 3.8049891497234 0.27270842767716263 -0.2937739900982102 0.032816275199072514
P 6.80608984177984 3.998019743268924 10.38729155035807 0.12357390279961943 -1.193229179658442 -0.06080504710251464
P 6.40444648631232 7.631901396598992 10.289619743349784 -0.2104532783916827 0.48102049135612646 -0.4272114159554707
P 2.471209386705289 8.503675198044093 5.69466995258492 0.3713760541534056 0.078183133369646 0.282220738042972
P 6.961775997001328 3.9824158903255364 1.7559990619181582 -0.049061790523657445 0.16602461576466246 -1.2555092686445861
Ni 5.360596611151635 2.8358715203446176 0.7020387574328342 -0.0038558834109804563 -0.26376587377189414 -0.23220609668774206
Ni 1.3228127933002858 0.9226421813358194 6.950934617066892 -0.03808806512097311 1.155163740245288 -0.07941931976959225
Ni 6.6159794365790185 0.8128378591379652 9.266466883786906 0.8854511619716557 -1.2636583801142818 -0.2899168211356491
Ni 2.7151969054564393 1.549524940408265 8.989688685764106 0.01858881874578089 0.2618889684641554 0.593075851993185
Ni 6.498647859090409 1.8538949427845794 2.7047277772540634 0.2427134239769691 0.10889624618278666 -0.4914213749744762
Ni 3.879540690781002 6.807119858708354 10.308384121921195 0.08187678017114931 0.2284844248617807 0.3314203396960744
Ni 8.145545540188243 7.256740318477777 0.3355018122788833 -0.2329910544828826 -0.6126751142813512 -0.13212204947994666
Ni 7.492370243730009 4.0443072583986135 8.205837671451258 0.6889268349562394 -0.7180522915672859 0.7141246743781056
Ni 3.0911259786559326 8.563849871236311 12.369249220683875 0.7822650787997689 -0.6359718800257628 0.5141861794748178
Ni 0.05447253561690158 4.678382065498236 10.172798656707323 -0.026277959859922487 0.3435510615213374 0.2568748030790157
Ni 8.666119709954437 2.3799625361695216 5.765907368998842 0.46864577184085743 -0.3734915578345116 0.4281922918115013
Ni 3.7212975637106553 2.2678081490321333 11.316012638619375 -0.5583415338357933 0.642866550263067 -0.15595026224779593
Ni 1.096859606034371 3.165495007941991 12.621695527579552 -0.1304181794149625 1.3134989577854927 0.016126987468849645
Ni 2.9669908682973913 8.237433892495279 7.865743248604265 1.6232562106858368 0.6200441530519127 -0.024821687029370154
Ni 5.697113983981089 8.096764299863201 3.627417845341823 -0.5300722545774549 0.16966941160610133 0.14390181572369412
Ni 3.0495006454132074 8.419620395535503 3.581648952770877 0.45943505187586675 -0.8847194260119537 -0.7913541855852306
Ni 3.20211482032158 4.370397968635904 9.345308354999414 0.7156423965742127 -0.30402857794668287 -0.37129686417603797
Ni 7.215051738581547 5.8522128488486 11.443900986101648 0.4836813260177412 0.9346031982162742 0.4906469587022969
Ni 0.5640219101534933 0.21505036772521682 0.380059983197013 -0.18867783438780408 -0.3588249569612723 0.03311092362135588
Ni 4.598853916333386 0.46253000527348315 1.6617651622896956 -0.11444957190084805 -0.5108190627747976 -0.2316803060912591
Ni 5.956578862368617 5.511421809289427 0.43245351096083207 -0.19033696725778187 1.165586992461141 0.5346359626887373
Ni 8.092779760692364 8.789044098660161 11.405868966301647 -1.104491410701401 0.6916277788271702 -0.22508516937224463
Ni 9.117366512242569 4.696786841668289 5.75838282427895 0.17887396092350483 0.991213490511151 0.18753163659850286
Ni 8.072595042987947 8.725996220351558 2.443606740068318 -0.7910567089494698 0.42850030997022326 0.5041848452877317
P 8.561030877537215 1.5564730370576365 3.479652881710067 -0.6749716583277279 1.0940846135457802 0.5247701256382511
P 1.9002547398039897 3.3187145436767715 1.5386501300998334 -0.8071937237206486 0.19586895281960462 0.5561895204897971
P 4.690778409585282 0.9455736108496107 8.105467942909156 0.0254804036592916 -0.2664555047889153 -0.04329789145668673
P 8.429125464033733 1.81525123749282 12.38699623165747 -0.16356329870836347 -1.658565427510092 -0.32328536929376583
P 6.13113962604334 7.763861021519765 1.442934451732103 1.4433077857512306 -0.557535235884414 -0.3696241044593053
P 1.7798060058211875 3.1353715304010215 5.860762892878899 0.4885062582102103 0.056282733752128875 0.2739813808523152
P 6.9338390466244 3.8685086673624287 6.014002306133354 0.573451135783722 0.8739603877232367 -0.2908334194126475
P 2.39100359482431 8.621919334390423 10.122415469001352 1.2154622800250292 -0.6588768096483943 0.5214891408941342
