# total energy = -340889.9818633535 ev
CRYSTAL
PRIMVEC
9.08642022295055 0.00000000000000 0.00000000000000

0.00000000000000 9.08642022295055 0.00000000000000

0.00000000000000 0.00000000000000 13.29889446571664

PRIMCOORD
 96 1
Ni 6.3560418999718395 2.0232187011126785 11.630561713919993 -0.03470989267735958 -0.06709679364849734 -0.13744449013412458
Ni 4.6368729966559865 0.45855619809319215 6.171352228552363 -0.11514839774008558 -0.5316763658397812 -1.212408837910686
Ni 2.885947054212171 1.6619789736244646 4.491821016735199 -0.6534569241844036 -1.0005427383318768 1.5054192103699944
Ni 3.211422631197477 4.465530368090607 4.874483797485788 1.7882904375127717 0.9139772944358067 -0.5466831236612585
Ni 5.327368251995668 4.425586464226079 2.7995506435854436 0.6360577548713497 0.030622095761231132 -1.177373700683424
Ni 7.405605228335762 6.159729788280954 2.596635430225233 -0.16629355315533295 -1.0778540106195307 -1.3632672874578715
Ni 4.884832321623938 4.5456907684302035 11.480496755891366 0.6156509090802236 0.41249493568090245 0.43865308213350906
Ni 5.430708110651556 8.059645765225833 12.603283002656632 -0.3164922576313323 0.40990763456970053 0.5750611605833192
Ni 1.830959132898494 6.828072350804047 0.5735584772700354 0.9314409984382088 -0.662187362078866 -0.592157968164606
Ni 2.6748331637689384 1.437053724247182 0.47481998188007096 -0.16999414193537174 0.6407325346391998 -0.6234164119582555
Ni 0.5953040984548827 0.09384364074669291 4.632935850717748 0.13985618489941073 -0.8252634367381657 -0.17430356794400303
Ni 8.892379844745523 2.530531722169172 1.5018308149319461 -1.2831589120410545 1.0456416875530445 -1.1281908112008698
Ni 6.974609051810245 0.5117635497445839 5.053140994434003 -0.6024747767095818 0.7491410425522904 -0.995380477404647
Ni 0.5878432387043904 7.544545681928232 2.5983909266371135 0.7763201740702437 -1.219224575280939 0.2598536832016815
Ni 7.903395680864042 4.09544046718018 4.081403765021417 -1.7774344686348746 -1.2110258415202306 -1.1677875996568856
Ni 7.744583225963171 4.074405404066808 12.429851406052476 0.668729534072758 -0.5192638511080412 1.7696085448325523
Ni 8.011542255885793 8.572156218723297 7.163821943280622 -0.06892407666522324 0.4361125750998425 -0.40647109808432574
Ni 7.184105559430937 0.7094804220217883 0.5041009714622917 -0.9959790302205943 -0.03973665646798962 0.19247946752208142
Ni 1.9895171680295267 6.583747593976635 8.995771495997413 0.06077573652647598 -0.03541488916418417 0.8841787230171354
Ni 0.3868634328790168 5.12390512748827 1.5237345398309068 -1.1591674620880423 -0.8427423102492196 -0.3093397057469511
Ni 6.490929810087609 1.7678266842973243 7.11290073498963 0.3666567943008653 0.7403581541533378 -0.016463287762345843
Ni 3.554235098213156 4.012054387615854 0.3218119322996421 -0.029742521369755224 1.2840366866603177 -0.7181260822280149
Ni 6.21037749531937 5.670516916564346 4.759527859052736 -0.9779836220844381 -0.04434253067111718 0.6229631264709207
Ni 5.039601319468458 2.7407824026790264 9.489944644583822 1.2912036367224022 -0.09630478267102124 -0.022050809152452347
P 0.29397295762718034 5.814573024814627 12.640147518664088 -0.35838015611436985 -0.34428922523894256 -0.6725082843888999
P 3.7405884931989637 6.047912299437258 12.77212504834132 0.3271962743123978 0.8758941144108398 -0.1636676854967117
P 2.288215064239408 8.643275630813303 1.6651546775372608 0.2922524112473612 0.6133893667395566 -1.2403634141420832
P 6.3582317272765145 7.7001597168654285 5.8855988467750135 -0.8239115506959617 -0.24816441978921133 1.1409686796918286
P 4.597983117552215 1.211465166184251 12.846386544588823 0.2891102660739537 -1.0125366774689595 -1.5071079109263272
P 4.114967184515228 6.184299468911 8.257762439998496 -0.5081021780642668 -0.3667766077081812 -0.16698749389856402
P 4.872556567729267 0.9820603115737536 3.7907173656353192 0.9555106377929028 -0.43328898960811835 -0.23892670324102724
P 0.1412084241121676 5.802406307964171 3.9970627026781638 1.7171981495516362 -0.2216612312923602 -1.1467467198261863
Ni 1.4598697257494184 1.4401885392683973 2.5614737093916196 0.6742175537705226 -1.0227601549691805 0.8141513859854043
Ni 2.022582651688084 6.5902716437889035 4.985462609731054 -1.3430429899911966 -0.7240707298472239 -0.894343322254963
Ni 5.981572344452062 5.540381204292332 9.513391243658441 -0.13065137847169112 0.9619985595100916 -1.255207421133451
Ni 8.661811928330053 2.4276734437919063 10.365823773857821 0.2588733215662832 0.6456595396271719 -0.6225661481428182
Ni 2.3841040582071895 4.923267879710142 7.079134688321983 0.1982572505461231 0.8929780664763203 0.8698044565733343
Ni 0.6155977096675846 0.009648869771097048 9.291392730276327 -0.870897432527197 -0.8303786464775441 -1.112353329947981
Ni 1.5189678037145895 1.0390685128581145 11.245691841666062 -0.5457040475774407 1.4341610862549559 1.3204885017294483
Ni 4.321937667278246 6.9844859907321615 1.523162095348772 -1.2554660741114765 -0.7869066913368383 -0.13398301394808537
Ni 5.539427130155441 7.89273730979191 8.104877965734845 0.0764941757029973 -0.36495600955967467 0.17187027591216206
Ni 4.991061661951554 3.0048156052485133 4.642204908118158 1.649725203510643 -0.5589495997334374 1.5889368685786764
Ni 0.7331696285197892 7.049199476474466 6.923696929939604 -0.10142924838178015 0.6071516133599608 0.013874443989247075
Ni 5.072857617954393 4.740031126904848 6.75219438037604 -0.1577942574350702 -0.8680774465798986 0.7360759818382162
Ni 8.07048586470499 7.0332618951781996 9.058595006306637 0.20699797285323057 0.3643386876906499 0.9724832610914994
Ni 4.4786238998169 0.35062769715987385 10.526553463452826 0.5207985425850128 0.5424042937802466 0.22241430740830084
Ni 7.919878447381388 7.328879494888975 4.482273006230002 1.3902417591641865 1.536495620059825 1.5843785597840325
Ni 7.2847830969238805 6.000163160490922 7.0293565517111904 0.10201468857160496 -0.4385996031877543 -0.023518394836914338
Ni 2.435724012223201 5.272395408870009 2.7669949081085967 1.0810342081197253 1.3736730561722277 -1.290933928000783
Ni 2.1873921440208446 5.103342558233169 11.273273670642581 0.45252752612275615 1.7121857839387091 1.0138458831986863
Ni 1.075523231307725 3.689886267638439 3.7272541713333602 0.18392283620132197 -1.409175877064528 -0.0776876817904662
Ni 3.870251711612708 2.539218340025061 2.505218772354385 -0.21427728012346323 0.39662351586628464 -0.9063370042817295
Ni 1.2544348480257785 2.8355355941028892 7.982036831720893 -1.4845683350629142 1.5061666300589802 -0.09921321456706783
Ni 3.5713448277347455 2.7182935123094385 7.171309153650133 0.8432765854861347 -0.1568745738342782 -0.6833256867193779
Ni 4.0837825898694 6.889223959768622 6.078007432282959 1.2843801860426654 0.17083926354448642 -0.13575990334285007
Ni 0.7773396264897299 7.5013670124186245 11.192322751732416 -0.4585328517765716 -0.3730626978272091 0.6356301804156279
P 0.2712387339081062 5.280618619287979 8.125691320191645 -0.4232429182260259 0.712062135422122 0.6756707412772816
P 8.662475237015702 1.4486298237748 8.095396286098213 -1.2680575376232421 0.3468662419374994 -0.7748901264919364
P 1.621635267264477 3.3729337529426977 10.157270436669597 0.4661674855036939 -1.1512001276118495 0.6442498037638388
P 4.30087534490382 6.093598820963838 3.671439017041131 -0.42117369440182306 0.08455432700331245 0.34779029641366555
P 6.859593143002875 3.89270425630089 10.514372208329807 -0.6072436588531349 -0.08956180752023286 -0.7203521433450562
P 6.209659668111614 8.087150359629364 10.562261278149556 1.172223266830736 -1.6497072057885136 -0.19610626564139128
P 2.6656740520547793 8.546914142987251 5.517924116393974 -0.8843651279963287 1.2059841653312648 0.789435371295963
P 7.26086763855913 4.177018349094587 1.4610963924968503 -0.2788392231652488 -0.7576305680805403 0.7471859757084486
Ni 5.44252954352866 2.8545171262168565 0.5373454576017708 1.9296805425582058 0.04678276468149362 0.6939032051249081
Ni 1.3429729279293188 0.7265792478389561 6.765214312097488 -0.43468047063900617 0.8838853601464326 0.2607414851232735
Ni 6.942061494111715 0.5026716775410246 9.210668063232912 -0.20155109080604644 0.8160660865096138 0.6083325210419395
Ni 2.7705222564889906 1.537286027142908 9.142139189585077 0.05810770277600961 -0.16858286341014192 0.794707932548812
Ni 6.591943545133551 2.088086656000956 2.7601192138287316 0.011204096245935541 0.2496698006901442 -0.33437787966250154
Ni 4.09887513407299 6.942997395407903 10.64877036038864 0.32107447768537606 -0.5513915848805214 -0.5877762941571426
Ni 7.908138792287446 7.367478608541503 0.17256384346060125 2.792587243570442 0.4570117871463549 0.1229115866252722
Ni 7.562600399166362 3.7491842468513394 8.349032806501688 0.63923358149617 0.05006477786687507 -0.25297418247302883
Ni 2.8617226575554757 8.41417971449475 12.28777977200693 0.7347053267429347 -0.09082781871685003 1.1439699284119977
Ni 8.93615821799832 5.162885870795556 10.548723420468082 -0.24958778249929917 -0.5938924343572095 -1.1765293504052576
Ni 8.719619734605333 2.26807955674082 5.717154786301713 0.44022839704042893 0.4602698890723364 1.456103137743686
Ni 3.5536444808903185 2.6459383470516498 11.500258811513515 -0.8389041674500519 -0.511831563199712 -0.20476702664018281
Ni 1.246711390727132 3.403300569756905 12.58922540173106 -1.1462247858844452 -0.8194787117355887 0.5761628782879303
Ni 2.969923751099335 8.571356613732378 7.770530407918482 1.0240431354466621 -1.11216743918942 0.8336670874208287
Ni 5.75893687300332 7.821172663104689 3.5352980895589106 -0.8379189207186473 1.0673399984620846 -0.025263145442162942
Ni 3.1938404078176172 8.063434802512344 3.437844414006627 0.6135611164307304 0.37865896096806395 0.8766731586687095
Ni 3.438992028897002 4.398745178508195 9.39621458409152 0.16894847427967677 0.26207434500208415 -0.7716487367365032
Ni 6.941543568151688 6.290092661061752 11.80532265382155 -0.3036513971129222 -0.2875948578706918 -2.533673812794843
Ni 0.6430732275259925 0.03952774581243656 0.38180502266942107 -1.0534681255759986 0.22721224301757645 -0.6441099357518649
Ni 4.65967082531752 0.22653445442150638 1.493704829211735 0.4298660799694984 0.8939183189024025 0.8156400547157888
Ni 5.834208779193891 5.463101199204113 0.5085415050879958 -0.2221391993700432 0.21956501088496383 -0.5082240483541118
Ni 8.147129820368615 9.329209503136607 11.428006322805695 -0.3729297717937707 -2.2762138266363183 -0.5665029866006631
Ni 9.324575428757418 4.7501170534948445 5.93826192184736 -0.4496903137842771 -0.1362288725594686 0.476656815070792
Ni 7.972543339737805 9.009894519149514 2.7075751708629876 -0.7909795758546313 0.4886129589914037 -0.5991876213178777
P 8.604885504828854 1.7471641644183575 3.6964539322683936 -0.3724600312462037 0.24879408295341024 -1.1196786599648008
P 1.9697360309246408 3.456219881883159 1.486191268223205 -1.3566726649594893 -0.8457530720510854 1.368782560849146
P 4.7357968550211185 0.974300508593702 8.292193612635861 0.42942976376302816 0.17563462805060076 -0.29993075372822536
P 8.522835129056176 1.8846326179139101 12.590515673420953 0.9330425385973737 0.7517401707380345 0.7473998914914677
P 6.369626098397106 7.752797349960791 1.3721803175066938 -1.0410612672712136 0.7420316852010188 1.183529950092807
P 1.8787537039465876 3.194930778259779 5.755016991263748 -0.9860237187800953 -1.6958464233487374 1.445202688781098
P 6.941207370598687 3.680690810242874 6.010196385842881 -0.8145799888823907 0.8899328518920931 0.4989007140706569
P 2.50383581917691 8.547050439292521 10.128304745873569 0.016048568822430425 -0.8846029550387474 -0.16236182220109457
