# total energy = -340887.847325667 ev
CRYSTAL
PRIMVEC
9.16451609897995 0.00000000000000 0.00000000000000
0.00000000000000 9.16451609897995 0.00000000000000
0.00000000000000 0.00000000000000 13.41319567434525
PRIMCOORD
 96 1
Ni 6.804240574265027 2.234886315213706 11.76321139200081 -0.2508021145223745 0.07081666570224579 -1.4213770471164102
Ni 5.0179939652591985 0.3197939457487164 6.321236683182211 -0.48787813770790817 1.4085205028687162 -1.1632015229480999
Ni 2.7279830875410926 1.8300438299881268 4.669307967016489 0.659346035975329 0.18488391456301065 0.6699001573420914
Ni 3.717035961123775 4.7737412903020475 4.353453846607862 -0.03135177483840407 -0.7546825411958099 0.14077998226526078
Ni 4.07122616755271 2.7409600419062183 2.7208934181224054 -0.3970166375396453 0.28262954344561647 -0.28066702040260694
Ni 4.900514037288475 4.911942188484317 1.9259605687457826 0.6276759585655577 -0.23889816399593697 0.9528171501211395
Ni 5.515453047104805 2.709571575309781 0.5008297907548532 -0.06742126686745162 0.8944142847022145 0.20669895355557305
Ni 6.004233332492944 8.545837662319661 12.35608774649327 0.2731156904179103 -0.8948575428872202 -0.5506601060311355
Ni 2.184820565427915 7.082319477019973 -0.06431015668530748 -1.0152653892540322 -0.428825554520126 0.3122414527747784
Ni 0.922234388924398 0.33933269342276134 13.30417248511944 0.2918358925352329 -0.15842726303337876 0.8018967369877673
Ni 8.417690237964045 -0.33361861782484065 7.328728562543589 -0.9311288665144287 1.727618830664328 -1.044359478406511
Ni -0.3177575903391607 2.7879098563218525 1.437224273033457 0.571643393151022 -0.875846034781724 0.7177288467895961
Ni 6.963730642638106 0.8737815939184526 4.876152921403323 1.3094435567691964 0.25092244215032267 0.34247454062770694
Ni 0.8769974225107707 7.697029373941438 2.115059354747991 0.36603921532152445 0.08432601304259026 -0.3075108800683285
Ni 7.931173587977168 4.209307927029649 3.7712669833382035 0.10251373969521055 -0.8457972950254594 0.42042010406525016
Ni 7.835798472102971 4.134708768461766 12.92433813059411 0.8626341640771401 0.7338296090062006 0.3313252088791068
Ni 8.56604541964671 7.588264900491361 9.32357879651723 -0.28030398063623335 -1.14465512740448 0.1617810099969601
Ni 7.316912752329637 1.014484404912642 0.31053961769934935 -0.1934040362188798 -1.087130036604818 0.9192578261084554
Ni 2.030407638805033 6.826033792824538 9.051921469979547 0.015584227591502192 -1.1931188793328227 -0.4508467959862235
Ni 0.3603066042702376 5.107402981351123 1.5104734984247983 -1.0724693492688497 0.5151781110744418 -1.9334703486179412
Ni 6.846434004983275 2.0995997330541134 6.965459070316964 -1.144822763330596 -0.17448560204782207 0.9388953978337251
Ni 3.6718365692249058 4.339645670660168 13.34945527411204 0.08956874949876832 0.35551131920700707 0.29677472459774695
Ni 6.058762201470697 5.842195528728973 4.648852767762986 0.3463900736320293 -0.042382835841585066 0.07085728913219409
Ni 5.846237080194382 3.605329678103637 9.38637955745117 0.594053385415106 -1.8250063048765666 0.10602715216510773
P 0.5767220625013512 5.788115721025155 12.534067225481914 -0.5146764888476749 0.057951893924435685 0.20778241642773893
P 4.459352575968975 6.264395606869487 12.402390546093807 -0.8986620042349749 0.5314192555236525 -0.23756607544807473
P 2.547909516693387 9.00296371015332 1.3885203702947402 0.7559668072248723 -0.8959350922221151 -2.912964236699319
P 6.627576203292905 8.064553950851488 5.816551380632578 -1.0553954245056982 0.2764586387482142 0.002195207879105897
P 4.916359485097305 1.1951811628343796 12.416501151062722 -0.9536864400999704 1.0946685110737082 0.21148377653872613
P 4.29814874314231 6.206805789616345 8.167294588069788 0.7574212802832117 0.9772002069511944 0.6902028734551855
P 5.107476297477479 1.1234779912575843 3.8004413029186694 -1.1912512299964646 -0.16593077049927552 0.7238861246402436
P 0.3662415446988077 6.083689684431954 3.402941427747708 -0.6891253241202906 -0.26428163706604807 1.49161032951136
Ni 0.7660462955921065 0.1288292643307314 4.941783684814629 -0.678878963801934 0.908373575095784 -1.2173841796380904
Ni 1.9376993970270604 7.025581959735728 4.76506432674774 -0.4364393623116419 -0.24511097767486817 -1.419863438685361
Ni 6.391764047382563 5.9147876583378425 9.462834530467456 -0.36386406204707655 0.7328528469152282 -1.3978067159956378
Ni 9.121827480009024 2.6244515526097203 10.418364521725143 -0.15890805932453922 0.8487604914188414 0.039055571240564996
Ni 2.792968669040461 5.724440665284412 6.737609045728952 -0.392627250222698 -0.7966743122465635 0.2611749731162663
Ni 0.544549113352898 0.4603180486849116 9.314605819102757 -0.2285754419136902 0.7803712042111657 -0.18856624851060427
Ni 2.0774857564417917 1.3594459439364346 11.404609387668366 -0.5319923544183032 0.26501337302575007 -0.5981260128225828
Ni 4.182868298962285 7.161665854769449 1.1080321163373987 0.8607567445487692 1.2302728626753006 0.33620079180385326
Ni 6.0896557842142265 8.311702612799726 8.121045859112439 -0.6301074508251857 -0.08377913940018476 -0.35086379313266663
Ni 5.535761614105595 3.1647180877318113 4.7897984384257315 0.07418506795384643 -0.3322307514125117 0.2294010231387791
Ni 1.0454971263615014 7.560056520875643 6.810241499207319 0.2552627213968894 -0.11055203661865479 0.5739262756479278
Ni 5.410097773530312 4.5650102785646895 7.144847135383235 -0.5294749873130881 0.2634928226161656 -0.11842655427072508
Ni 0.917432182648038 7.677004906930281 11.242149099726264 -0.21431301845740508 -0.7031676611459696 0.794066185199755
Ni 4.640910798375402 0.44508937278905775 10.278169424905974 1.3541036186807323 -0.7808494293991649 -1.0694573019154032
Ni 8.382956723102586 7.51800972241011 4.780007069750803 0.6828343489052563 -0.7112332117629235 -0.712853778085482
Ni 7.325041677839429 6.467059709150833 6.982989872580416 0.6943418353242236 -1.5712906162518228 0.4212911938162938
Ni 2.4770219870223094 5.765772631517968 2.2675678949887588 0.6021780714047693 -0.14230464643990332 -0.04659995924672619
Ni 2.5335578849590745 5.158485992390113 11.397419825027518 -0.15430449911425684 1.1650498890107484 -0.15188020594348034
Ni 1.22191405540717 4.025550220832522 3.5176774996895337 0.6324342991861495 -1.5933715073112622 0.9757938135219711
Ni 1.7919561023458517 1.3528474925643368 2.585648076283889 -1.6506546573034475 1.5024863529939154 0.0498716880194625
Ni 1.5902359451913473 3.5192015586661722 7.793254040429792 -1.2422542034068929 1.0871778591236179 0.6876042594900739
Ni 3.64881530554892 2.680400921535633 6.870198510890201 1.1276735052448192 0.08949238773487814 -0.6846989129178207
Ni 4.21595220098072 7.150155222931456 5.430627205361751 0.6924119652913623 1.2756525763616804 0.6849423963871946
Ni 8.583540480298563 7.5856805070372895 13.498100970945393 -0.42317015600656155 -0.2613752620525305 0.15165420597560333
P 0.20391597513888574 5.9326584641372735 8.009917857038939 -0.07965406148821767 0.3352407418834291 -2.022364697757504
P 8.8597773153788 2.0723078050178536 8.0746092575813 -0.5564564009979384 -0.7168132769538623 -0.1267633562711946
P 2.069210198679286 3.3955997341446698 10.290965838309946 -0.3208027120812282 -0.8203557150239033 -0.26163391503055583
P 4.191675398640877 6.5736430278418 3.329624384939487 1.2852826432522766 0.35092704227043436 -0.15725561132278076
P 7.554218724314495 4.3593768731659 10.632760120675131 -0.8237696258014587 -0.07586296987690161 -0.237334676163559
P 6.632204283769168 8.128091538855312 10.096541552179506 0.021958249438646053 0.006118197082595914 2.5885591519788127
P 2.685065660075074 9.157688230313218 5.865684182710482 1.4577622706136637 -1.9558458880996634 -0.3616050908095708
P 7.011184505422443 3.956990478173268 1.6959779613323724 -0.736703588119886 1.3247051109139574 -0.3446018713833549
Ni 3.111609718702219 1.9336761745932394 0.37000174552932397 -0.026064558297535755 -1.4043620006156525 -0.4348403932556382
Ni 1.4841108522901088 1.2436889449350923 7.05983433751797 -0.6639089727556631 -0.2623242562293611 -0.04546533142165073
Ni 7.146645213382131 1.1768063086662461 9.472022874003102 -0.399117485932732 -0.01756577679790523 -0.9119453516074423
Ni 2.986743191001064 1.6300740953503874 8.887247951473054 -0.961987246656182 -0.12850219333917223 1.2035056218837852
Ni 6.741445312040564 1.9272426845054442 2.661352475456597 0.6848251540830399 0.8887524584307469 -0.529324834888469
Ni 4.171843386461405 7.133274184837839 10.264219198963465 0.6618919423256343 -0.8409165698943905 -0.4807299566989011
Ni 7.315263139486612 6.484857198823908 11.611642214628988 1.3568624123727924 -0.1383502897778456 -0.8700047455095985
Ni 7.882812438129169 4.0795933704731615 8.009447717378677 1.1321024875504502 0.8116805558474086 0.49232897439041023
Ni 3.4762749666843593 8.54015566252702 12.007438406313737 -0.6320347497548857 0.1423738091149419 1.4980434867312136
Ni 0.3373614060753472 5.2101555324399556 9.910406570585264 0.16199158334586938 -1.067972489839761 1.9735829003681105
Ni -0.3021632502631031 2.8173187875066605 5.906715552825976 0.6287583929964591 -0.7498583803342892 -1.038017081128251
Ni 4.142342810118652 2.6479035485280513 10.874117725092773 -0.03847707302927567 1.0258796744347687 0.8901956186351765
Ni 1.3255372354964878 3.5688090826622347 13.036016003615284 -0.8841409278006644 0.2206669856998909 -1.449623443556613
Ni 3.6116531940018977 8.369549036495116 7.832260052554685 -1.0144583199717045 -0.4906852681394001 0.5937533376761839
Ni 6.331140775401415 8.188146610857196 3.4224031934890786 -1.0803387247145975 0.0015940839599972547 -0.5154038539320027
Ni 3.2677364097786867 8.55500217811424 3.280384358026787 0.6127550755896674 0.28908352660107633 1.8248888054620962
Ni 3.643380747682734 4.326632058231865 9.0712100263724 -0.6853985100880067 0.42871705396671966 -0.3598497986813609
Ni 5.613751643517473 4.384753417401092 11.830196670846558 -0.39295223766228454 0.7811129674731967 -0.25907078228907
Ni 8.467930113549935 9.276322887274057 2.474774847749478 -0.5831866179039311 0.6607848253043845 0.23791343148516447
Ni 4.84367571033049 0.5302020638764827 1.6858777484751657 0.23549376630007832 -0.523434437545963 -0.7374106414892397
Ni 6.228901437197077 6.046793343842975 0.23436966112427565 0.41401394342859016 0.4341207414807943 0.1932348576308672
Ni 8.477772803513314 9.467311396433107 11.361915574387735 -0.6351756093767126 -0.24588925060178943 0.6999195865223171
Ni 0.47019098155041283 5.038403341933728 5.828623797288779 -0.577061993063432 1.669574377026086 0.12638000478984687
Ni 7.226202374994882 6.095493580775375 2.4710054824031675 0.6884753492411176 0.5200742628244784 -0.5135014947029674
P 8.81491701056433 1.9463965225161166 3.7764311879884493 0.3674576929356059 -0.5401520074109601 -0.2616920219620009
P 2.210774474158166 3.5801089306369525 1.5417666540569717 0.46039715867882003 0.23803067378931908 1.0744796948306592
P 5.067014960244409 1.596861890110829 8.337749083139503 1.0736206892644735 -0.09271115178249194 -0.07015717774137595
P 8.8317064035 2.1110553777973387 12.673256058466839 0.829662594247126 -0.6590652715101165 -0.37899860369566984
P 6.56720037323821 8.194048559028905 1.0848284787971012 0.6004993981507658 -1.153779972523884 1.0776313530857635
P 2.2600062530066505 3.847172085406813 5.6123494726009024 -0.29937925210012956 -0.5647888321230338 0.38806842720742196
P 7.141210655515946 4.282752356607415 5.908432066634301 0.23733287639134606 0.052247901561122925 -0.5577105851200137
P 2.2868582842847704 8.700827953437601 9.955246713464987 2.690736334270211 0.994404743754939 0.39995103757762085
