# total energy = -381175.67790758196 ev
CRYSTAL
PRIMVEC
9.16563890415210 0.00000000000000 0.00000000000000
0.00000000000000 9.16563890415210 0.00000000000000
0.00000000000000 0.00000000000000 13.41483901321303
PRIMCOORD
 96 1
Ni 6.6492492637205345 6.003841648414609 9.462344182072279 2.180161783406052 -0.8553929091336945 -0.23260101813331552
Ni 8.766878430959245 2.0765579401854017 10.138492433043034 -2.00013468271471 1.1151172658463633 -1.6407247997842453
Ni 5.467285158412209 9.147829872605465 1.6562364140301917 -1.1174284304780433 0.7886203315938354 -1.101779668197193
Ni 5.680798712129427 7.904960098078385 3.4994619399187354 -0.04466006191153599 -0.25818092348494887 0.14759417697361676
Ni 7.699347324927995 9.027824164993552 2.1094295868499833 0.198027136813188 0.08862592596952479 -0.6704496020876582
Ni 4.510374145955249 5.04440091967407 7.923448107917535 -0.18877373653572005 -0.3687419589646682 0.7926901307878348
Ni 0.3387262606794951 4.4731708184369765 6.8771702849238245 1.1703548461634294 1.4471451572194496 -0.33873152864550693
Ni 0.7330448698183607 4.690662259353733 4.437225933113396 -0.8464009900477294 0.35906561221716865 0.5299807233049131
Ni 5.537530613475044 2.84674656087043 4.648402248959915 0.5832776349558406 -0.5978820151325768 0.2519511405251532
Ni 5.154727712809685 7.0118144341172695 13.000896654519392 -1.0733304117175644 -0.14808911433216432 0.1732527580819855
Ni 3.445116118323737 3.8091111283590164 9.82031920060374 0.38254441206539924 0.0182885138965427 0.3618169497100608
Ni 7.751142349270387 4.015118023973876 8.326683966956013 1.1817972836724162 1.273990101057593 0.06520986103842963
Ni 8.795218585846287 2.0895823127903452 3.9958106060341763 -0.06516872338784906 -0.724708620541539 0.31559648528994033
Ni 8.657963146184757 8.667055459783706 4.144957545356264 0.000604980573850571 -0.472303937418735 -0.015054066119645042
Ni 7.418942939915297 6.117853028311086 12.215310677367759 -0.6526673384035727 -0.8688359220124777 0.1828458010870593
Ni 7.191470118444857 8.363388683728537 8.376467133601862 -1.760929786111632 -0.6293754577551677 -0.5989276827882717
Ni 1.7206836860459565 8.27833155651258 10.338226365525717 -2.425036733810714 0.3616971363027448 -0.5957135467263484
Ni 8.451928753653771 6.124965563948972 2.787805088026931 0.3516322958675751 1.0059520822729062 -0.33486021861555876
Ni 0.23111066347388928 2.1820361104441583 7.417051152085839 -0.2207909128722649 -0.43640156709517103 0.5420109149965698
Ni 8.102342127668438 8.079812987722658 10.661886149295988 1.1794339256465622 -0.16672961225148702 -0.11793341668439043
Ni 6.669798625705252 7.729410619892257 5.684577704968989 -0.7085052713087991 -0.05900990287530482 -0.3114719215986055
Ni 4.703054202887782 2.392891628935877 13.357664558432928 0.13140882546300595 0.061999067410615796 -0.2931607819942435
Ni 1.3543239412238541 2.623370779902742 5.4521261085520285 -0.31056509351362 0.007820010265051048 1.0987331680613852
Ni 7.254942166502026 1.8767653476149835 7.968494472478772 -1.13857241154551 -1.3411897388325418 0.3489804600670248
P 4.048655096008703 6.36438121265674 3.996079159248339 -0.4173124116742039 0.3049667734902361 0.2531873269250995
Ni 3.9228017109006927 1.488573051388957 3.232895836228306 2.511813522386642 -0.23861817086167295 0.6633520718109285
P 6.973465401760419 1.2144562945303692 11.329099735653584 1.8718044961770282 0.24308109172903297 2.372603455711662
Ni 6.403894281129584 5.664593862892593 3.758918257662892 0.34902056927634084 1.2181056311851473 1.040176550673415
P 5.818411611700592 0.6618874337040179 4.421637931361652 0.11478715774592488 0.15172208309906127 1.0799492025856625
P 5.8082652496501535 3.346713821148032 7.167897012250167 0.6980545082891204 0.3657592221872604 -1.049915889448366
P 8.948504727609187 6.591065789198238 0.6974079499553896 -0.7961783464467513 0.3801162622398808 -0.12665819815189802
Ni 2.6785020967350692 6.13604682114769 13.098060673905564 0.6335493866271993 0.22659106449380975 -1.4861279662405502
Ni 7.498500683906086 4.506955362716936 0.8330080752661427 0.5925886279441214 -0.39187006034169924 -0.08672999449839257
Ni 3.5343069485972824 8.719895366938879 8.993830644151036 1.1900775214033374 0.4118436752501488 -0.20455773884285414
Ni 2.4298749811251428 6.104718668041639 10.132576929820493 0.8693663405946511 -0.6988212112518158 -0.8958247918964959
Ni 3.0131212347092333 3.74589571818569 4.481870842699195 1.2433610633178263 -0.17984918035258057 -0.6982699667340361
Ni 0.4644100814713962 6.117623887343371 11.340462377960655 -0.7598324608278656 -0.8023693057488117 -1.1679544642520532
Ni 7.8759600172043225 8.31052127965724 13.067917637884536 -0.5234511497165114 0.025459320613369057 0.526797440480925
Ni 3.574965721908704 7.897480936892154 11.441409056441872 1.2738777438494449 -0.6530645738419913 0.4963589214854096
Ni 5.967692369347825 2.4323038753829263 2.2275471728879217 0.010212421756627574 -0.7049041842211021 -0.9164982610854475
Ni 6.479785769636926 6.756432242779093 1.3127183574338321 1.3146580110906003 -0.028029909554022694 1.1728940676455155
Ni 0.39281911064613595 0.786862750623743 0.4734244871413203 -1.335159987698694 0.0588324967571761 1.3375989361574898
Ni 3.2039956608161675 0.9584600053987158 1.074160612509192 -0.17098041710804102 0.8858849070749646 1.0915330507685201
Ni 4.811538702642965 5.729239112704464 11.018545898672762 -0.7112316691010268 -1.3556552794385686 -0.37037743768556214
Ni 7.6731794264148965 0.6054830096550641 6.076734139936492 0.08331068440419846 0.9526641694830431 -0.5488708753411967
Ni 3.513170985735213 8.447465087602676 5.037942810639979 1.0378589582838318 0.5600659727260676 0.9021715600501301
Ni 0.13738100891183724 6.4821688357011675 8.8926832381821 -0.12296455135039466 -0.0440126581355242 -0.16689827661886739
Ni 6.412537478431809 3.7142009395312945 11.976580618435397 0.7920872070965133 -0.6235395677996809 -0.7772650544820162
Ni 4.429487384351711 7.0990254864297535 6.776734132518678 1.0260779064885037 0.6738817676976587 0.00608451563118307
Ni 7.189508671761214 1.5861229441647606 0.08235051410530493 -0.3287556483797177 0.4243736893963595 0.3154923556119083
Ni 7.5890663599859245 3.9834965704291503 5.604451691378266 -0.41479581589993725 -0.5462568347571173 0.04786777021555627
Ni 5.9320288691325995 7.675397510982381 10.939546342079328 -0.1693912182440502 1.8411199226089776 -1.3153486093997218
Ni 1.871568430467198 1.4819187976865016 9.724014001564566 0.5383674047067114 0.34807620308520054 0.3884900881258729
Ni 3.638511095075541 1.8039351824363183 5.870213051990079 0.64407239764571 0.7695401750339328 -1.754426180665159
Ni 5.214707652518871 4.768771832428561 0.2241805240463045 0.32411197896011923 0.5959608868504639 1.3449324937044256
Ni 4.204003506481041 1.7452292665076308 10.994761982787773 0.5196865404677565 1.0363052406434667 0.04270730906053936
P 3.8126490649005422 4.212041771628497 12.143205514210946 -1.080178030767017 -1.5017214498034333 -0.41813927845087345
Ni 3.012653787135094 4.256073499984691 0.9642059443051473 -0.4641370853372265 -0.8931343895485264 0.997611423617695
P 2.0513341024592897 5.624869984729449 7.989985145558864 -0.35240645502943824 -0.3681310648535467 0.44932084626000035
Ni 2.6462207172033225 0.7157988040242281 12.123043858743602 -1.267130140712966 0.20579109702932302 0.8886136188600373
P 3.0202246047084107 8.309146433850946 0.2322618676956915 0.47346890426111365 -2.3961946127680407 -0.11000413453498474
P 3.927485352280796 1.9083684698822927 8.799463193132247 -0.28390789593740784 -0.6793188795528301 -0.5200395529318012
P 8.612024964977172 6.447256917860048 4.938377393912152 -1.2024856652597031 -0.6413850806215342 0.6183724217764448
Ni 1.4403526261429267 7.322153795152309 4.668497911828557 0.12017387597913497 -0.00034915580930262446 -0.1937339087544728
Ni 1.6664047736135306 2.4560703765543686 0.11409020438937233 0.9081444898041133 2.09943608612021 -0.4646965573851223
Ni 6.999376662389677 5.8375402996854735 7.001592913829421 0.06021909269205758 0.433204400314112 0.12080585313617904
Ni 2.215600679395111 1.0264323820618144 7.3512372833386195 -0.3130073844065255 -1.9847985665782721 0.5880100074345035
Ni 5.597748859790655 9.16957993326101 12.696916413620391 -0.9392666651302146 1.9876753739054347 -0.6143067363475033
Ni 2.5569290649039824 5.478852194462483 5.875014930109522 0.5636120382061132 0.6630936759432193 0.49520501038662457
Ni 0.764314362836676 4.854388063605746 13.307372698838751 -0.6960418487344657 -0.15336578935007134 1.2164850648625887
Ni 8.823375427959157 7.640980537631528 6.745973332448691 1.0905485753680637 0.349746648809088 -0.11845200819202181
Ni 5.23073835462024 0.735956793236088 7.145025077416686 0.19600624972841724 -0.4967204185898864 0.5451880271729708
Ni 0.43422854976779357 4.1580378283573305 2.242773131910675 1.3397949153675441 -2.22464572475104 -1.5206925915892973
Ni 2.213996692621103 7.725689370576559 7.1473586490319 -1.0785178694557749 -0.10009253184822761 0.05785804865904875
Ni 0.29444431038655716 0.6509684083104433 11.661036091177737 -0.3846246916331956 -0.3404698514928523 -0.5184598671495071
Ni 1.8500566764180757 6.066873745813763 2.551556167492991 0.13850584151910342 -0.23647155683231535 0.21036946042862478
Ni 1.9042989262956669 0.8694616535380515 3.9166634826575324 -1.0291092371156598 -0.5213981238422247 -1.1498356431641552
Ni 1.064561439089658 7.826181433377828 12.651065305980538 0.295149273179182 0.8212936534571403 1.0571008372325794
Ni 5.946116455827743 3.55651529118826 9.5431686173326 -1.4228795998038657 -0.5611661477687819 0.5680438487252217
Ni 5.927995988100808 0.9544087930895073 9.694984590646635 -0.849883292169375 -1.331236741384888 -2.4270123694798458
Ni 0.04625714543464477 9.147215774811988 8.894668515526387 1.167704810135092 0.7329947718097312 -0.7768570204103201
Ni 3.2260298562716816 8.272117253468137 2.773893481594993 -0.41142304277296243 0.2975864218657649 -0.6645028975859201
Ni 8.851825570510702 2.999455267394686 12.271492376396093 -1.0340768655335804 0.271645533630287 0.2690860004332269
Ni 5.108395409137629 4.975099525398223 5.604263795784738 -0.7564033805416586 0.13591956884916592 -0.024295896432887192
Ni 0.9212933404352767 8.270155806784492 1.8822088204440308 0.12756965422257385 -0.8234351252801754 0.6112620359839085
Ni 3.945285022652929 6.472077467482981 1.5947560592644061 1.7139323343161708 -0.32448838846293143 0.28161884279291494
Ni 4.702238461042715 4.479632593726551 2.947320197856206 -0.810117839345979 -0.43248423431863575 -1.0261655811063037
Ni 2.5184700448826285 3.3599215065271486 7.567699423028398 0.7057901863704812 0.6278016855101446 -0.49584161552935896
P 2.391681764626339 2.788737233483597 2.6423207379328058 -1.0465294894746364 0.8863307363631316 -1.2947756703443767
Ni 7.498097395802907 3.7936120333027463 3.2068571732209974 -0.06101587756174008 0.27664941460278164 0.038682247061546285
P 0.8667266269474003 0.3384531246459783 5.636727571526787 -0.6545244462169696 -0.2517935319013664 1.7977374418582845
Ni 1.6378171464813562 3.960857442818868 11.320045001173343 1.1842971672761344 -0.3458987358179075 1.428817048334223
P 8.318357900753107 2.0408486117766325 1.8987766289737256 -0.1349842015190901 0.41749264600581 -0.09689690772906537
P 8.097383517127076 4.60131561322214 10.51772990025074 0.5455839770598088 -0.6511478164352528 0.4570318417510129
P 4.9682802901990115 7.014609953923397 8.873862515657828 -0.9557782896319929 1.243657511512323 0.24560514370246733
Ni 0.8470040055741997 3.8486608593866958 9.237981261815673 -0.09704114661641353 1.0006882627708058 -0.5838437918719558
