# total energy = -340858.50247855636 ev
CRYSTAL
PRIMVEC
9.29737226784225 0.00000000000000 0.00000000000000
0.00000000000000 9.29737226784225 0.00000000000000
0.00000000000000 0.00000000000000 13.60764410678043
PRIMCOORD
 96 1
Ni 1.854686269950092 4.4951864283438345 2.1752773243741945 1.6837141588615776 0.5036189454819326 -0.23814945875537047
Ni 7.0339175519185515 6.432628607203498 2.798970146597324 0.07422749115600764 -0.8435169836317149 0.626033023645496
Ni 9.509538113794788 4.54922275488944 9.579617985606582 -0.22428144252402665 -0.10431788278348486 0.3597153299860256
Ni 2.6325602026349775 6.871910843374649 2.462752069176344 0.02329907973725665 0.21652802383085287 -0.17494197285895033
Ni 7.339429198561457 7.6639911606021505 0.8533314045094085 1.1957426901089148 -1.410893888196899 0.7390682316973207
Ni 4.082903760701321 0.23940082297328572 11.819722166565752 0.10752430553592449 1.8727930853425423 -1.308624660412327
Ni 5.827462658329891 9.511025693328046 8.696073840776698 -2.83143609811684 -1.0315402151546558 -1.135129190191916
Ni 4.299411664394971 3.6377641801179665 8.61981679495305 0.39045698204425655 -1.8057644259278192 1.5031540684849014
Ni 1.5734779539317925 8.275897704235833 4.488277551149059 1.6084034619437204 -3.0136393805238937 0.40535883885675356
Ni 3.9678487811758814 5.189616446585018 12.577178140419461 -1.2068105178873023 -0.5812811733511022 0.02160112320954344
Ni 9.047644668718112 0.3396804187846385 11.331683581454854 -0.41518816624234944 0.9480554670664383 -0.8447272018897323
Ni 7.629618776011803 1.0725262487350062 9.602383530888682 0.6253051443405359 1.0541733791731394 0.958846129924039
Ni 4.689492207503606 5.566057744848092 10.026452477120642 -0.7756120922596255 0.045332405388212246 0.30016498122621854
Ni 4.182153207685893 7.563858463269707 12.755736960482485 0.1962952417237458 -3.097711625684465 -2.5873826151722086
Ni -0.1142451784170225 3.7117247750371485 4.0332920535299515 1.9458674367307134 -3.072318382422341 0.7920231866277972
Ni 9.077173122453287 7.518626748086574 10.682721431647709 -0.040479448171285126 -1.4072406077150281 -0.3670838545359549
Ni 2.024102984044037 6.8959073607205195 6.758739511433197 -1.3785398973462257 2.7771367133433267 -1.8852441666217015
Ni 4.094451096828238 3.881346031316916 2.4363670569423848 1.2436878505296258 0.7864526345185552 -0.0841745750663905
Ni 0.26664119343886844 1.8354500071106468 13.040640981903723 -0.10181080009091499 0.12812655516730836 1.1922002241732952
Ni 7.166033209216046 3.0153423086585645 0.26567333700504236 -0.5729520846601164 -0.2553149147910635 -1.42177685365799
Ni 3.9882751076419334 1.6696220786406872 0.14548248914102843 0.06728988349590992 0.37223197439579764 1.1654859481069024
Ni 7.709111307320288 1.9613922093451204 6.060273503970842 0.7783369473899563 -0.11921562583092371 0.23351684507936554
Ni 3.7271398179505364 7.154169762438312 8.459423180465524 2.1503493280303094 1.4737920703830167 1.583317722619686
Ni 4.658225145188935 6.187587068587539 3.6426434409870536 -0.4793647009202583 -0.24055292599054054 1.0513562214393182
P 6.391655088434317 0.12163287027406612 0.4790433776207259 -0.7409068275679562 2.0852443680008603 -0.44748456438221
P 8.368611098646152 6.50473902507819 12.861605206652847 0.3659947352368342 0.2613968593190853 -1.1241912031231736
P 4.792971958785881 4.025083403717991 4.5638809917152825 -0.2616987068302203 0.4211364134059844 -1.457046989714194
P 1.8913272133286583 3.126464499792953 0.3331518041080515 2.4756519848644203 -0.8363749732702951 -0.5622874058574187
P 5.019288590026953 3.2056967046831186 12.87823355662305 3.0792274508373487 1.9125580239453064 0.9961980882099359
P 0.7565866695639605 9.051596051853329 1.7575361695818312 -0.5401275819309278 -0.025550080554962443 0.13008445022462758
P 1.9788712688609043 8.475930664598648 8.626756353475699 -0.11373274833948155 0.3591679421229879 0.05509642675351157
P 3.866126233217268 8.77734217015301 3.1490943034426437 0.3548538881286663 -1.271025104891998 0.373644281362292
Ni 1.2317344482819663 3.356007319146778 11.537145277376855 -0.9622659542388653 1.2863799900815136 -0.528096876018639
Ni 0.25360813725310993 8.527921569286024 13.14325607758229 -0.8144874291685844 -1.0231345075894638 1.1101357534713718
Ni 8.402909104259836 1.3303795660811517 1.476715553979387 -0.9079963942620232 -0.8843137059331028 0.5114207009145385
Ni 5.430288220322031 3.6396515466507884 6.601122092249614 -1.5801197845076786 0.0014984389223974195 -3.0057558640107587
Ni 6.499969473199681 4.008636352503405 10.177020628790997 0.24712826521521308 -1.6309862323402426 -0.13907225554553468
Ni 6.440661536683093 6.531431780328092 5.069949970506477 1.2206433100053364 -0.49776222959083954 1.0566308395746964
Ni 1.1647561797970154 5.817198359550409 12.067897849310846 -1.3297395880140712 -0.29213028384720013 -0.6547255064841822
Ni 6.5780023170911575 2.513535245230155 8.076925574027673 0.8513421361030886 -0.5964897627707404 1.4204717616933216
Ni 7.072780567224922 9.102257432332854 2.7922611629023293 -0.27537748986889343 0.7560076877651367 0.455110456358584
Ni 0.49398053560905497 6.726174535975758 1.0947162866851772 0.1855392887588224 1.0925967161463441 -0.6516586946334003
Ni 7.037478445426288 3.53869138320297 4.298273666052029 -1.937365827017605 0.25569518094861765 -0.616033746340939
Ni 1.0730561989437295 1.0363873634489145 3.963580357652639 -1.6157041093701914 0.867166761840171 -0.4432939233396301
Ni 0.6999879872723187 1.708429309714561 9.534753516620722 -0.25650327867220984 0.3189191219052701 0.10836994136567141
Ni 1.4546761334569582 0.3161004237080792 6.49520085105838 1.426811073647788 -2.801014548402189 0.08563084789694285
Ni 6.8915654879578225 8.052416771480035 12.195074742557923 -0.5015890595360974 0.8791319046218473 -0.589159033437282
Ni 4.024720806206759 8.692438568292298 6.935367267314611 0.6243949738214408 2.1754898318516793 -2.1297146824990936
Ni 5.482502261939394 1.6928376167315982 4.155896499186677 -0.865312996460884 0.31290916826576437 1.4593794945021124
Ni 1.0451826774393036 2.37804464186658 2.1417482114317625 -0.02841506080758332 -0.581880754608314 -0.5308330440028793
Ni 6.224051361896531 7.127105112305095 7.585459047829824 -1.0467341492862747 -0.07068168278627827 -0.018561050831639003
Ni 8.20683682440432 6.39597836645285 8.39927755072427 0.8811887871508759 -1.241802717691771 0.3764838076936161
Ni 0.7330261989687753 2.377579773262437 6.110933954713159 -1.0212097797629252 1.6560668294579544 -2.3114325406292964
Ni 5.175196222484495 6.553829149675711 1.413834637371354 -0.33483116514983624 -1.0505890042559907 -0.8577621806968195
Ni 2.8992460234598436 5.280879450950409 7.825742191413773 1.0598861132872004 -0.36196375970057015 0.7025631947927513
Ni 0.2788049453348792 4.35725991349455 0.31770329065516495 -2.2089756223139503 0.43069988872470333 0.18678961622615572
P 1.8182591661294314 1.2447693639421415 11.383025529570846 0.3876292827874744 -0.10889727462405117 0.4508367686838945
P 4.672914993079861 1.6930607536615871 9.962319204493047 1.1948263489422326 0.2936590617869007 0.24247199739012434
P 7.472604756276398 8.254541640561495 9.213626933564646 1.2311879182904022 -0.462894471179377 0.3126857394010486
P 2.7801652818225238 1.9932636008451774 6.407159386119701 1.3214056142270791 1.6700276625134205 0.37100967195292234
P 4.5572742791132 6.827450810074394 6.237281522370447 -0.10457242199645216 -0.9863718461481333 -0.9972319287910889
P 5.803521925216517 1.219006345900526 6.247977219214573 -1.5350712289084725 -1.3099894019703373 1.2215095146603738
P 6.308285552967278 4.8155273834589085 8.154012875178323 0.008671302521752808 1.1558875057851898 0.9619689918237367
P 2.3035912862270065 6.636194568957802 -0.054558838856661546 2.405897698988418 0.8725946177239619 0.904024811208785
Ni 3.6656934858548897 1.5215707255931636 2.481422122055943 -0.36044552328383084 -0.45927692903144773 -0.2917078515978008
Ni 3.1200028261953627 0.7142222639311832 4.799102645937322 2.5883830314122647 -0.4295850583939698 -0.13314843386193198
Ni 5.977605920096059 2.412742434479828 2.205363620434342 0.6178268336856199 0.1939694218040466 -1.908334987002894
Ni 0.6378517901681231 4.9744008776108855 7.134201796415946 -0.887697020583039 0.8423229633236139 -0.8128763759277227
Ni 4.112367132831917 8.540714753272043 0.9477573748573902 1.748813205353756 1.9334320391808377 3.8190189338539393
Ni 6.220732200062949 5.617490807210494 12.93681443864276 -0.2765072325979625 0.15651179117822078 0.28551457830289534
Ni 5.663159498881522 8.752350833994273 4.658848998855695 -1.1925501513135461 -0.9617782159691693 0.714887263575743
Ni -0.013655050378102114 5.358270776168167 2.7010083856462295 -2.5916221071748526 1.0730501614729844 -0.3758166064232624
Ni 1.7968008313621817 3.1493546298609636 8.002410855732352 1.291607814139356 -0.5081237753308215 0.7097597125411905
Ni 2.2160658254389265 6.6650350171588455 10.152036730529925 -0.3786497049966834 -2.2351224559126477 -1.6992654763326156
Ni 3.462313471542243 2.87277640513993 11.634793716888757 -0.0691701312377583 -0.7093799606042686 -1.8411628600317709
Ni 2.0641932524653455 8.449860833278299 11.289826812337802 -0.6637793891563342 0.6716004278626498 1.2474483460133226
Ni 3.356360619285927 1.0733258227341325 8.330694555817816 -0.8805092445853482 0.41654982247656647 0.7825687260831167
Ni 2.528624880120643 3.0515462755492364 4.042463911089697 -0.16055870755408477 -0.30756667300692836 0.0032100222968654397
Ni 7.674023025079561 4.504734829472937 6.362975484770307 0.1484027889178412 0.21309380133832334 0.9419794360756873
Ni 2.9256040733147626 4.308132599408697 5.92976257309485 0.47593793462689643 -0.6139809775769685 -1.4085768100279483
Ni 2.292257789657995 0.09322474987487565 13.797470312879046 -1.5868506754736091 0.6262497676419924 -0.8112105581895255
Ni 6.3258947756922215 1.187999610004175 11.91143702321437 -0.06064101072082459 0.8814422979225787 0.5610561045534789
Ni 8.973804939636008 7.777930455477646 3.4336710573665643 -0.1273310558492065 -0.7856291101759953 -2.423366802307459
Ni 8.418807610521533 8.902893882760004 5.317649627800927 -0.3044546097405079 0.7750989000686329 0.6307250298045266
Ni 9.087223581674863 5.781766074542615 4.907052573717037 0.040635771243491305 1.8291475807384499 0.9808169777681752
Ni 9.012268167942814 0.33582944726791625 7.799479904491308 -1.2126947445822212 -0.6269642772105137 0.6250104959182526
Ni 6.965451703900341 6.233023325956494 10.65708485786642 1.3375642262648124 -0.4082364175148646 -0.5952150098233749
Ni 8.001811175233007 4.436845418523864 12.044900799463882 1.6136184304857566 -0.42228261119528565 -1.0701275885095505
P 8.281197206323066 1.4953521363194877 4.03608126515481 -0.7984645713777667 0.48619843601264007 -1.2551218033981804
P 8.914562084723999 3.0686441428096227 7.773679696961361 -1.275221659471849 -0.2180208063262955 1.1651918139052513
P -0.3127626671303311 7.245265414106211 6.606266328223063 0.33450514926898517 -0.1679981945512655 -0.2539933677661626
P 2.456216946339299 4.460470040986422 9.592653831003965 -0.5212459145350765 -0.48011957680841183 3.8337690955799197
P 8.136734638899528 2.381865861792637 11.249180561065938 0.1708037823208607 1.0360661280494674 0.411026321555176
P 5.3525250002209575 7.538011768879346 10.51175484562755 -1.706906537817641 1.5840548578960267 0.45985774123558226
P 1.9674355011989817 5.730109875250223 4.4444739123178545 -0.1848641170686687 0.044563388432671644 -1.0111197425167746
P 7.210056266028406 4.924371718432996 1.1374832685291427 0.4684971620781351 0.34539814203240515 1.406418883144681
