# total energy = -340894.0090346941 ev
CRYSTAL
PRIMVEC
9.05415946699608 0.00000000000000 0.00000000000000
0.00000000000000 9.05415946699608 0.00000000000000
0.00000000000000 0.00000000000000 13.25167758841922
PRIMCOORD
 96 1
Ni 6.246537135810303 2.050649443517495 11.56488529021291 1.2177479907354123 -0.5025370252716636 0.38013631684453886
Ni 4.483013201274899 0.30809041551740973 6.091173189707021 -0.03780395822165102 -0.2040214067234099 -0.5571081756493244
Ni 2.704070032954287 1.800093685127567 4.657964916239554 0.9940154787363203 -1.4524508857030793 0.7200364118768502
Ni 3.323311169931208 4.35526806359111 4.836928529319433 -0.06240478748946672 0.3230683681869533 -0.039781136552679876
Ni 5.1604363677901315 4.422123978018575 2.6973129136507636 0.06006534072301268 -0.45658267002873626 -0.794771695907212
Ni 7.409027848308335 6.304402269762893 2.4852463876865056 -0.34893160910696036 -1.4111790235374857 0.3589640536422979
Ni 5.311532183061737 4.274740368179697 11.825717519739781 0.1641047730341303 1.2011162957160022 -0.3877915193969515
Ni 5.76634072768801 7.837543113479387 12.294615242107195 -0.9500403587069509 -0.39867217086519724 0.26738470147140403
Ni 1.9507911173771233 6.380131260590536 0.4513616260695921 -0.5013352916540785 0.777138813316797 0.033830832506515925
Ni 2.696518863854543 1.4817494338721964 0.41086418104641176 0.5130428098989939 -0.22348440054402804 0.24991945480710503
Ni 0.5852291864695042 9.143976855171328 4.6690300046769595 0.0598812497366646 0.3006789447481596 0.4083960830211805
Ni 8.610044009870407 2.2195910073449685 1.512003002732967 0.9439725552463162 0.6333997484232124 -0.5695332887865545
Ni 6.825994295539895 0.7483480202633503 4.976362587036517 -0.5049435778306272 0.6368116023182387 -1.743618548526694
Ni 0.5979692944314333 7.342434504509039 2.5555465044227743 1.0219805964906785 1.3466301931218227 -1.8182404469076427
Ni 7.626563086666172 3.78596061676417 3.8893410109858375 0.3612158257909521 0.3573072347651653 -0.5947470690480209
Ni 7.812109979185407 3.768676226103007 12.786252486289962 -0.48755674981274744 -0.32156787238202683 -0.886807418889234
Ni 7.7269646623820645 8.959616057558648 6.944369283461905 1.8278538016276906 -0.387008875594656 1.54927040322699
Ni 6.828466081108516 0.6416012895053705 0.3050219608316746 -0.56608878188138 -0.055395188940852984 0.3075502179466961
Ni 1.4807987471150346 6.473932353963848 9.354518660660291 1.7524549158714013 0.6623046043830206 -0.5879084488596327
Ni 0.066346165242434 4.893691772049674 1.3136643935421284 0.02881615290074392 -0.30280370440064625 1.0781376032982206
Ni 6.251851927490818 2.003060780701846 6.971415868995183 -0.05961694033168443 0.4682061132002775 0.7208722775145843
Ni 3.561526108797215 4.492646827080806 0.6692173816769862 -0.02781008023373275 -0.668777613701874 -0.4202887206937085
Ni 6.011174257215782 5.5716762964596125 4.632839623371703 1.004322002868651 1.1492448036576917 0.7892762200102794
Ni 5.030128902941802 2.8477142748816604 9.669471223732492 0.31694091513297673 -0.04078618077842653 -1.2987107437327245
P 0.19183410093993286 5.455294129063806 12.480986968565261 0.25212443287822384 1.5288291046535025 -1.2373166568959595
P 4.093548526424223 6.143944453473141 12.456710050451182 0.7635369062626463 -0.4941917386307617 0.8597391019175323
P 2.4324090285553632 8.353675481022401 1.4480770143494797 -0.15686017565657503 0.2523802576427718 0.41348558172894595
P 6.414546121199798 7.829638832155554 5.801001861438175 -1.7189218171109624 -1.4790206657718077 -0.5095209127886644
P 4.651773681910532 0.8685184480324568 12.674965094496585 0.31420063338367826 0.9955375718078014 0.29230846129627724
P 3.9618557751583134 5.996560843634264 8.084676399543532 0.7620878325209456 1.7670222721626148 0.6637575347794633
P 4.839212893784499 1.1318785989174176 3.815953425828691 -0.8325856814311918 -0.7084754465121282 0.5662695304336183
P 0.16059000701979545 5.575460935169075 3.6088033085228988 -0.5108679137348621 -1.3892117752377753 -0.17663118763591518
Ni 1.563752957297108 1.0620981909417309 2.5131277667341676 -0.759135434760841 -0.507758421571603 0.4434772429950298
Ni 1.5313119034789058 6.803712008783937 4.679206880058389 1.7051425039386825 -0.8567062286284794 0.5792983385931185
Ni 5.92217186842624 5.423677003768477 9.059867334225313 -0.1852909201934422 0.37854248999485773 0.7965149038505638
Ni 8.767695036686632 2.1166180503049423 10.337010869637076 -0.03862234035788832 1.782354017423679 -0.5486800994866293
Ni 2.2674422407887866 5.323954490021985 7.047600284050304 -0.4921988765704491 -0.27491057753480397 -0.45308108463338104
Ni 0.66601402001333 0.018179847044813957 9.221245958545575 0.4469284347684238 0.2305258807718417 -0.40879486112149604
Ni 1.5309135204568571 1.12529622489402 11.524281911522502 0.18321218328754252 -0.18720870604144532 -0.32229163792192883
Ni 4.333347943218833 6.763149373811696 1.3663279128091037 -0.1947924319259742 0.6776502336011555 0.6644617599353395
Ni 5.776771119538015 7.790724054229059 8.067939785537686 -0.939231441016905 0.44011269739817105 0.31077515264189703
Ni 5.192587688501389 2.9452004112089236 4.885310336515343 0.268382289497983 -0.115019328361389 -0.16252045926614592
Ni 0.7612311839468335 7.43304853370596 6.857424905147629 -0.8232896008412466 0.021704481556627134 1.1095850231742244
Ni 5.01882025761137 4.598734415020487 6.893509352785659 0.1955388231736955 -0.4111687606703112 -0.3924020215857693
Ni 8.225830747583101 7.192986546283182 9.089643748875586 -0.7240532463457272 0.07089636990024564 -0.04328349327898352
Ni 4.7191185209559645 0.34191766116915007 10.48346823894969 -0.21551475207499013 -0.5139164707531988 -0.7260113985133626
Ni 8.183909988672054 7.265591852051578 4.636244892794261 -0.9268099274241007 0.09835086656677257 0.5396961508204641
Ni 7.221977965296825 6.096446332253413 6.984469250878996 0.33870864582737154 -0.3318545990200155 -0.5765140909797619
Ni 2.250031091893335 5.304723455048538 2.7685139192664376 0.3207132376912154 -0.06753490962718046 -0.7166348423944691
Ni 2.3356019541975015 5.222982502251796 11.587598554965448 -0.769288978255075 0.1643145750520912 -0.8101306948617855
Ni 1.0885634994292008 3.3321118130546505 3.784904901755741 -1.2024738381851612 0.3607172888879787 -0.745039361679091
Ni 3.460626554303761 2.5918980497687696 2.526286176869248 1.0526960232966645 0.6164620921276093 0.33926966053716406
Ni 1.0900031108043318 3.3978269033735207 8.163549899997482 -0.4386811071579671 -0.29474586709317624 -0.027169104215624174
Ni 3.513520954640333 2.809442342286198 7.114945123095737 0.06471878033462403 0.0955823026826999 -0.3434153072744215
Ni 4.023433114543631 6.6618423821366 5.7543421553966665 -0.07412824657398201 1.2925730062661027 0.8650209191417619
Ni 1.0222779970560334 7.522186734889382 11.410674844041651 -0.41816730347533143 -0.19559230211945022 0.5515746474256049
P 0.16224058031342042 5.496146497142993 7.992126591025837 -0.34412647440883315 0.17412924714966782 -0.31660307217758377
P 8.712989804431656 1.587257555597988 7.8562571559401295 -0.33953756948657005 0.5994922970424902 1.0968765744686206
P 1.8565825868221708 3.26442291594472 10.549647807655631 -1.975208866007308 -0.4281375273141659 -0.09295412103123346
P 4.178349785163068 6.106152391336056 3.6921296446642047 -1.1657361164444957 0.6298444269717862 -1.2169969715020008
P 6.951856168028545 3.7451444653233508 10.251524211017115 -0.2542005986809622 0.553790167019685 0.8238961240769939
P 6.481112302520319 7.864687483936259 10.230586466960572 -0.0586769450159183 -0.17044099966480322 -0.5202465267362847
P 2.3521348496125274 8.420214499864146 5.784675400861848 1.1078114762135696 1.1979618092474207 0.8155883755422471
P 7.080724021501744 3.8555871040267924 1.7249441605138134 -1.1945319576302653 1.1902212460700534 -1.2370045249721793
Ni 5.1883231793335485 2.619658103077898 0.7173592536437078 -0.156572212102511 0.5273715678168401 -0.9282052651097304
Ni 1.6996558927733059 1.1557453636019783 6.993162149503292 -0.8195399039908273 -0.10867950218629024 -0.4965365847138546
Ni 6.988643218450916 0.8991513861801329 9.229183740259899 -0.9622253308089169 -0.19340840709425403 -0.6609192939997198
Ni 2.754094264700189 1.783379706520701 9.240819240751598 -0.47803029837955086 -1.2985968438626796 0.5291461432187596
Ni 6.471795572300131 1.9449874010786394 2.572190766000782 -0.20914124444847854 -0.2290333553867152 1.2009309191780737
Ni 3.92779402677314 6.546320359902037 10.278332672153121 0.49386803674275587 1.6290851586627877 -0.07694077632211266
Ni 8.120395059134045 7.32539457615686 0.03200917040566302 0.14777801084964873 -0.855203675941024 -0.05359644516921737
Ni 7.574039906872873 3.8771269496962044 8.147833689777658 0.86443727872415 -0.7677476019098842 -0.5916314062371747
Ni 3.105784985732964 8.341008711753169 12.498518537783287 0.6004688020231465 -0.6055557296277506 -0.28767404784805944
Ni 8.99330658540055 4.773814699051349 10.17182859287221 0.158881576961978 -0.7488232542015555 0.6339772181932372
Ni 8.707158925654396 2.481165677958383 5.696286884092644 -0.6225892880712697 -0.6793271070829462 1.0321770774077061
Ni 3.5840890745005254 2.777091830063916 11.691027841648912 0.18994333136378902 -0.8078426701585572 0.5328804134502113
Ni 1.3745934551006576 3.426854539025532 12.784383707750168 -1.0567498816510639 -0.27316814092240055 0.00670235172084007
Ni 3.1075596010129996 8.425094691884244 8.020246999886728 0.4096991181033202 -0.9403766103649418 0.13966155239010142
Ni 5.792959956888544 7.973609023828241 3.452088481808488 -0.7025441686293578 -0.8156541957831759 1.5896907160255656
Ni 3.221850257543049 8.4233291307638 3.780067264285725 0.5110784870837713 -0.14567202025023945 -0.7388998244402565
Ni 3.181604518156527 4.38110863506673 9.35421353548204 0.5709828767488876 -0.07753161582857615 -0.7085739197632055
Ni 7.1808268099511015 5.975654789136293 11.314905376373034 0.32722404222653967 -0.17056055596180303 -0.2516984010843988
Ni 0.49217777751041153 9.096080350929551 0.29302248312437246 0.8537564019715361 0.2666609359315021 0.439782567752262
Ni 4.764425535554426 0.27038527331240786 1.793243307980246 -1.3138810237152598 0.2952665154833366 -1.3322358720733636
Ni 6.343416643444901 5.536709132115236 0.3646752913036886 -0.6791494438545014 0.37322776265016366 0.6700896476450782
Ni 8.150373381543218 9.01336154889687 11.17091254930137 -0.2849571631375286 -0.8718844790308146 0.7881781018500942
Ni 0.19320852236600128 4.990417358971208 5.770880483307447 -0.7504790446374237 -0.5740532881440952 0.013871872886085787
Ni 7.8442522457370725 8.912733619191178 2.4454252883848495 1.070940571329149 -0.10600864022234646 0.22553356976357286
P 8.47594285215302 1.5678997623902524 3.6229558653811833 0.20088311820474433 0.5557814864181009 0.42975012321692435
P 1.63992560194476 3.2955692249412634 1.6634166190062518 1.1353395064305092 -0.5506297670138323 -0.3907189774563916
P 4.5557090486392156 1.1348664715827836 8.24001227775208 1.5798719301629307 0.06955219716752538 -0.7089693554294113
P 8.38807223331248 1.6662913146767178 12.555739015572925 1.1356421252725926 -0.1032534460747125 -0.9652677171796665
P 6.365137572306154 7.779098513312907 1.310124217141649 -0.28758045969298857 -0.6874273675925775 -0.5841340694188649
P 1.688419680719611 3.280720403210353 5.856579009261862 1.0009376597774504 0.34502507496370255 1.7260257751455954
P 6.849335918968119 3.9962977982463523 5.928880095267967 0.8255773684341589 -0.2823143261980428 0.8219096897745845
P 2.6432260804959222 8.593565439412933 10.178388331496626 -1.4966221809036548 -0.29295817906513416 0.6828742010042561
