# total energy = -381166.3322535774 ev
CRYSTAL
PRIMVEC
9.24699360590694 0.00000000000000 0.00000000000000
0.00000000000000 9.24699360590694 0.00000000000000
0.00000000000000 0.00000000000000 13.53390984268325
PRIMCOORD
 96 1
Ni 5.701446433424882 6.445884880404077 6.429797886065646 0.10406385779114981 0.6298071459759476 0.5494653143920859
Ni 7.202011526983076 4.87644818034325 0.02027680702725238 -0.40237275964523606 -0.2778544906544763 -0.07570047615710833
Ni 5.233761250545758 1.569991519662084 0.18309601661064095 -1.8550848694295021 -2.249551486853784 -2.269950876445742
Ni 3.0076215764510876 2.65342474300897 6.453875207361506 -1.023505003555005 -0.011467377209651219 0.838220511119466
Ni 4.034981032097655 3.8177321702323384 2.613939156686884 0.02869016884584091 1.500905381660041 1.797506042573769
Ni 7.510371014368056 4.667614082430322 9.450932093905335 0.28968053675512695 2.183891168541497 0.6995984557374726
Ni 0.35146989510194193 7.713545952348167 8.129711511753953 -0.02799417122008082 -1.7636021907374724 0.6468268204623956
Ni 1.0423025969070747 7.072886511783992 11.00018538157179 1.4676443056140658 2.6673755480570835 3.0628371824047833
Ni 2.2941143222419393 7.2129507201211815 3.730554290986248 -0.6952095826411575 -2.433387162657938 0.2623509957022385
Ni 0.980051837646101 8.670221390794664 5.253146647413658 0.8556482196776102 -0.31847277839647087 1.2205288959146592
Ni 3.3638804894112084 7.608167216082859 11.068897015089394 0.1950415718223028 -0.2222459001512366 0.37184270937717895
Ni 5.287273601086943 8.80701216348444 1.8937592720732914 -0.3145870701888195 0.47668484009525003 -0.4506863591489594
Ni 6.265143148301435 4.022553073029511 7.677989413502313 -1.5709124069767977 0.5384877323346596 -1.191254315320258
Ni 4.526079602149801 6.198906934904769 3.1742838364725126 -1.4579656448737215 -0.968837436808796 -0.5018495122863357
Ni 2.543034136345645 7.283505279414293 8.864994510613082 0.5028015917869598 -0.08263191316961899 -1.2902124764537264
Ni 3.9394318497679404 8.37137705957123 13.478190037153501 0.2984557118445957 -0.03651095044184034 0.41987837262916716
Ni 1.7376857441418458 7.5919202487594 13.618361510613601 1.128518626853934 -0.15979380436360222 0.41778600887651274
Ni 8.112618444538578 5.711544150167749 11.40881464139384 0.12136815339755226 0.5714464466488673 0.6718703936945848
Ni 6.269378271257692 0.9738840930788002 4.417914746786851 -0.48261894619149787 0.3334561391791806 -2.097388202452246
Ni 2.7385987987951896 5.341497970116406 1.5180983176572327 0.2102213648865347 1.4114001384093564 -0.45020684840937947
Ni 4.8632527208267 4.030810638094877 0.4666347244340786 0.09109212812183022 -0.7658159321048101 -2.1714393159313894
Ni 7.215475149306899 6.938592427299867 8.272845721884762 0.5809086205030318 0.2247691807937226 0.0435539733315508
Ni 2.650132813374849 0.708807007487171 12.394097503180456 -0.3657196271985766 -0.4895385561294666 -2.075190583309284
Ni 4.298585071647949 8.332881826237388 4.065383296847838 -1.9830173063081333 2.641145153605645 0.7974908946105878
P 5.98065939775719 3.556828252741493 3.893760024891845 -1.0786106862798972 -1.9641037572330817 0.5004418333055317
Ni 1.0444941343320377 4.909876061318951 3.120040048757005 -1.0848736364704736 0.7451602035276715 0.25085250814433574
P 6.240795814799631 3.7365898035485823 11.779143779441824 0.6875415245729384 -0.3285335050665826 0.6779160856680325
Ni 2.7477718162026297 3.219072573483275 13.35687225844343 -0.24037192032798602 -1.2024640679931486 2.7014002417419603
P -0.12469293128438078 1.3418496996254319 4.256197778811291 0.4964465961032096 0.3231416446270499 0.5453739179315317
P 0.5962479808822687 9.220648670207833 11.414567195959535 0.263425716823656 0.6819064377743482 0.4273291724802576
P 3.0238592967811933 3.6725081396034622 11.498233991829007 0.402778479724087 -0.8784739593228742 -2.8604404557689898
Ni 8.394577765897106 5.142724600972928 7.208728542955621 -0.9722163805833579 1.011048522959207 1.890204081730138
Ni 4.899954037449814 5.485455162655747 11.59015557866584 1.6891651546738198 -0.5497406795406596 0.504303373143467
Ni 8.064598808049832 8.679856757869818 4.293132119666933 0.7819346920435436 -0.07277867452462304 1.195232840352032
Ni 0.8502564154288319 4.719924323835451 0.3000612355488548 -0.5786308802124486 -0.6750773306676567 -0.0012996926480300197
Ni 5.969849662526044 8.999543812113783 6.342098476394375 1.7919537452969718 -0.36467318821193323 0.22360112862755038
Ni 6.859660092027783 5.246984451042369 4.728260488344329 1.9886927594263555 1.0657729110852805 -0.06298739946581411
Ni 6.174411649509296 7.471062045619036 3.935132922557538 3.404903431850478 -0.7150926947183298 0.12007668827963837
Ni 4.325697256162681 2.773385987793969 8.793007592049394 -0.2570748349049637 -0.061474305255397356 0.15991104666775685
Ni 7.114303795017785 0.29336178886368314 8.777376474483328 0.06220269878098965 0.4004385187370007 -0.9566275250061654
Ni 7.329962174026167 0.3187688278038869 2.330512337483033 0.7925289226196222 0.3735069844534793 -1.082253425238807
Ni 8.187768759528764 3.467576272886039 2.0214112412310397 1.1384050327297104 0.35237791578434796 0.3872742134409008
Ni 4.952837592442909 6.235229124800357 0.7007057166094913 -1.3792351236410376 1.0523954613371103 -0.3346758705188946
Ni 6.747808460414483 2.5895187719375814 10.025365492765536 -0.7971378821465432 -1.0641975961783607 -0.14689920778912122
Ni 5.85522393290646 2.499046188959363 1.8553907225484016 2.3687066917604174 0.7892309685946407 3.7984192553257166
Ni 0.11674883929372384 6.507617808037212 4.55656971333685 -1.1786160577309572 1.1698730214310045 0.11685355335665037
Ni 5.073889982443711 7.830751593113592 8.283010016979782 -1.3172774509913183 -0.7918678919968557 0.06109969552479799
Ni 1.8059470490830978 3.1129818187296876 2.0883770424033576 -0.8271413704871691 -0.5098770105765025 -2.4284241622257077
Ni 1.363441429107662 4.439093135666145 7.868723446623584 0.4678435876545362 -0.040739129590575 0.24194389280079623
Ni 8.166916789514875 7.912753930179296 10.388493997088545 2.898546518612092 2.392962736094305 -0.5608347325712921
Ni 3.192737136410302 5.249471892254669 10.150892502850471 -1.2815254902026896 0.22927529619419224 -2.1878956617151997
Ni 6.2388077112284615 4.885325293963352 2.2711521883446055 0.24006107395578657 0.7229173329690711 -0.2653442740026075
Ni 7.674477405426359 1.9365608302122201 0.309314701798477 0.07753778647616325 0.6547185645056467 0.15063656334436637
Ni 6.346045093157978 6.995193273621379 10.512436997211895 -3.063409767078802 -0.018118821087897828 -1.0048128264621405
Ni 3.770295094324912 4.771753721586157 7.497542660487672 -0.1819772824391769 0.466507642451932 -0.25895122599207016
Ni 9.273717165068012 9.149539291313465 0.1924715431725395 -1.1786057733183122 -1.4896712035071185 -0.4703298444114997
P 2.3885353713824324 7.0126423500808945 6.218872118255982 -0.27031344508242483 0.11043813674860979 0.26823650794873805
Ni 8.61212253154976 0.00014795189366838656 6.829711854651295 -1.5008004806510604 1.1197449944263618 -0.4956454403581528
P 5.236664806458999 0.11647512829043731 9.576634796864003 0.2984248586066603 1.5500016249660598 1.3827007135921348
Ni 2.9092982961150904 5.647656673083069 12.527446544943771 -1.0178753160730536 0.5158897924294857 1.9068221499027935
P 7.259685024533683 2.247453993776272 7.422605026344634 1.0519285490030206 -2.011897736787909 0.2150990046938102
P 0.5599757247507929 5.931206477298532 9.496446719894408 -1.132467841309669 -2.0292560255606986 -3.7524697851787954
P 2.064492983268603 2.036141701644399 8.538557151220495 -0.21053581080315997 2.226038234223192 -0.13692409885428034
Ni 2.2669004208003103 4.980097728851309 5.328570673407131 0.1996333049580433 0.45608850400113715 0.4389256190686054
Ni 1.8363326692452426 0.2685326870081216 7.503090856500235 -0.33799722158264367 -0.6966589134931744 -0.4878701672881082
Ni 8.95326261037564 6.694101923012858 13.521391065405334 -0.37917035338684374 -0.25402653499694317 -0.6623531982327691
Ni 0.7143940408718233 1.8697975381943608 13.079413448750428 0.5490328548403578 1.672875159264545 -0.04399157508960166
Ni -0.06057797816318545 4.487926507570067 5.4373023694626985 2.0383510458834313 -1.3785908051888192 -1.9999734745464977
Ni 0.3439890774783342 1.105283868643036 2.0742476365580274 -1.5129569135079362 1.4697860345474172 0.7480449812746343
Ni 2.16117029878754 2.786997562011461 4.1954441077743745 -0.2798908043582148 -0.4919736479335204 1.6957224961763633
Ni 5.174543505104985 8.932771273102569 11.662210000281014 1.3982754281019403 -1.1959933726671403 -0.3118794414496694
Ni 0.024497134794143106 7.642713983254428 2.3143800328771666 0.2692852609282265 0.41877999735866583 -0.249323473094319
Ni 4.605982871724085 1.7600079860990636 11.514541989308606 -0.4107208744996152 3.246526819549376 -1.2400517964389353
Ni 5.221296303504197 2.2038729140975777 6.068334765245741 1.7598542936592658 1.9395366094166793 1.9675901731197853
Ni 0.08793798209981184 0.651730865707249 9.230370034321181 1.1540309121924253 -0.08003689874893313 0.6258404480187156
Ni 8.91213198393583 3.0244233633758038 8.94667227821205 -0.45624508418365944 -0.3435042674438019 -2.1255597797904553
Ni 5.2098855137050215 5.543581762880713 9.138677772919534 0.3064749826046464 0.03278927861587901 -0.5502091345366459
Ni 1.1014093784275951 4.7852728258701065 11.234945274752095 -0.47891861452177514 -0.4765244032579858 0.3744307818193293
Ni 3.7256228694304134 1.6984045163728894 2.71208674414915 1.1410890073197768 -2.4148405100040025 0.7590590729969507
Ni 7.601084019173485 2.9361238238358403 5.262444499231381 -0.2778822585686182 -1.5316760871839945 0.11080117651498336
Ni 6.988387486512633 7.177932356288545 1.073735901416259 0.6889152649920135 0.7296662216571304 1.4866108194142396
Ni 4.669583692014783 4.824211914884955 5.311924235970766 -1.1624803285113592 -1.7881032612026302 -1.148037927833784
Ni 8.652337705647497 3.5643275643518093 12.19249640346924 -1.2830131304918095 -0.9348181424405577 -0.23294297485376658
Ni 3.7745764522479406 8.735468175902422 6.409619097167949 -1.3442724915229236 -0.5671622174512168 0.06964938486702199
Ni 1.0122406215123294 2.565559812156657 10.588280836703651 1.814763801212952 -1.6957998863815178 1.2024416993956453
Ni 6.904045660128299 9.13540063847478 13.244608210926529 -0.5203686541364457 -1.144436583635771 0.26806552958851254
Ni 1.9374392945808765 9.398551575350712 3.3544873935619366 1.0324074482509573 1.2385649274807637 -0.49275269219139006
Ni 3.2665188963840555 0.590251305692022 9.649447471934229 -1.6108362397549287 -0.5183467386104106 0.4976437017351042
P 3.394192133626519 7.805017210608648 1.9593851839085752 -1.0012672752027272 -0.8220775828110165 -0.13654486113799064
Ni 0.5159655845804604 2.3333493150441247 6.433682547973778 -0.2962782445773026 -0.3669642982389551 -0.19769417895380145
P 7.76554179597925 7.208909784025364 6.098528047946116 0.15920990683567418 0.15987222301002144 -0.2767211483809815
Ni 8.025927881842257 1.1595359786525627 11.538591569624401 0.23017621074190683 -0.17627766095123837 -0.3987194791633649
P 8.12562896418804 5.808646827380982 2.4503681665437935 1.7258195726720598 -0.3963224396860981 0.3319592429186799
P 6.198620278110786 6.971539464621146 12.562459360580396 0.61173280497274 0.6494346903988879 1.3799360063628041
P 3.9590262286856475 1.112699957313164 4.900195383976361 -1.4332048929892738 -0.08580876823570383 -0.9201947361004281
Ni 2.3696530109530047 1.0298099088854504 1.0635364677464945 0.6569739361987267 -1.23894570785895 -0.42669153889625877
