# total energy = -381170.24495315686 ev
CRYSTAL
PRIMVEC
9.24831387142302 0.00000000000000 0.00000000000000

0.00000000000000 9.24831387142302 0.00000000000000

0.00000000000000 0.00000000000000 13.53584218471798

PRIMCOORD
 96 1
Ni 8.348896652182177 6.177827277572958 0.8344688669470784 0.9609868304161254 0.6315526679121446 -0.17598532652180016
Ni 6.376407068296013 1.2225345815797564 7.708066201974204 2.0608412565661474 0.0731612546750224 -0.043515149673815375
Ni 9.107776277162193 4.104993490569006 0.9837486720885666 0.31067359406702627 -1.3556107993538782 -0.9837770888377637
Ni 3.879020194810479 7.449470404641696 7.021894044427469 0.042391577592333446 -2.0045479812910574 -0.19916999216837955
Ni 4.0219528822930055 1.0667189931808174 4.404955145201536 -0.10276853601849398 1.282860149853713 -0.41795390191294474
Ni 0.4776180605506363 1.0104430046119937 4.49814947703542 0.63401887006445 0.675399489893766 -0.256279592697178
Ni 2.22825169791588 6.404392465405176 3.8237125046809575 -0.4556570728906733 -1.1053804981745738 1.4310870753153224
Ni 1.6876785166773722 8.240228966778119 5.47581645806682 -3.1451561923196736 -1.2319721047545946 -0.6702449422760198
Ni 2.445688800174157 -0.3011694843954039 3.2225452972297832 -1.9691233219348603 2.053386342949999 -1.184983908930514
Ni 4.424698445184564 5.5830219850825875 8.580952563829236 1.6648764573297843 -0.1714568425238273 0.3480767173058328
Ni 7.772541745426366 0.38954267032280787 12.406478662817236 0.6665638938800069 1.2952161003159048 -2.7365690763336095
Ni 3.1927860735622793 0.5732262022475375 11.157635403393314 -0.054853457504770047 -0.8192259722948343 -0.42218902304021483
Ni 1.6479662578582217 5.81152007046795 0.48621529292098614 -0.6482201012654966 0.41005290189831317 -0.46076199821740643
Ni 1.190063752349659 8.532605154553764 13.104183467487276 -0.6640061604551597 1.43902818453927 1.2480055040683733
Ni -0.06161041588295651 5.994775405470619 7.552106339882303 0.4153223778273686 1.145664285395285 1.6549237169924467
Ni 2.9915612651349224 7.245406363923356 1.9002565549431991 -0.8966868827864751 -0.4617480162797596 -2.5133345870168586
Ni 5.77076275220619 7.155355533899587 4.568671567952874 0.2908100223738798 0.9178429480387998 -0.4519348868440798
Ni 4.423579399232744 2.1809558219025744 6.92584383333803 -0.7486196228311818 0.4707435349101506 -1.6333878998032
Ni 0.8709099972277254 1.0687258772431731 11.131496894520339 -1.3084678231194884 -0.5696795845564319 0.2284396876667743
Ni 8.589084606022919 1.3200765456611672 8.81146770642197 0.084075587594681 0.5024537215292378 1.5905862312566412
Ni 6.955564214088199 4.642708942889228 10.784492767668551 -1.5543907551726908 1.4754524888045752 -0.21857847860197838
Ni 0.3164782179825813 0.6996358525604564 6.87815675365727 1.9438676326918656 -0.4257032068410604 -0.2485007200827075
Ni 4.131489909180293 5.5851028556541555 0.25080409308119567 0.7306023603181546 0.1997078669497206 0.035142609339403996
Ni 5.31254580403348 3.8394466606960997 3.6873119011304216 -0.14233215724372908 -0.16361703476443434 -0.21331491621019388
P 6.191773734559282 0.050848153286811845 3.669999982806349 -0.08524749641559513 -0.1053928610152185 0.830384560014815
Ni 4.563913310579224 3.5507235568127617 1.4315779143680145 0.5365501489923147 -0.9310630462734998 -1.3082665057419598
P 4.749462227367443 5.286780002200655 11.008957663470532 -0.1963507775520296 -1.4035508175682667 0.7114417282293037
Ni 1.9832823659173582 1.1967780280605822 8.90313236717791 -0.3810236045454986 -0.2806359100543554 -0.4996797583285265
P 0.6443762536619224 7.471721847286986 1.6981254117780038 0.5261150697019197 0.41104560482888564 0.11045202070568075
P 0.7408241422383715 3.2009985760847304 8.192067448607043 -0.6236418977055002 -0.3541936288368481 0.09445024596078572
P 8.497248851464427 2.293045383357651 2.0317703495603303 -0.8257162080048681 0.48312262530079375 0.9808501449989561
Ni 2.2493840946093493 5.5377329931316375 11.170507206333346 0.6868560684701397 -0.5812174099927022 0.6060894906440336
Ni 3.0814826187675717 7.275019464235168 12.478124423843335 -2.224715144536394 -0.21917574586634514 -0.7408296944731176
Ni 4.397526899676724 0.8953283197615406 8.749297767563103 -0.17658979287501847 -0.7196425188725413 1.5485111564634622
Ni 4.825603593659493 3.3248519925044002 12.458605857882036 0.5662325065480958 0.5908081390049309 -0.40617259300730046
Ni 0.2407132580561433 6.98649057493851 11.904935214850404 -2.0766350290652946 -1.807181875100636 1.1270579831480072
Ni 0.11945861777251984 5.3956973920732985 2.8928799088116577 0.4272057595285159 1.2924519073072065 -0.04789888056380783
Ni 6.54613212042667 6.758639871508747 6.651390877418816 -0.38325275098633355 -0.9535869384076286 1.252945621682468
Ni 2.582665573665176 3.8465678622076847 13.016918229535312 -0.8306784371061499 -0.5689344788602911 0.04177914081931514
Ni 4.189023668405709 2.766161364822782 10.010066727440513 -0.7879009369293075 1.0614449731338882 1.6718006952534434
Ni 1.4780284945135815 7.830648900098169 10.329729139813276 1.9645644989195843 0.8047712303220851 -0.5208551068545612
Ni 8.19048228764719 2.719540615706029 6.674713274784939 0.5816704383697209 -1.297142113694024 -0.21775598270068303
Ni 6.504616440445496 2.433027858785378 9.767490859014977 -0.1337197329843697 -0.2776644861308573 0.5769838315273289
Ni 7.227455387125971 7.8988644615909624 13.482849196124661 -0.2698385623285353 -1.1345386077957684 0.9416801596677138
Ni 6.870461231867933 4.3781979241452795 1.8503221350451464 -0.19519223846755418 -0.08607770562637435 0.49117017819561865
Ni 0.9427915902519368 3.8178795932610137 4.345736343228834 1.1455557848418787 -0.6409199680596575 0.8419483535930145
Ni 9.357998651314714 1.8040315507257487 13.56846361008985 0.06181446220363548 -0.9024924337246586 -2.3634459575821105
Ni 7.987944218681334 3.1748166001375915 4.030107120439452 -0.9828826020479523 -0.232140019336497 -0.529674504918404
Ni 1.4838549321139691 2.5287571533911124 1.6049856449946636 2.254450209706982 -0.08008574970899755 1.3860976550888258
Ni 2.8932331943931415 0.19296976366210944 6.777964222883365 0.8197417355889883 2.5737943349648127 0.5089264737377751
Ni 6.677550657413192 0.06997736524338624 10.06341100058184 1.357135720638837 0.27728190598045793 -0.567828390280306
Ni 5.776034290987495 4.274441093290122 5.95716436351307 -0.14555966304209125 1.5770879396598905 1.2656394151000525
Ni 8.213260884170612 7.336872185935792 5.143754831581615 0.4836365888227348 1.98994900043096 0.749563989022322
Ni 8.269222430075287 2.917204823377594 11.267275086562133 1.577689063578999 -0.7944320531796061 0.9627837744155483
Ni 1.7912041396912446 2.3796095991348394 6.317231733397471 -0.8055037376127354 -0.1191300080956529 0.04246176870863655
Ni 7.517676717820837 4.170055377106669 8.52400699735205 0.29872464923526615 0.6443994419678257 -0.7846598042841906
P 6.097977337506692 6.5595699201621676 1.2435680213171558 -0.6478809727585229 -0.3960337048010857 0.19291424106665486
Ni 5.992833259603824 2.177607932360764 5.300256644853488 1.498426323991929 -1.0857691517015495 -1.1362697315542625
P 2.697344662942647 2.5265375581147747 3.43883468376392 -0.19468418848288405 0.21143801090245518 0.14679636366266977
Ni 7.679152274174439 0.4728616528397167 5.650848192570656 -1.1014986466216643 0.02056008353953878 -1.4676270792228852
P -0.024777157103489864 4.7789366029744835 12.428420286955202 -0.05476835399013148 0.22147354076158632 -0.5704360031064821
P 4.990177335086316 1.364893873615895 0.3453616263472967 0.38976998327956097 0.4386823927095477 -0.17807717605382234
P 3.9781158755853263 5.7602936611527955 5.4828285294773185 0.7238205615096308 0.5676165313798159 -0.4149930195124079
Ni 4.700076232468919 8.802489443529183 1.8318051614522952 3.360216630466065 -0.034426814219302 2.8553393870969987
Ni 7.087454415070942 2.5478364244539695 13.441754314414625 -1.0343869405748316 0.8308391310537305 -0.03207991125368023
Ni 2.2534348559886666 5.858880684676815 8.860846302669572 -1.2238101377690922 0.03638085262187928 0.6227011310587857
Ni 1.4769186968754124 7.90764111124615 7.897554900377923 -0.4636935700419046 0.23484687674469876 0.030724168556734183
Ni 7.292397045586165 5.642867822720856 3.9621301654388654 -0.672094851000565 -2.362711650519247 -0.3464399530333582
Ni 3.7233155861753566 8.001983158804173 4.631694201330401 1.5054966005751493 -0.9645750619880161 0.8008772945843176
Ni 1.5627245509331853 3.1803748366420885 10.304065069430616 -0.01648874168364257 0.5840718487223618 -0.1462654308598642
Ni 8.054559821912433 8.404830453145898 7.559726950331065 -0.031285440376842895 -0.6949987521819321 0.8948999660893814
Ni 4.591935700942994 5.975566658016643 2.8388586591110476 1.5675465758283582 -0.08745093182481713 -0.0739176732250727
Ni 4.600934310125814 7.322944225576769 10.466305461323188 0.5490657649608222 0.7349770923470826 0.8406892843749328
Ni 0.037032097522971937 5.236182478213796 10.173998635899931 -0.24112782465740407 -0.44475739525903407 -0.4612736477465023
Ni 7.419219170687938 6.743093456260728 9.200014333364521 -0.6164872889385898 -2.321250298050667 -1.6085764971864749
Ni 4.915284491137206 8.079853959749038 13.08955171045938 2.1937336085532153 0.09185163199567406 0.05098497568829929
Ni 5.977980467879661 1.8213721388221409 2.2414268455436774 -0.14339710817313367 0.35552726004660706 1.6837113306481004
Ni 7.59468742559612 7.623865855166316 2.6911418189766474 -0.31235380998292656 1.142589246014387 -0.25840846611472273
Ni 7.021846878027846 7.327633120598034 11.303632982019916 -0.4843390142063982 -0.39879609803757127 1.043373460344158
Ni 5.312767763561114 9.24796221549025 6.057668562457027 0.346487518441842 -1.104544889647156 0.002166154413383366
Ni 0.36961625372948204 0.4041069146610467 2.0991110205817 0.7095162290718168 -1.352647088739864 0.2964340534288766
Ni 2.053689777745535 5.330311814557836 6.646626146225611 0.42497969841147454 0.06717032719891013 -1.4042020779990203
Ni 2.7967455380679915 4.524950165165838 2.3651850043327367 -1.3652640061729262 -0.05089293019512525 0.2603473350086484
Ni 3.1542668472041604 0.07547548770914889 0.501133747672074 -2.045564790023051 1.8449264408392612 -1.4744011647219253
Ni 5.703499767019493 8.165058673419468 8.359654290621496 -0.8207164407974316 -0.4397951661577522 -0.34638107477096475
Ni 5.3825925316292516 0.8862640475517947 11.738227887464198 0.663928770250005 0.8128195545478581 0.691495367014364
Ni 3.3596441484610007 3.652584483369381 5.281847876530358 0.7017378706779785 0.3542111123383448 -0.8844998538019798
Ni 6.731070648513896 5.184687867802751 13.056578697798013 -0.7373918724361623 -0.29837086544027325 -0.24748719121652862
P 2.2699153509154772 1.7117241321710357 12.746079514591068 -0.980636486326253 0.012850116489790772 0.08590364194235528
Ni 7.505468943800977 0.5523324120462743 1.15180162911105 -0.4152709557641429 -0.7657609104971586 0.5019497853096259
P 5.266905376163776 3.627919230861073 8.300963567358288 1.0603532827316062 -0.1665465497064035 -0.4174000862920037
Ni 8.185700909489412 4.81704890353194 6.078527209066414 -1.2524403999112752 -0.06056696294977957 -1.622671027606328
P 0.5027429542474192 5.988690015087992 5.131383362410125 1.198926230043219 -0.6587760224044719 -0.22846359892617424
P 8.692175558295176 8.151926068034467 9.955842014839574 -0.047109809003609185 1.5099569503393477 0.045571775092527966
P 3.349452506817148 8.352300031605894 9.102271680876875 -1.2861334212883462 -0.23585037830854866 -0.930489690268533
Ni 2.966729542980889 3.4170206863543418 8.101905638819456 -0.983423562153087 1.3711929700628513 0.7417498922945419
