# total energy = -340857.9266581903 ev
CRYSTAL
PRIMVEC
9.42594720059695 0.00000000000000 0.00000000000000
0.00000000000000 9.42594720059695 0.00000000000000
0.00000000000000 0.00000000000000 13.79582651741485
PRIMCOORD
 96 1
Ni 3.1325533532006626 5.112426459612103 8.393187753022481 1.0912502294207787 0.3489763463019667 0.1016742745130507
Ni 3.447493105308159 9.148060974368944 8.171143539612011 0.26376587377189414 -1.9264417239059342 2.5389700281967755
Ni 4.864797397370512 5.3650701258319415 0.46959221250504507 -0.48919659940901555 0.059818771929845374 0.06361809107127753
Ni 4.686646992880159 1.5902798514698915 10.768787578301495 0.025168014625195363 0.3074288618774834 -0.7890319652099573
Ni 2.6047191547535307 9.084153051488277 3.923615614121718 0.290850388693512 -0.24416095505677307 -1.292733443103367
Ni 2.0641033717302655 2.620422783001199 10.763793711407368 0.8383593506901756 -0.4788353107793496 2.490485964553459
Ni 8.993663957143971 2.0933143824982867 9.038363684560592 0.5716624193144155 -0.564115460205093 -1.1449595460187765
Ni 1.231122980448943 1.796434745470342 0.529377226024649 0.5045777098507761 0.19268695554719717 0.07266888841963613
Ni 1.8862734494490483 2.5472774317395515 8.608402867594156 0.7961189539637258 -0.9132751261624593 -2.129164466422578
Ni 1.7776111286572607 7.444009938655742 2.145651012439675 -0.2220983188297788 0.9851104629372066 -0.24741031523200616
Ni 7.090584043609933 4.280605459852067 3.0136846166426237 -0.9585332266693106 -1.9794295889568747 -0.9566159550419396
Ni 8.654433538773425 5.6680766286227815 10.894136653647212 0.6810119509845368 0.30213213225491836 -0.6281097036688666
Ni 6.382638843628321 7.43168079955133 5.950939881974687 -0.18183972842004814 2.3088362406570297 1.8331415323891913
Ni 7.649966887762314 8.290921880087156 4.169154001246063 0.6321185677179436 -0.3041694743999213 -0.8758334363762335
Ni 2.7911643928921124 4.628234397291444 12.839348666545852 0.3354312606276804 0.7188699023725749 1.0851842257323567
Ni 9.394926534877003 2.6084801077372157 6.505698356368181 0.4406914527197765 -0.3970294930554517 0.2894493945809273
Ni 0.8167800156094935 1.1582604076071212 4.552222615447493 -0.4344202749990841 -0.6518623260037741 0.32201652988367124
Ni 5.89864472620154 8.941698709527287 2.666650456479614 -0.10623181197674608 0.3301972659222507 -0.6961472639640784
Ni 6.144577117924175 5.299258161591113 10.799304082774379 1.3206365972715386 -0.24644229489178202 -0.12881638214548138
Ni 7.8852762368468206 7.994259039847744 1.3256944525808034 -1.0361666581830735 -1.514044233034844 2.5844975803149297
Ni 4.61755479896935 0.08710140887479138 6.173576987472059 -0.04005367348777618 -0.21615907052720837 1.2220368479187536
Ni 6.409578201090407 2.8079802829244294 8.982987186606074 -0.3331005556119747 -0.6036096616449733 -0.1362818372845911
Ni 2.1964625241034685 6.2163368549286755 4.01505484395664 -0.024124660962345546 0.8686636581006717 1.3932388941192972
Ni 5.072884610573107 1.4918164056864929 13.349779738442162 -0.22647870728566158 0.3681603754295853 0.16974423070809475
P 6.928929046942761 5.423793777682465 6.711214171139825 0.3867211691509082 -0.15319301121763296 -0.44823995449099574
P 3.1415645588457832 2.3364189900226626 12.839237440367388 -1.3549759939833566 0.1509612936736368 -0.14668092113072803
P 4.573808977422274 1.0342526445661115 1.6403929004367148 -2.536570160506032 -0.9560582827662568 0.2245328964132004
P 0.962615444876869 8.580081666253854 0.5670593356559233 0.0011333422734948223 2.093382937947595 -1.227332549100054
P 2.188101708823948 2.4789204617202896 5.387159833394012 1.7322398743761067 0.9099743439240005 -0.2759215352978216
P 5.228714371791864 7.523866564414592 11.941322640541431 1.1608103970081043 -2.9529346064446695 -0.42537770518084156
P 9.004173888414169 2.462792665842883 2.3937419461003153 0.09991692550231179 -0.3243521199953833 -0.06868702095375266
P 5.164749893227233 0.9717397618899198 8.305294564572177 1.2712755303399075 0.8140359434534626 -0.09957599722312528
Ni 0.5409532319375909 4.632400666010213 2.16355842717252 -0.45348886159476093 -0.5577730629268328 1.4611450710429674
Ni 2.370512641506345 1.5004882772278223 2.547564923133041 0.9729892541936405 0.6723797292308356 0.04081112047909101
Ni 5.414707164458725 7.01520474283166 9.527411994944396 0.04646394788949417 0.6328844993496907 -1.0976106244211679
Ni 8.491600298690312 6.0636553601173135 3.2868146367841193 0.05919219408943999 1.4787681834413693 0.08315770376610195
Ni 6.528081210892139 3.5301586633706137 0.3214625076581483 -0.23413442405870646 -2.2599659973188886 1.7941227279238328
Ni 8.787725859932053 2.089402614357361 13.114023599454331 -0.40594890703226866 0.06937170572560311 -0.369133537976132
Ni 0.9302872733276327 4.9740347009492805 9.379423679307413 -0.07427119990974951 -0.2778786590241924 1.9172497729940208
Ni 2.2654510325936745 0.7322330384604632 6.710883320388629 -1.7426705827911275 1.631019142460707 -1.308888712706991
Ni 7.449250765369849 5.564683412387085 1.1043062851043286 0.8876422560857036 0.4327642274528998 -1.3260096886579937
Ni 4.265835000389824 2.7740845763346242 7.022365635016387 -0.7022690605911002 -0.6748253625578506 0.6177368450749748
Ni 3.7891931218785184 8.84411187684535 11.816001843037697 -0.8295818616078615 1.797682420250633 0.009393268289441889
Ni 4.74576653451844 3.7875435810962 11.991815555185553 0.11655427694867669 -0.6509493272712016 0.09419056454149585
Ni 7.864708819778146 0.8178790810678837 1.2402765178987092 0.6160124061847003 1.44476688679526 0.11647123031656716
Ni -0.08256281523658478 6.802913557120986 0.08891590373534128 0.46838454775967076 -1.4518047674786478 -0.7333395567436596
Ni 4.523596956008512 7.909887385319007 4.343836599714616 0.2845344737778132 -1.2498127324804411 0.11541116448316899
Ni 1.5775453966303958 8.10892568908717 5.602264664381954 -3.040515121868815 1.2340603547421907 1.0861725577875552
Ni 6.307476339638582 3.3751301076746967 5.858231919629479 -0.9142619155557609 1.6054703474573253 -0.6756087776910944
Ni 8.589055168109663 9.005182464778215 13.243828320101773 0.45832690641335266 0.37489666571215435 -2.178092816692165
Ni 2.172388654628952 7.4093790081743895 13.046975893518864 1.1290742422470876 -1.250432625452627 -0.09344314485251004
Ni 6.190519185198566 5.66983928077303 4.786476258431317 -0.9766042252384084 -1.8054350676128583 -2.9611752491869066
Ni 3.854986234224691 3.4100061127865646 1.533185003317565 0.8609277229089948 -0.9121510398603452 -0.6275209210449322
Ni 4.150376571574886 1.507727404775367 4.2959650410222805 0.48167895087573176 0.9567465670825329 -0.4217560492678543
Ni 1.3265229933508935 6.4677645739432625 7.4640391341320145 -0.32112615685891793 -0.3380332170269017 -0.7497730197093346
Ni 7.153521093915863 3.153441252478473 11.90875033695641 -0.5779747346856884 -0.06055513587523765 -1.6813780545292334
P -0.07559138459314217 0.32858758124302967 6.529992793010162 0.7390795445512304 0.45674979173421987 -0.6167027473835056
P 1.3486551176759385 4.251611245872579 7.494334128842702 -0.9536720419222672 0.11438555143213203 -1.9016524327763955
P 6.516383610258671 5.144823440576831 12.891786154123645 0.2172078235066969 0.7966172337563829 -0.9317767845110726
P 5.095110994371428 3.572302073872009 3.7236592230838528 0.02375879298249457 -0.005664654484945083 0.09040692912934753
P 8.034818891198114 7.379536458935424 9.343996256276883 -0.5877498117945814 -0.07329598048067376 0.17534897848938188
P 6.070432616245808 6.643549065654404 2.3433319797926746 -0.05968353190356172 0.7407435625172146 0.8346068256262786
P 6.18932208988797 0.2843742327085085 4.8336578377792785 0.19849096382348397 0.3358171832121894 -0.32773132088026136
P 8.607228394557145 3.6114951628598866 10.340040823350844 -0.1557098641022157 0.21169974920427412 0.2766877240398848
Ni 3.833928667894985 5.787710752103817 10.686812942178149 -1.461966024282366 0.031458475619597435 0.680578462991544
Ni 7.085635421262979 1.5001112393347213 6.667537159008241 -0.1292084753775775 -1.5071009689477914 0.3063055469063176
Ni 0.7242464332898454 4.110976111745803 12.286287805266047 -1.0336405493271101 -0.9668669433459866 -2.477065577382495
Ni 8.377244705712693 4.155457157184426 4.907423416375077 -0.2877599226936463 0.07976847557889488 0.41663492599120505
Ni 1.1843608557570573 4.394395495990032 5.31656702866866 0.8410608087817386 0.5177965225338953 0.17033944108993243
Ni 8.121961774241147 9.36259553554357 8.150050154682459 -1.8504124036544969 -0.6390510331717187 1.0516922646224984
Ni 2.448380392379087 4.124540049950121 3.196079525214564 1.4987685378226963 -1.523217672003996 1.4183526584677895
Ni 2.1059545778645075 8.11683405889497 10.218582779061933 2.4266092205041563 -2.9632015355883157 1.605815646611886
Ni 3.558747561615018 5.40925896690341 6.09943814136209 0.5859047881660426 -0.398061790974708 -1.0536236773172565
Ni 2.974235141887437 -0.0994673091737805 0.34271047812387073 1.2984428347833188 1.6080962151159466 0.795493918785217
Ni 6.144859896344 8.85969296777776 10.547254251236176 -1.4628260582898163 -1.187990814077638 0.457636050993915
Ni 1.4363447056639678 0.3242733251512183 12.211196938475997 0.0007029396042955635 0.6592498767170969 -0.11422999969087423
Ni 7.557818826688362 7.037638497471185 12.172816366147753 -1.6545838171545244 1.314539483234865 1.349411869632018
Ni 6.072534602499849 8.541774616314763 13.69376554723945 -0.6144874848997417 0.31876485571559293 0.27746779673901895
Ni 7.98385279399815 1.3796664843835185 4.028877995712465 -0.606050152765666 0.6804208543677572 0.2649925470901436
Ni 6.288483055773605 1.9214699367700527 2.2957497976832935 -0.39353767785210936 2.232614087668497 1.3870512772513468
Ni 0.4250263335404742 9.369306810040772 2.438412453080222 -0.9644678469861907 1.6034188642449352 0.7574030254507665
Ni 7.40456234909002 1.0068231378429937 10.289921176220892 1.2840965933639756 3.068210788011871 0.8033720359817131
Ni 5.688917398163955 4.998815516473361 8.434754295547432 -1.7930217815501703 -0.5815799355384436 -0.976289522211467
Ni 9.046439836230821 8.733460681167452 10.749280580307168 0.06318023220291054 -0.283224496717138 0.004327937951392547
Ni 0.7681317588573685 8.491270390533847 8.506410347131329 -0.7081172918417611 -0.1710881463304989 -2.452769423839292
Ni 4.293226803323632 7.488321317042469 1.3476342875803669 -0.8947822095645944 0.148656299689544 0.7032818181263307
Ni 8.868242302003832 6.610058674799684 5.577032345980884 -0.17186564792647177 -0.6162859715610612 1.0710251606231553
Ni 8.003364504966141 5.2582175869270396 8.502257274738819 1.0935048297829102 -0.05227489814431643 0.7060766072626485
P 3.817876279596198 3.496253530833482 9.506234719083631 1.3413936273132319 -0.4666161430053384 1.1479451110096617
P 3.112815419496811 7.391215207674236 6.5944050040728515 3.107042159056771 0.0508196537550286 1.5308667039088215
P 1.284426712586136 6.502829098001681 11.3935044911652 -0.38606682339636095 -1.6052728867345385 -0.4677374010939751
P 2.566195308025908 5.656690084251123 1.628293754447095 2.1155245070416404 -2.174519754628926 -0.7237902224923277
P 1.466422903586122 0.5197128022297305 9.845984507151924 -0.5989137988312008 3.9830131494521344 0.5857001283544042
P 9.465819084727372 4.666343502336655 0.2507047488545645 -1.623812854520255 -0.500368556865435 -0.33913236362835136
P 6.9317474051936925 0.8248156357062144 12.533356966236383 0.9415624031429268 0.7438098601473642 -1.1701712693977135
P 0.35046614758496397 7.817418842035918 3.928623619936836 0.007122984198026442 -1.1552848392041848 -1.1026199047103011
