# total energy = -340872.7301730635 ev
CRYSTAL
PRIMVEC
9.21347380397830 0.00000000000000 0.00000000000000
0.00000000000000 9.21347380397830 0.00000000000000
0.00000000000000 0.00000000000000 13.48485022432664
PRIMCOORD
 96 1
Ni 4.155027866957382 3.66529488684493 5.86093384505786 0.5650120038774333 -0.39329496571368394 0.20176912035412348
Ni 4.3831442618590675 7.6874736767762855 3.364227128673644 0.12641034380715005 -0.25831667773186484 -0.44868167001410475
Ni 7.810003663278063 3.636567275903315 10.107313303575895 -1.914767630002115 -0.9962145432701682 0.6044779231825396
Ni 5.216613518113208 8.098320895220324 5.601930200983412 1.349665894624353 -1.238847234607873 -1.4308356214261488
Ni 2.94544618804172 0.7080278120687357 8.794981123459758 0.607072166272277 0.3665058705452978 0.9697584059611685
Ni 5.262404482314564 4.931825046591293 10.432877845573856 1.8579727325002582 1.184314393667315 -1.2612754817044018
Ni 9.139203871011876 5.981055429539067 13.137587943811154 0.23075445184288004 -0.8775859002909661 0.4204111052041857
Ni 8.786272548135186 8.02839062997117 3.1798489360368833 0.4631297271186346 0.5787301247944743 -0.2590000769521346
Ni 3.5615696001288604 6.008778771849305 6.127529391446577 -1.6314639433076097 1.125385737651907 -0.34895114949098616
Ni 7.121103022573918 1.846131362156607 0.1349331647729781 -1.734136834288504 1.0942589343401155 0.7856689622749953
Ni 3.5632740927600977 5.758338130215248 2.0926599628651315 0.7893482108987955 -1.1038558339999311 0.48645503210813645
Ni 8.19595607583235 0.5323674082302294 7.596272264836655 -0.013568225602737922 -0.07350629671926695 0.7765857690268044
Ni 4.935657851643157 2.258461949863507 9.390512421866813 -0.48750661330110234 1.4936183610803244 0.7839792332773982
Ni 7.8058668135946805 2.229900181448174 3.8746157954345906 -1.71068014592746 0.6707835883883093 -1.7785364434498014
Ni 1.7677891954354539 4.228348690521646 6.727591876210618 0.589036906037121 0.4036739949551628 0.6230675132592689
Ni 5.1431360654963445 4.108057578124684 0.5802774713785297 -0.6099608006739818 -1.1827367647675504 -0.5713893681586869
Ni 0.24501482698251195 7.126299421730772 7.489728576521149 -0.49998417694282277 -0.0942234746619603 0.8476675154649789
Ni 6.968380482815029 7.579510192166327 12.45483637544262 0.40887765064328935 -0.22018824629125952 1.4345778620774001
Ni 0.08015353564710624 1.8175511667939095 9.769598953833 -0.2636254915392879 -0.3739708114637753 0.053346276831624254
Ni 8.439956499362435 0.8463966811778679 12.04232151826207 0.060776507857424354 -0.4227340969104074 -0.16471695269683245
Ni 6.614730508991115 3.723164715043868 8.058344554259909 -0.11078060768969307 0.7685716404730765 1.8369477935091592
Ni 7.110848426365446 7.590557147111483 7.353315727874784 -0.9327340062180193 0.6036353726765862 1.3251974771693436
Ni 7.189642053297034 5.080198826772106 1.0061463373142971 -0.5124350011116657 1.6725445153980034 -2.0739829361544286
Ni 5.234699566951692 1.5866246624191025 4.73094367989468 0.2965240420395216 0.19707171487845415 0.5999085586443023
P 0.3824558992918299 0.8541157294289536 3.8875072878109562 0.4597464124686986 -0.9389560758683313 -0.45888046492397744
P 0.747338018881916 8.899017825586292 8.794428315038816 0.23244443795079325 1.2847542815526325 0.1802844681177863
P 6.9635157687107405 1.5028465462253537 10.31500711271325 0.49448895815620636 1.3306636424902374 -0.5241669448366134
P 2.92573856783514 8.029210629128901 5.168190264480801 0.05139403820125988 -0.41981820881519305 -0.09028197351570902
P 9.128424106803509 7.9007103116809505 11.965592630782702 0.6560817634017604 -0.4562965062468851 -1.808247340250673
P 1.8351304745798627 4.570831934242534 1.9391349295485083 -1.3668449775068006 -0.5199781035662464 -0.15916208431687429
P 6.016831347847693 0.34543063395187623 3.1988222423909782 0.07166410130420561 -1.5774836324364123 -0.6379372312822497
P 0.14041149622451257 4.384213024806222 11.533242086111388 1.2110181282107466 -0.06735287552336143 -0.18601185751986676
Ni 5.792004163050612 0.5053802224672129 11.838551727566038 0.14041128607193237 0.6654446926738992 0.061199711437772024
Ni 2.3075974050115615 7.662164264570827 12.094373037830596 -1.743630632711552 -0.31813673521329083 0.8229497010033247
Ni 3.1011815336947426 3.2430598149294876 13.00073008438593 0.5667991776848431 0.9906416771680809 -0.38046001873254476
Ni 0.7116487072259053 6.776297983485075 9.948165287270925 1.442428725580387 3.7079688745529427 1.6574081739771973
Ni 7.95262823588108 5.941584908283814 11.058035068606554 -1.0187849723715166 0.2264059450661972 -1.6757000303078498
Ni 2.8196362049090196 0.950056552230793 12.944620029660323 -0.21949867642340265 -1.6683921837925269 0.48796761209792083
Ni 8.342137049276761 0.8515433275768372 1.8982215783145964 1.2118658209230226 0.8379433461986794 0.39388066301382485
Ni -0.04356867434916961 4.1716766139014165 5.1609622943769855 0.5167002041459231 1.0423072238631728 -2.0592500008196275
Ni 2.5713791565376836 5.541250263311354 13.251791714146178 0.3361285438050211 0.40412110979491045 0.35277849365687625
Ni 0.23886206925742828 3.269060237661123 0.914557038132639 -0.3883749027042473 0.22930846342497282 0.01818412710819449
Ni 2.446914340562609 7.763475621182118 8.10485324806112 0.9745686828656182 -1.5558174603168882 0.02050429060093888
Ni 1.7321883331267938 0.47058461775839167 10.976829354264922 -0.36518586618229365 -0.4365609754911708 -1.7651705636658566
Ni 4.23821632083546 9.133712640697185 1.3209394072302039 -0.6501929087211512 0.13387425628436297 0.5339304519812804
Ni 6.048166371841417 7.4317997820906445 10.228191314246425 1.0554036520358148 -1.7105744735875312 -0.5671797009527136
Ni 8.144922645105728 8.790372543923839 10.05271333718683 -0.10380494770280833 -0.9880086104206081 -0.2710580365579332
Ni 4.547411284141961 7.8670166384245395 12.451613502348527 -0.14457570186226715 -0.7721328754617734 0.3319569289258348
Ni 7.057907806586574 4.66620981380238 4.11180009113446 -0.8119878026751822 -0.8898901715796157 -0.45165489370981565
Ni 7.4630979521896395 3.892711057746756 12.48537996204703 0.7369082479315244 0.6795865313919199 0.6561213583904442
Ni 1.3604430969907138 6.600643107730778 5.504583402097644 0.2044448674140737 -0.263431630360927 0.0348621019845077
Ni 6.700673791500219 3.2784303403960884 5.931392042349013 0.2880962229871426 -1.2279758391110078 -1.4445591416598282
Ni 6.507255338486321 8.938488346841545 1.0890187690450694 0.3060546072377761 -0.35758851345100995 -0.00029541975323174927
Ni 8.830359019705304 5.346634058718749 2.523837632336678 2.2377889470012167 0.06461850731133387 1.118981633897776
Ni 2.3053585309067466 1.96778606865856 5.587555339344186 -0.45925713153710584 0.5274384164990336 -0.07863050531970975
Ni 1.299413047318725 9.086493588075063 6.515165105642632 -0.49531993869793406 0.5812775738066763 -0.6134096784545308
P 3.0503323724417677 2.4986295683417263 10.861250933656489 0.7739928114886476 -1.276249329405415 0.1659860492172432
P 8.752348538036717 3.5476848952895357 7.041437801031977 -0.637959856990069 -0.7993125212003589 2.4009262139157554
P 7.764424608971401 7.075312058372562 1.5036278487936183 -0.7135662307714743 0.4234205814544708 -0.4097428268570621
P 3.4439227546787365 2.632280217578119 3.8977959738720536 -0.4884985449007265 0.09194342037853198 0.11560862520595573
P 4.717132682844815 1.6543805478792177 13.573310619850211 1.8710017977700746 1.2777613951745672 -0.31699747940252504
P 6.7543975565420915 5.920854592498492 8.733651635893091 -0.01799026592983353 -0.7431776258800039 0.4859109866792084
P 4.785404522831142 5.533704428365497 4.308099597368833 0.4180253785808285 0.31977812747145573 -0.3774934799050531
P 2.155943628199827 5.636241176976542 8.350290973485654 -0.785504411672673 0.964902620530764 0.2775757830717929
Ni 3.3877113517426247 6.201828685915908 10.475045150575935 0.7043274857820256 3.0006571093316126 -0.233437655101998
Ni 7.8907413331566305 5.569636975726722 6.642165469575094 0.6990307561594605 -1.2344341931418419 -0.015852136540908182
Ni 8.92853779526459 1.7162213832352544 5.727285959863572 0.31251733214398436 0.015481383465050758 0.37715100896396986
Ni 3.7394633499879717 0.3308420197232188 6.4665382342418445 -0.050497751639235616 1.3304877790340055 1.3276523664677393
Ni 1.6427162901973433 0.27574452575530534 1.8677599916259597 0.5049525766916916 0.2896221727133657 0.8833649688665884
Ni 1.089788094097547 2.4697361148738284 12.086767315305803 -0.4939479980510718 1.3066896481731431 -0.8122066035542078
Ni 5.85513488472218 0.17074225158685957 8.896966906344597 0.13662173712251308 0.35289702151261154 -0.7110617191820657
Ni 6.661977202034284 6.8625453106256975 3.7744773140230654 -0.352487958999651 1.6969581683556776 -0.40888870638688285
Ni 3.2751871976598963 2.274908000386529 1.7705477094559539 -0.46700052292795063 0.20060595328395775 -0.16312518272968035
Ni 4.0064329634081925 4.682784852956956 8.374968341396501 0.47439732961265396 -1.2012865027452793 0.06349776344332936
Ni 7.902295029154318 8.53747190481659 5.411429655084721 0.3449302012570511 0.6906762135471782 -0.4546000923810687
Ni 0.19767784189725487 4.919994946383136 9.12975545375061 -0.7183099161040468 -2.579089779035797 -2.5537906381493762
Ni 5.560386648149627 5.57714595677785 6.790242575903334 1.8410852127163002 -0.38893720296562045 -0.4182536925415507
Ni 2.2785012551226513 4.410480638274645 10.276211017731544 -2.0073309433528332 -2.0343267552153863 1.065547682448352
Ni 1.0458306111589817 2.954576740460944 3.421173766809608 0.22479103517059348 -0.9441715586309998 -0.901649368998073
Ni 5.369124147977404 6.861789805783743 1.0175940783646362 0.655002928515285 -0.7103436100691186 -0.038953755555378076
Ni 1.7632930202784594 7.059824209112506 2.956337435281644 -0.34865033042111565 -0.019488190631598692 0.943552179879446
Ni 0.2841186519852073 8.117825819005892 0.5834247939884257 -0.08919413976816898 -0.15551137493816442 0.3387163591368554
Ni 4.788177778409533 7.569310876799948 7.75208961040545 -0.6661818279502397 -0.11178308081227845 1.9986658114786677
Ni 1.0458213976852992 2.093973804212237 7.6610936589289365 0.7403288435772991 -0.03711233147126512 0.6324340420758334
Ni 2.3768366597345376 4.705717188952363 4.312792019515262 0.8045403452582016 0.09292172513140126 -1.001848601627494
Ni 4.956692212059997 3.7589867007209046 2.8382640060000264 0.33727551292527075 0.549599268866789 1.8648110955783301
Ni 5.483481783322923 3.185880997256728 11.642212603394832 -0.6941009229580111 -2.9105707967664776 1.2901967927244424
Ni 3.023355321499802 0.42176518475764196 3.735425084472991 0.06842219732814023 0.6568651785350043 0.2754026866798741
P 8.676282099315106 6.461971115337496 4.725698449327309 -1.586559112375119 -0.676885330410673 -0.61534366225245
P 0.6352441340201536 1.1015444865162451 0.18670459474155765 -0.3782606970883808 1.0957100649643452 0.3957362281653249
P 5.239748550529629 5.565564620359117 12.532428565406027 -0.02931546113466564 0.903023109417148 -0.32202758562726475
P 7.019644250383711 3.4293101854185046 2.0968668349484996 0.6542169422788797 -2.1676006589115895 1.0540594793030944
P 2.7542481821852727 7.566556048168922 1.1477390008648891 0.027101484202482356 0.13670786907841617 -1.662054414499957
P 4.252312935569479 8.375766228217394 10.3383761673612 -2.6139081722665627 1.0876928510868236 -0.49381867156205916
P 3.5635412834968863 2.523303250863101 7.7161386360968605 -1.0579685845495135 0.11351214768824322 -1.3507087340665704
P 6.180324438341268 0.5911079096921502 6.612323028317912 0.2547562140741161 -0.06921101177802273 0.39365569148721236
