# total energy = -340862.95349414 ev
CRYSTAL
PRIMVEC
9.38155830401272 0.00000000000000 0.00000000000000

0.00000000000000 9.38155830401272 0.00000000000000

0.00000000000000 0.00000000000000 13.73085888037003

PRIMCOORD
 96 1
Ni 8.918597214023372 2.6636871008352454 8.762992810823004 0.6953931594068733 -0.39849862140181047 -0.35540436131549763
Ni 5.122818703281421 1.5471690777991087 8.985501797437498 -0.10200183305579853 -0.7430791526289267 0.4617498160519725
Ni 2.473916938414859 4.8717869647978995 0.20204593152890263 -0.4847611893454813 0.9829404518690813 -1.9286073640986852
Ni 1.8472663664832745 4.077910115174828 4.69583020890054 -2.5065031659173216 0.08572212205916849 0.108884933328877
Ni 4.883223084433575 2.687675745550933 11.166896117384637 0.006420044593730879 -0.5733817159983674 -0.3750311344074896
Ni 6.519770268688044 8.94076583641804 8.392287099485856 -0.14550464143443972 -0.03837242913061133 -0.17097450357077004
Ni 8.825306997733659 7.864466554053062 5.983688322967165 -0.5014875009612266 -0.0673436195519808 -1.527554351706137
Ni 0.04760108894130889 6.117207599642228 13.558248775177926 0.40790371676579423 0.7907515190042252 0.6027203170614845
Ni 4.732986808924377 6.000060080453808 1.2575735055383848 0.3132858348788927 0.2949937214379242 0.23234416492750307
Ni 7.254111748985439 2.228485990269728 12.208422653703977 -0.44071767797202166 0.3225163523382252 -1.2148367306258885
Ni 4.982564405862755 4.090781613238936 13.089449489672914 0.3892907296502973 1.2396887566725618 0.7736588251879966
Ni 5.238812290792083 5.886637039932626 3.7165869003492777 1.5380351966328027 0.5975050914091322 -0.9385608973124417
Ni 2.520252455133976 1.8545933635591259 9.036374235777462 -0.015565458538424804 -2.826849507187422 -0.46792509162474893
Ni 4.589542781664751 8.324087861018633 2.63110682497735 0.3231555285841209 -0.4594576775836861 0.3642394431086243
Ni 2.7194979914936828 4.714392560263254 6.945301807056275 0.9771786096846397 -0.41653593851949555 1.6309916316568813
Ni 2.169673000937446 8.384157979170586 10.192499321879962 2.6272599109831205 -1.2952911765282145 0.2126140334884274
Ni 7.113163216248446 5.16961391635997 1.6255276058097885 0.5902707784442222 -0.0019707505731256384 0.5896449719347652
Ni 8.2259661421757 6.927248874312279 7.98744658807126 -0.48816481571039155 -0.74020260241208 0.6911079017679581
Ni 6.1420499661682895 7.67971552535301 12.717329039335716 2.553560524416441 0.9801850006111312 -0.8888514459024563
Ni 0.7434125090715831 1.6631626653097697 1.8746464445445703 -0.4263313273433625 1.6976747348067278 0.32700447001656585
Ni 3.036482085218223 4.391460558541159 11.569072266226195 0.14340456437230142 -0.09338272392821982 -0.9035841241269407
Ni 7.465675271466264 4.40762498358814 7.955014540835386 -1.4646636257191872 0.46263864641482905 -2.389634185941704
Ni 3.934831968691078 6.895886324728962 5.69211418004921 0.1255315407466225 0.4633510991008214 -0.09846168111302397
Ni 1.1186945445746739 6.836482297220266 3.8772104372699774 0.9676171912484497 -1.3373305129874515 -0.8872799876502783
P 3.4241093133616634 9.033155423105601 4.396950646490952 0.8066201106053658 0.6227353267308308 0.8964418566552046
P 4.469102335493458 8.697896053704033 9.611519114180071 0.19666599479960323 0.39708734287658065 0.9152381634261011
P 6.43857288111891 7.826508768945643 6.529298179354157 0.3500870628676422 -0.2707739296586111 -0.6708710058957931
P 8.835476606991305 8.704904077795788 9.18531304176606 0.67260855741219 -1.0942928729018444 -0.14011509498775224
P 0.5091868942265757 2.42103309396342 4.00015575952226 2.84187349140008 -0.4794629170610194 1.289674344562069
P 8.28130795491635 6.133343880014141 3.3478306768384565 -0.8035648687188097 1.0067336976339372 -0.402764595767016
P 7.32324445250906 0.2806812155110775 13.488152585611168 -1.6347948074530554 0.08309651151086335 1.5944953365030605
P 1.6099035585241 0.6818741770369517 7.262882567892242 -0.6957675120271565 -0.45422599687110166 -0.19118465997005785
Ni 1.2465370402886642 8.506671749738503 12.477670564046885 2.0493648804954314 -1.191794246984128 0.8653263661973226
Ni 3.7959004710005746 6.103754444960062 9.62306687436018 -1.0681002736668765 -0.10604926365229476 1.7403352497897318
Ni 8.088038471229265 1.882925669793532 3.1676268894734427 -0.07788977049894329 1.3787358154071157 1.2630048056906829
Ni 9.137919285264411 1.3958351599622862 13.408637311455223 -0.7752104859458326 -0.5445851034816491 0.25338015966219585
Ni 5.599974142813914 0.15419623129116597 11.309806333973818 0.42557722278615734 0.8714682174290024 -0.4446535226913181
Ni 3.968746302147163 4.244545354689901 4.779725732652791 2.293423505646386 -0.5067952863273854 1.2180742637265798
Ni 6.886842502474006 7.356717852722425 1.1386960269891617 0.051853751446497794 1.3263508740474965 1.0224883893650327
Ni 3.480802070505543 0.28919497971893293 12.454891202203255 -0.7441068225624926 0.6144203791072321 -0.002828470587730613
Ni 5.510999443367852 2.4361186397994876 5.064942931628881 0.8171228099089024 0.34375906376708537 -0.6611841176253324
Ni 4.733671662684348 4.06528253762797 8.84462268823234 0.8188261657532542 -0.08597768971340032 -1.0117504341222383
Ni 6.816799787789874 7.78494846542961 4.295204831655189 -0.06975402876568633 0.21788479496906346 0.13883519983406412
Ni 9.081132712536975 8.457409186812388 3.3990333460325433 -2.512532145720221 0.5409945579169134 -0.13973919970557222
Ni 5.736475816890273 5.012754260651603 10.834896839511696 0.8684595125096656 -0.46761295970096883 0.8887997667289144
Ni 4.028835183415829 2.564355160964421 7.033179802330549 0.27080838244097233 -0.041544141990373616 -0.34057243850898766
Ni 8.46854509658068 8.717390931967309 12.068944211161334 -1.0924941291302088 -1.2895288201231405 -1.4674769267982661
Ni 1.8414310371859897 9.350730555006553 3.029205748557493 1.493847446371995 -0.5208998440495675 -2.4104516369076876
Ni 1.2374744549169967 7.552135713272981 8.200783225081326 -0.13935970487896646 0.8840038880021679 -0.8025451692050436
Ni 5.191078921877958 9.351077672665717 0.447244217026811 1.3026859263303887 1.8302143314400674 0.07831117430707804
Ni 3.6052202974196796 9.305567733081908 7.650683354865263 -0.3989030559290807 -0.3325338844752273 0.6153878852268241
Ni 7.0472671503575635 4.055732111221803 3.7554312427213175 -0.961749162503447 -0.46174030297027574 -0.09187914279949982
Ni 1.197143135545569 2.755373070646123 6.998439891739157 -0.39432289275756605 1.593500833800275 0.6102742181493425
Ni 5.123578609508238 0.2239753241855 5.89612648620948 0.32820851762699604 -0.6207481210974729 -0.38112927688542747
Ni 0.19643388332048484 6.849625860476691 10.315774874986367 -0.664334747439172 1.061064449866018 1.2038180109178818
Ni 7.013653026768862 2.893704148601857 0.8381521761272617 0.9882068424743432 -0.8496115265652271 -0.02124451120107309
P 9.352316038368677 2.503290597626755 11.062363041561376 -0.8933758161353711 0.04201208276572765 0.2650326562994597
P 3.318791939259861 6.986061863644561 7.826355849544444 -0.7599916121135492 -0.1404187422711001 -2.0017776176347715
P 3.14843222107755 5.903964778215721 3.5773420586096925 -0.37578215364090123 0.13669989865861618 0.4533862745786256
P 4.7330243351578005 6.3349535690795005 12.813926254945835 -1.8245926143779159 -2.5968139357884374 -0.2516341235053666
P 0.03300807491891863 4.748682156053569 6.87174569876791 0.7277600057733531 -0.3917029386362157 1.013347603406029
P 2.539569083788493 6.4640813382882305 12.024428716763234 -0.9744475839067217 1.0889457496573183 -0.19140911727603807
P 2.6793730664060824 3.777324985456163 9.412874935710967 0.15438368909162445 2.7246129324129975 0.42491439239117784
P 7.86307808341641 6.122695811280349 11.485149535954712 -0.1898746829093827 1.7667659331774346 -0.021292076609556877
Ni 0.836829376399099 0.6389141450142392 10.66916598222212 -0.9154309961631976 1.0294781904193044 -0.27909247682663546
Ni 0.04868841155474189 8.510593241131213 1.032835460658561 -0.24262497802822086 0.11374174720054606 -0.41970790848957396
Ni 7.44258725635273 4.796124696658667 13.02636976760043 -0.09400570222419939 -1.0197396229753017 0.15946418893832537
Ni 1.3749142848289333 6.311312042022976 6.130718919986198 -0.5128121819454265 0.4543393825205143 -0.053218493004508344
Ni 8.639355129564068 0.5844223014606218 7.13366192125579 0.680642740570576 0.2642286723409256 0.4912028312057669
Ni 2.5405916736492715 4.266197991375003 2.248167561544285 -0.5076470928047193 1.105011287760613 3.328776152568596
Ni 8.412856166180868 2.7599981789155144 5.728253819147282 0.20952459592982628 0.28686877833794466 -0.5513702447242828
Ni 3.135935985347673 2.4616552416438764 1.2544184874633413 -0.011764082514463611 -2.3447357827671165 -1.7558875957020341
Ni 1.6012631432784417 2.4942561569301547 12.94495941865662 3.222529428193514 -1.3130207325974934 0.6506832180940084
Ni 8.017301521226807 5.396769588828074 5.373352281016253 -0.21925313607149982 0.8960407645620441 0.9191277282884945
Ni 3.5810627846535885 7.817999695516965 0.34688968729520786 -2.4598821236246735 -0.4160299454173545 0.1420375088214457
Ni 6.03473432013671 7.251334807712133 10.295040692864294 0.6048903281296099 0.7532458087492834 0.9841061900424083
Ni 8.303626682244712 4.52649870951402 10.021741825623367 -2.0820970806211303 0.3316283419418224 3.4624560334539662
Ni 6.641814961338172 2.135908772415053 7.189394944979875 -0.40105146973065126 -0.1966541677250613 0.6469373778983311
Ni 7.8079801911930105 0.9540388138726671 9.879902044842577 -1.1637944193370924 0.9991664268096405 1.1313303852711163
Ni 3.520373483650154 2.0655283216301146 3.5676893732174473 1.5261047637438039 -0.11003935864829437 -1.6605924852424498
Ni 2.470079881047352 1.6994317699131518 5.4200921429005025 1.3925472673689114 0.4308536406937483 0.6663237528447428
Ni 0.8378585333507264 4.972591809330579 9.257304306120682 2.834100275212564 -0.5031504904859464 -2.7096339425056626
Ni 5.662192637829338 6.589972469864223 8.152518859964264 -0.3685313856157589 -1.1945522693452395 -1.654278370098964
Ni 1.0554065519066926 0.08841931119140072 5.05822855031366 -1.6281937571967704 -1.1500467307336968 1.8211488788036896
Ni 7.118829677495328 0.28373022197670067 2.1934364882525954 -1.6865598558404888 -1.7536234822582057 -1.9323632315966912
Ni 0.07529169658418071 4.268871735506396 2.9836057460134686 -0.20281633067171523 0.3424454871619844 -1.5725851666935304
Ni 0.6063704572339308 4.203435365974945 12.163261708091001 -1.4172280579450431 2.84483745912441 -1.967475244808476
Ni 5.034557002270398 3.7862562290108497 1.8296918932154225 -1.8818315413957267 1.7652440972162695 -0.14013566381304254
P 4.432017035313125 2.095352295643087 13.269680483557158 0.05487299788879582 -1.2947149923097703 -0.2772582518313741
P 5.579869463257513 4.54904259424292 6.485867193101985 -0.3204021342086998 -1.0464464428425269 0.030529021826792586
P 0.14758317080618824 3.840050084622798 0.5186031643482557 -0.5480324386003013 -0.11544767414805923 0.692309121164911
P 7.827174859588903 0.5706867618719484 4.971628323287442 -0.10845375932872936 -0.7431439444285911 0.10957476030704999
P 5.945384358356418 2.3037354698413077 2.70944189909214 0.4581541282809142 -2.6595033443978586 2.1891647582356106
P 1.5682588209828654 6.9806393229149295 1.5228483259176273 0.13706679507973168 -0.15604770705760868 -0.44821372923875064
P 1.8860778734010684 0.4200114294317005 0.5752058585319197 0.5598070626377262 -0.23390353899482297 -1.1978674497614015
P 6.6415991854959895 3.0674975171423777 9.64713713863356 -0.3978692153479277 -0.37657508185584176 0.24219174714554417
