# total energy = -381168.84892344865 ev
CRYSTAL
PRIMVEC
9.20268020661064 0.00000000000000 0.00000000000000

0.00000000000000 9.20268020661064 0.00000000000000

0.00000000000000 0.00000000000000 13.46905270354180

PRIMCOORD
 96 1
Ni 0.689675531082366 0.6809182607421739 7.972978374393793 1.0942715327456056 -1.011785915345864 -0.5853879964306241
Ni 1.4794596563373645 5.197784127138038 5.822240264671706 -0.521940883719572 0.15752686270629643 -1.4328367110165774
Ni 7.961394961008758 3.5353107725499386 9.463706712458317 1.4507976663703723 -0.2393349944230394 2.105269147862219
Ni 3.113874039438237 5.126398937952593 2.7401035079386187 0.7147448244606078 -0.7907399490399994 1.4085984072945033
Ni 6.348625281396885 0.9182130470284163 10.55882103764504 -0.4320090944544302 4.439603018569723 1.6208740836069053
Ni 5.267411604433009 4.0485074284885165 3.4058253831062246 -1.41447877733468 0.08176056630825919 1.3704200964525688
Ni 2.254343722315561 3.3013418348355175 1.397010084921977 0.8513395649999272 -0.1561153270707505 0.15919859398176453
Ni 4.816618321946345 6.404218671608213 12.724348774483271 -0.23585012119823254 0.36235225338824045 -0.7954319551990301
Ni 3.2554112586817783 6.233232876189163 6.882591465951245 -1.311084177696413 -0.1769129805423921 0.4454690766140779
Ni 1.043565512859499 1.1879739682801524 5.658564158020221 -0.5700459667569151 0.38355588404904906 -0.8155577794146278
Ni 5.6796272521297535 0.22473496854738778 12.849611054049817 0.8586281282415406 -0.33634785890467883 -0.49593031858842324
Ni 3.5758945915918123 8.77678922458839 0.08698741295043234 -0.7357319682352361 -0.0043629049543860345 0.32371551485264893
Ni 2.052372503151842 3.0325683611536673 6.449790343239814 0.558471117435122 -0.6691221415254863 0.8450077092446285
Ni 6.960888788125886 5.286424341426321 0.16409390832597584 0.09042235574831524 0.16311772653051262 -0.09043572548475393
Ni 7.212793749267203 2.7109623012769415 3.7934781574685785 -0.20193315673581352 1.5754344632168673 -0.9857583809338508
Ni 2.7256221706043124 5.31835764121664 0.11993668861880526 0.537778622082777 0.9745393722895797 -0.20446003692272527
Ni 3.3691747895197923 4.8874513503285 11.189685001300896 1.992082501834195 3.4667849998466234 -1.4169982013224243
Ni 1.129242464170121 2.807415590931789 8.67996966826736 -2.089456863420311 0.40386837035415607 1.4083150717261295
Ni 8.795746745501374 3.4392439954573946 5.396376122185618 -0.024379971506261238 -0.4425475320919088 0.924537586450156
Ni 8.298277469776528 5.2990504184615705 3.7240715444949255 0.7583173097349198 0.15561113374082233 0.14042671269090007
Ni 0.15568265875584605 8.298047402775158 5.553034265027278 -0.40720849047098256 -0.15264099536890488 -0.696354237768562
Ni 7.630733463958063 9.200351776792761 8.119562343379412 -0.3238186160894165 -0.8712267908421575 -0.8511287345407018
Ni 7.333164804384597 0.9429526118198606 5.604539824758244 0.3009234566587979 -0.6019451294583569 1.5788540304213776
Ni 5.966327546558446 1.8548645838147233 1.2682231788944258 -0.4164881160006957 1.1664503689027008 -0.4553649955715512
P 0.18178237965939656 2.433888010185619 11.181832354410096 0.3642294158062953 0.7573145795020183 0.1395877617293725
Ni 7.966888961001501 5.448189051430416 11.339743902275227 1.9373907667182695 1.6167117246990996 -0.2535033155036215
P 1.0397556033167923 6.693247244090782 4.186195166665115 -0.05319303908321161 0.10746028506720848 -0.8210540266425085
Ni 4.594668084383555 3.332649352382106 7.465788307727014 -0.4506305662103594 1.0462962904179076 0.7600834004964071
P 3.7216466383004736 1.6825904131879945 0.6020522129401438 -0.11218648689828421 -0.6039978982223275 0.4067446634606866
P 2.9009516310092502 3.1086929305673587 3.7295940727958388 -0.8406062377428233 0.7964256865708671 -0.8920388424915026
P 6.551783646287679 4.155506989486218 5.379593194569594 -0.547232054186193 -0.6763610824760868 -0.25071341146331017
Ni 7.983619433341212 1.313590551028809 12.592729283534837 0.5775494742228118 -2.412517004077148 1.0134365635754095
Ni 5.470505550563418 5.928007586810064 6.931941758013366 1.0620332415371903 -0.6655233684306344 -0.11773852706476497
Ni 3.6428716970309862 1.2767062093689836 11.603103439280812 0.7575176966517599 -0.457436019167967 0.5357150546855289
Ni 0.9589284643950744 5.400583587506693 1.957659440295366 -1.3981383883034437 0.0014812125312168038 0.27965272020547965
Ni 8.617187144397183 3.1234540293753326 1.1841612979334293 -0.8564948839486216 0.06882688896572663 0.4672761451868404
Ni 5.395172411634444 2.185875782707502 5.619611974152071 0.236850794548605 0.09528379760567461 -0.7122487975116314
Ni 1.3664415425837932 8.817823974952951 1.0035633031970916 -0.7019859821330426 -0.6481442537222386 -0.8712059649065512
Ni 2.260288653630992 3.1242822705802684 11.105705024192389 -2.7088075899496253 -1.4948164951534837 -1.9745966863446058
Ni 7.880126093444407 5.806228521644279 6.070030707560502 0.908431939137545 0.682453825637386 0.2397476564804258
Ni 8.612935506211844 0.7786001081843436 10.128592984276944 -0.5263449263245387 1.549154960695048 -0.5128713173181361
Ni 7.383374626763841 8.087020746437469 4.322151880723397 -0.7685556996334765 -0.8383475236156336 -0.7929372138016344
Ni 4.557544473042303 8.001969577370577 7.306718142442979 0.9812417240104199 2.411298815399331 0.9859563558772698
Ni 5.927639479607871 6.080431576558489 4.6750672986827215 0.9474389165283619 0.30073010970106917 -0.8474129762520116
Ni 0.6045765080791882 3.319471114543566 3.329751428432835 0.7295060419301823 0.7945786060597994 0.49359267159418224
Ni 8.38309857184205 8.001132133485585 11.162018984252011 1.1723636490633422 -0.5339512779168869 1.2719129068135901
Ni 1.5615659677867064 1.8905157663471994 13.013623058523303 -0.1832566633722328 -0.3691469077125707 0.884534049474025
Ni 3.4821192818329254 7.91180171819319 11.300871781723556 -0.5657218854602645 -0.6310852413574228 -0.2212251721962061
Ni 7.727858549256915 3.4668428329418797 12.262198464540921 -1.200705690541145 0.02178984218158183 -0.3957629676382023
Ni 2.4411765327890578 8.43595876607709 6.213462758627336 0.5243289243357744 0.7228821088557615 0.20517403227061434
Ni 4.713511494611844 4.668850888305673 1.0616432575592396 0.633177090889445 -0.8614910516116325 0.029030068683762903
Ni 4.6682895248223275 6.5909686579612154 9.047660909322746 -0.6560835631739733 -1.0306228455467088 1.466079018009475
Ni 8.033691215519633 7.66454411047957 0.15641979342823925 0.35586253189883876 -0.16461590834259393 -0.3934641443016966
Ni 3.163007148251063 2.061915682368718 9.033532034634538 1.713884254687055 -0.049174919062754015 -0.6900316379846438
Ni 1.2123978811457152 1.3870371405465398 2.3231558421576715 1.8206999641917287 0.838272447403324 0.48357951033255425
Ni 4.240456929072508 0.14082861287931808 9.638749969513551 0.39549274469595114 0.24493459999800396 -0.4051675487815538
P 5.186924964673319 7.903648143664595 3.233811648325048 0.17895572200403373 -1.3442025575169365 0.08082931274324144
Ni 4.56729931390044 6.931081307428238 1.2902304679775862 1.0381826601718378 0.9001555580613658 1.7852148839112416
P 2.404825946572413 6.312955693504299 9.904764479714958 0.6693998206669053 -0.5429298272664134 -1.0191572681092707
Ni 0.7278123574976559 4.163292456812618 13.00789899152919 -0.4335638405360598 0.07430153892705268 -0.15778577279463796
P 5.59430920534127 2.6922440500453835 11.712458886372554 0.6428022726840349 -0.5674154711126035 0.7970802894357304
P 6.581020560821926 7.512129323411199 11.848159765925312 -2.1002148732677632 -0.5760744323391821 1.1535501159012649
P 8.635399248225726 0.951032564908016 1.37695468427845 -1.4928578287652159 -1.5057722228340389 -0.8479950740077266
Ni 8.67114245755875 1.0393138746741597 3.822314755420441 0.9267469353966491 -0.7837172378652631 -0.8280808515823029
Ni 5.1490007201672965 8.715388943262452 5.260068786017246 -0.10482156189278077 0.4285949265665587 0.5025344541685023
Ni 8.056256187014117 2.1503442350157393 7.523839733780992 0.7143604445379955 0.19966518663724322 -0.23773088316071314
Ni 6.2465399515484705 8.310967965572162 9.719632324515597 -0.34176800147898556 -3.7425615249261477 -0.7362443890952803
Ni 3.831103314872819 6.730499692952801 4.564419795311279 -2.422010031169248 0.32616629038598666 -0.3796637480834945
Ni 3.8459564404813418 0.35747810673051755 2.6386411995299186 -0.49739636161098855 -0.03786077960151544 -1.9689371740659831
Ni 3.326833258587443 1.2831848961275956 4.658891747950318 -0.11480824079184744 0.07230764842547546 1.4756201247306908
Ni 0.06339818316584397 7.95137324242903 9.18115314566234 2.418101183033145 -0.04892989293148347 -0.5935188530678747
Ni 5.99390797868282 0.7571937541087648 3.5092809920148054 0.08933606466267194 1.5856006051165918 0.8613013041983295
Ni 1.1838051542153067 9.001886778729938 12.224740795913679 -0.15648967969103372 -1.9660480254436463 0.1000483088738535
Ni 1.680519810175654 0.59999449367988 10.251269310748077 0.9945312420304744 0.4870561560272451 -0.9995137828467301
Ni 1.8515700243550883 8.835778403739955 3.731924191385726 -0.9385441851418932 -1.1477787606351264 0.9214093252338197
Ni 2.621779128865423 8.046510548836034 8.849908198696168 -1.5041436860916804 -0.08832793511313175 -1.6707468000676322
Ni 5.837149526628563 5.592376642529752 10.988173916139921 -0.8433550041325539 -0.8587512840829661 -1.6421242512349332
Ni 2.5866156883758538 7.276807591728716 2.0938176930468493 -1.2910082328821444 0.06939793097784823 0.5418260526792733
Ni 2.7191434838457003 4.513086325697339 8.447008424018943 0.22252409351328775 0.9427011447330604 0.6809898394973498
Ni 7.51150354116747 6.507224269462111 9.193516946316025 -1.5705424252318887 -1.3876709131132166 -0.804491237187821
Ni 1.1295645579720408 5.827689171532182 11.477572441456665 -0.5070205149643139 0.8622189309165925 0.2256099315274631
Ni 6.3800524337841855 8.827514397050704 1.6522215690070006 1.0612649959125982 -1.422578523623679 -1.390898933132211
Ni 0.5251297711656971 6.8118605873177 7.213445299015087 0.7831917043790964 0.07307306583659028 0.38231147011898675
Ni 6.7852832473193025 6.420415388504742 2.338995495068074 -0.2858413655146948 0.10607291780137862 -0.19984696363074614
Ni 3.80104736181369 4.1863819810702285 5.384833200592824 0.42956474667899563 1.1117843448183884 -0.3724088662932941
Ni 5.7028732219482965 3.3850862233346226 9.782640314047116 -0.9840210865277698 0.3173774884497631 -1.243360291986878
Ni 3.8207502998111167 3.4087003003553584 12.708953611019517 1.2379272938967647 -1.1622347881594564 2.0368060699938146
Ni 6.9858096457144105 4.170912275898032 7.559452265057238 -1.0307814826117603 0.22864563302999333 -0.20582375003947134
P 6.532706490533982 3.911249455470479 1.824248187540254 2.4765948083936635 0.18357393750233547 -0.5945519223180793
Ni 0.3470910417526122 5.493935573983058 9.119221869697238 0.949656235894655 -0.9454794788091461 0.8184721248479453
P 3.7529173451268423 1.0536976635998851 6.979056719090165 -0.2040707719041066 -0.003922989203490018 -0.1554375842774355
Ni 8.767034383730252 8.132123081386272 2.411512613900265 0.4561095870470596 -0.6992588130098667 0.38394386351608717
P 0.14171667150461079 4.185921847067486 7.368030078040389 -0.01573232313359226 0.44801112630964135 -0.007161550745445731
P 7.299777481145614 7.885932984559016 6.487894040006906 -0.7436910751813127 -0.3538462727997584 -0.07725650779031856
P 1.0286939818908667 6.4792021086951035 0.09623978747757515 -1.866793930336314 2.172673702559123 0.2427440201045884
Ni 5.6903943877939245 1.3037344806900681 8.036566132768767 0.08881978714788574 0.09979634076404749 0.12727449157965823
