# total energy = -340873.7542298211 ev
CRYSTAL
PRIMVEC
9.19398321410720 0.00000000000000 0.00000000000000
0.00000000000000 9.19398321410720 0.00000000000000
0.00000000000000 0.00000000000000 13.45632377591433
PRIMCOORD
 96 1
Ni 7.990343545408668 6.690626940753374 0.2277698967248796 -0.46809195621991645 0.2600400881808747 0.4201845910156763
Ni 6.7530908614417156 0.6413934021542947 9.576219194199426 0.6050175977360935 0.006663785173420781 0.8833459427031949
Ni 2.573929100392505 1.3479758215662605 6.360911402025471 -1.6891844379475296 2.0137149925023063 0.14394655291870048
Ni 3.898009760070482 4.6277729688895 11.668381745158134 -0.23857240522540205 -0.5905559137848087 0.672862325294209
Ni 2.628449419745149 8.872322337229773 12.986468847300532 0.011023347693697144 -0.9604893219544168 0.39602444882970506
Ni 7.823288873800313 0.4790865033813034 12.855592498905104 -0.20825447096815103 -1.1832178181690267 0.20070545497629952
Ni 8.530480854286997 6.131393729127079 9.503743945392522 -1.2038930871301914 -0.23588714508375502 0.44321961845826896
Ni 1.0503665909684372 7.556911603546661 5.274044698438148 -2.045017916380646 -0.8147357977339647 -0.3689059953463582
Ni 5.0896051243232305 4.387754847975482 2.746677605689746 -0.6193931497314753 1.7727334636147793 -0.7540677904299465
Ni 5.206653722245409 5.806266907328165 7.215495802018054 -1.0218502415604014 1.1730655602263733 0.529134573254534
Ni 3.3692546021801077 2.275694678948817 12.588767481678014 0.4187895104403626 0.9349060741686738 1.9383731852361972
Ni 2.8162089411312707 6.186520851359533 12.885008647601358 -0.5996478487837479 0.8637040001025512 2.117845441865333
Ni 0.26931198963600733 2.5816612401185717 5.6840181926056745 -0.16121870973558686 -0.4194687958955744 -0.06671009973303994
Ni 5.05737101982907 3.0070852227636897 0.7041965808163483 -0.11291565175482489 0.6082353333424428 -0.9334757694800504
Ni 2.9700702470952676 8.54047471383781 5.702776676176534 3.4150029821783248 -1.2500734423409956 -1.0943558649292957
Ni 6.221421210931647 7.405937208253277 9.173000519362152 1.209187502759911 -1.5267848205299641 -1.2660927005873872
Ni 4.811294064099978 1.573044526077682 6.0079525548059305 0.7527197610424843 -1.161519764370303 0.7760851752413022
Ni 8.846340141194265 0.20034332595576107 6.382038255624197 1.1266502061866273 0.2880710261761619 -0.8035052191254678
Ni 7.5993142532691556 4.198395573542588 0.1971530138452438 0.0862204018518257 -0.033585035044296996 -0.23797230974755793
Ni 7.294276284385171 1.7988855251634073 5.548001488299612 -1.453442560192387 0.15518433061604886 -2.0866829002196
Ni 6.699443970476677 9.093630702682978 7.162061292060949 -0.3934145220106837 -0.40418872980805226 -0.4264280008222268
Ni 1.5750672023437158 8.55495523710601 7.3812908979516525 0.018855956364238494 -0.6455613234864107 2.8199268119256597
Ni 7.16916456334794 3.193171439238819 9.621338665906528 -2.368242607639805 0.7554073351769766 0.3780676072409682
Ni 0.37998639912526955 4.851692425522494 1.570824179176558 -0.5159764386060209 0.6702220594578844 -0.9255932814081801
P 8.649193563137139 0.5440576232412242 10.755855025330098 -0.4562024038711821 -0.3287733889915306 -0.07790982510360131
P 5.45130561060525 1.653271221975013 8.212017831386364 -1.0476450911363182 0.7812806033993125 -0.07876291713251597
P 3.2053166908180506 7.526543877607068 8.704168984649641 0.32765264512352604 1.18024896534869 0.7636070973789495
P 2.793067685851236 9.025650392178179 1.8764845807114996 0.914741940515973 -1.5944765674499828 -0.3023769012758728
P 3.325583182799828 0.7677711346544028 11.251451164033755 -1.2946926237122671 -1.1689003731050902 -2.3743219810646656
P 6.533869530135737 5.093006898043379 8.757456390878307 1.0245948941850742 0.6373075681180509 -0.0019375833423450502
P 0.7930647013611583 1.6308838733032271 7.880520498747746 0.7902596669694713 -0.17413001848061624 -0.2738515401426703
P 6.538337805887067 8.301679392666442 0.9182490548643063 -0.6390397203178091 0.7811823872585514 -0.01151622816971565
Ni 7.361521076247775 6.6839613030584895 7.055258468824537 0.6337902989934117 -0.2968521148029017 -0.06310772709376229
Ni 4.790901809745144 8.663067283525528 10.21947253912017 -2.7122994051529674 -0.909403559022195 -0.1835600535452645
Ni 1.8946040824619534 1.6572062467107518 1.3377870495752655 0.1295576311868801 1.4929241632267773 -0.6607747980020555
Ni 1.9537305873113386 0.22977418502485877 3.7845642840967533 -0.5725365943892528 1.3827822175623476 -0.24986700430261483
Ni 0.3786321254253295 7.569654464022675 11.953251792873155 0.1317024454440248 -0.3108029205560389 0.6692604668755635
Ni 1.1809763138560703 5.356561615507611 10.76723901511466 -0.8232227521590532 -0.7259445498311691 0.3558573896925162
Ni 3.871917236238643 3.665889270577024 8.053919018645026 1.3350712846396298 -1.297217704126966 -0.6534893200842358
Ni 6.135622961319695 3.5558189057726635 7.084647035571709 0.4009401409637675 -0.19533622024458616 1.2135429515151295
Ni 4.439314704793294 0.042365873790385214 3.7507478951235727 -0.07204076791733399 -1.7154680542344067 -0.18116944182590086
Ni 1.4581473201839223 3.9001887340479824 12.642270027109523 -0.5180469479818046 -0.338619685657991 1.6535995988643841
Ni 4.672878649622058 0.42253523317790054 0.9865695427411189 1.1083866319907492 1.2424331521869183 -0.34327209682833787
Ni 2.0339113132935327 2.639050082175773 10.708313858493574 1.6770979390966407 -0.7105822084424859 0.09673981332591082
Ni 5.838473429873243 5.993631087444108 4.913616659407125 -0.08187909416399447 0.02687497001397307 0.5447542820696618
Ni 2.6801471863083735 6.932667737933427 10.750794657071804 2.1484215148799777 1.287958390312227 -0.6911541816248612
Ni 4.420540591451288 8.89048964769197 7.54875562120303 -0.3635208197750449 -0.39424293144925004 1.2713218101968105
Ni 4.378661998761356 7.365520458864705 1.631821659572025 -0.07470083124800038 -0.4371721267126084 -0.16830518426872304
Ni 0.28691295074371426 5.104039677676292 5.760436740733045 0.8364184249137208 0.48995404640033036 0.13859762990196128
Ni 8.79428380929297 4.278456777745426 7.849947746986642 -1.5509053677272515 0.23796639621028692 0.43164142670236627
Ni 2.312433835126417 5.7496595538282955 7.903571652994112 0.008741236527739785 0.715437222541942 -0.5337409616782937
Ni 5.378709920620683 0.9396158714200474 11.806820144593623 1.4423181681444515 1.5884990097103096 1.6710550753366706
Ni 6.376744360197004 7.214196692216278 2.980199258196584 -0.7619243103598878 0.9208369976701173 -0.6027676253596522
Ni 1.2288585774629117 8.640385727396865 10.066688767966989 1.1447667132816801 1.1738366340644428 -0.0381068341740505
Ni 1.716654540966097 3.63027178032877 7.106903829684505 1.0554013380429697 -0.5100631584453796 0.14643435233756072
Ni 7.203412150125106 3.421540783657087 3.053509320662381 0.5195944949745825 -0.4476468009916871 0.7355455632560428
P 9.072889076973102 2.323632106453823 0.5708479703848448 -0.019021535407825304 0.7533419680075155 -1.3262853109168835
P 5.9610016416797675 3.2385345514961457 12.029065376917321 -0.40957364826904946 -0.8808002934632057 0.8559912048393258
P 5.257367732624697 8.107189875704243 5.715492874101769 0.33263338616756905 -0.8501257471974842 -1.0351197049757979
P 2.4973983856722 4.300145383707126 9.490340956935137 0.3398934101640921 -0.7048249942437346 0.6406440886904515
P 1.3310405048297393 6.135622961319695 3.652301483060789 -2.3843883641617323 -2.0942838524953094 -0.4137812585924939
P 5.642328995966108 1.7108531376757905 3.9823985720843296 0.06422821385145068 2.1098061165006246 -0.18896528372123583
P 7.446078138151024 4.037831853951597 5.450793505750623 1.1265820719528534 0.5812202382061796 -1.0060724099008544
P 8.512267573909664 5.505706408178537 11.876699012593583 1.4501104104953606 0.42869494247953266 0.54265909010353
Ni 4.5842026833225225 5.451756115773594 9.665798009632258 -0.19856372604294836 1.179903409083813 -0.7070669962003758
Ni 7.796810202681322 1.9543098082420667 7.784658515313971 1.2888369362624383 -0.14190406856737497 0.2331214094131598
Ni 0.3791920389916998 9.108212359764476 1.0983316004225256 0.3461013387470168 -1.476776092712005 -0.7502263051966692
Ni 5.310233135032405 5.3214130183937565 0.14993271701637695 0.025710517392226687 1.1026967806948236 0.3325102303261435
Ni 5.057196334151549 3.6348595778594563 5.0172438809058635 -0.10276519358438431 0.8450172223263254 -0.9412970652966821
Ni -0.30798004345276125 1.6111903616584782 2.5814479397123353 0.6298385134345152 0.5661702858515927 1.544467582521708
Ni 3.1044311150580906 7.0498174696689055 3.808798703958749 2.0747632659638784 0.9851140624816326 0.07170112518972813
Ni 2.999582932613309 1.1153496630062938 8.896675359472823 -0.44930233431723915 0.26558261526565874 0.3756381718638692
Ni 3.8530327951003076 2.267760271596147 2.6466571837326667 -0.5068996731157334 0.04767390903719532 1.168522163830065
Ni 8.640054744007877 8.36386749386396 8.605682119061536 -1.0837336093287595 0.40985287007236504 -0.03786695024910253
Ni 7.6094919924805176 7.830405016663542 4.953070798772724 -1.2918230154739556 0.5522709021616811 0.44698834147208183
Ni 0.5618084462722782 3.7922789552550675 3.5598973566436305 -0.5321808162800254 -0.43340314658847934 0.7167376865209205
Ni 6.956958241091889 1.9100131980159214 0.9077605590266171 0.39289413073083945 -0.2710091855978688 0.6985890406363517
Ni 8.173588821128323 5.782178671796306 4.036722140200187 -0.8458158069682208 -1.7058924947308298 -0.38778843407315794
Ni 8.926024392092977 7.3192287543216095 2.5513992449837946 0.14038943169506143 0.5066276504012693 0.05778785754274563
Ni 0.15844818409638015 2.886478553409898 9.704862324117494 0.38811444995400896 -0.5255995635180819 -1.5300796892311521
Ni 6.617111852466064 5.153043607212479 11.141337587509163 -1.150396914984264 0.2366877866081795 -0.4938011880605625
Ni 6.83166264039411 8.084526707541634 11.422198139225923 0.20202365956709079 -1.0614814827987784 0.23445092685786076
Ni 4.587347025517902 2.869809862181172 10.280105937787752 0.5796369528794598 -1.2196917447253446 -0.629256158568484
Ni 6.834347283438118 0.4592431298132069 2.7995347335127283 0.5490688502846156 -0.9934068986180439 -0.0602211495745866
Ni 2.684284478670716 5.616208890185186 1.9371188987773829 0.27390707597095404 -1.0221623734841816 -1.0263666413735162
Ni 2.70649714166498 4.470473113273245 4.238055658128002 1.6627756089366974 0.8824751100624671 0.2263378108324231
Ni 8.219862137705364 2.708014148864506 11.695590418529504 -0.5279711490740521 0.03941655412440954 1.0176362034790538
Ni 0.886151021318952 1.1254630443364637 12.334012325369333 0.36426772524339845 0.5534296983564727 -0.1336109753206473
P 9.000008373514685 -0.0816352140971329 4.064670929205263 -0.4274253317384897 0.6382753313479588 -0.33987901198638887
P 3.6272837358448564 4.8807637998552185 6.2195125400551525 -0.9872143966540868 -0.7424770002685536 -0.8971782206005967
P 2.109945552930357 2.4573953655198633 4.381217006644678 -0.11211655289229723 -1.0355531929687907 0.2749015786737395
P 2.9749430580998037 3.582555008416422 0.9356799272860058 -0.30481276441087507 1.181562541953791 0.3756034619711918
P 1.0098395137835374 6.882247935011015 0.6795622226926594 0.4126725989093474 0.2713508852080036 -0.5433610012665611
P 5.029697130916514 6.759122114307708 11.836007363112493 -1.0521923441873684 -0.37671777808129314 -0.5046664129098405
P 0.2669316674302064 6.591138850413583 7.511750758915938 0.5528679123157317 0.23177826512170405 -0.5125887530807108
P 7.064288798954077 5.442562132746167 2.1222507798142654 -0.016273283238726812 -1.4926097173101518 -1.3067058461230594
