# total energy = -340863.93457718345 ev
CRYSTAL
PRIMVEC
9.25959738590145 0.00000000000000 0.00000000000000

0.00000000000000 9.25959738590145 0.00000000000000

0.00000000000000 0.00000000000000 13.55235674871409

PRIMCOORD
 96 1
Ni 5.595815396120556 2.0255832067102064 8.559058759677553 0.7016913337107592 0.13623478609673959 -0.2195056184019381
Ni 2.3543729875328894 2.5746680668263573 4.308890636907906 -2.686158999312174 -0.27307583831891036 -0.22361192726082776
Ni 6.01271024522441 4.321768884828605 1.6584429517624444 -0.2976203604274939 -0.39860172263857807 0.5716217958844672
Ni 2.987840557816808 2.490692778939658 8.419632373377633 -0.7692347279783719 0.3905575121778629 0.40340248646133103
Ni 3.6558556856159186 7.713540855533435 1.7996175500320422 0.1914037179593994 2.0272582784043793 -2.72069842784994
Ni 6.4588561621895595 6.772617616599174 2.2232913503170466 -0.454560754502701 -0.7389646162399208 0.4068058557159252
Ni 7.518478178874354 6.120760486083368 8.722418427111087 1.1784980440958543 1.5461326289289565 1.0164139010361783
Ni 3.1603375958630444 3.9185874993216414 2.433027710812719 0.059164683285614236 0.991577301608473 -0.4109252772009374
Ni 0.532286098699892 5.901956201954721 8.819331224341186 1.0998114887272283 1.0558152856519365 1.4143718194431705
Ni 7.389732738056551 8.213864676283464 7.234614112217367 0.06591511463557036 -0.09039947293017979 -0.3050035402654424
Ni 1.5399728860651465 7.040821852307437 4.7612275206258445 0.978058955407064 1.3935304572177871 2.393989377586606
Ni 1.5288706289060163 6.748357471680975 10.983331521245937 -1.439650391504301 0.344652007895 0.6756494011210428
Ni 2.1046879464186716 6.5724529018294335 2.7070016015967573 -2.309959812738512 -1.6227977829921796 -1.5292767337138824
Ni 8.417483220844993 2.4093935146717986 1.2545726522165823 1.5704904889480307 -2.929733485737857 2.227785298821286
Ni 2.8298533087350064 -0.03490775585004598 11.862648807443648 0.8295461232739197 1.3391115161472744 0.39192945282472497
Ni 7.324461836709837 0.3115761894475177 0.8170187155833408 0.06539935134141639 0.5805152417193551 0.6440950233535294
Ni 2.587696320223268 5.146261947350103 9.75315698194728 0.8478765461519913 -0.922283757418973 0.02645999396374153
Ni 4.287443557648542 0.36914217988337833 10.087168249685755 -0.4900239804063174 1.2010121660379702 -0.4463159979954056
Ni 6.659900538702516 5.328444524169025 4.293034502496484 -1.9475196276221558 -1.5324047378199026 0.5004336057754155
Ni 5.046887949158454 0.5712004823003597 0.6091666831376122 -0.3828436884733729 0.39424730232462424 0.20101373024533764
Ni 4.235321284463601 3.161754314249489 10.28259297659915 0.3581880947082218 0.3999682639688015 1.1311146697158843
Ni 2.485377770091167 5.692022612036622 0.1029667219428927 -0.07226034012730782 0.17705361988531443 0.4392014984378113
Ni 2.8466502182318054 4.1775136185382875 5.796952368606484 -4.270790555647277 -1.5647595000015244 2.5117063073848165
Ni 5.617334700238837 6.476588291013358 7.99187879452356 -2.851706932550734 -0.024124660962345546 -1.9414083725180955
P 4.430115432801068 2.815408336951651 1.0940816080256657 0.6148060445814251 -0.7504525622748623 0.5272782367720854
P 1.7485730939724746 4.432680341252343 7.758670280839665 0.9101360663128454 -0.3432371298253444 1.5618546676499037
P 1.6804687558528724 5.011034788424382 4.230083130272675 -1.0274465047012564 -1.587380836945466 -1.0565894448137996
P 1.3355394969414789 8.187715573516673 6.551330834435196 -0.6238861525058222 0.5128247803509167 1.191508083202277
P 3.1766067083139133 4.711894238146766 11.886961732066439 0.7751703767365166 -1.0399983732243379 -1.0614675988417073
P 2.0987062465647948 1.1976918719807015 9.899467878837536 -0.6294214805017547 -0.5152670712438223 0.7527267030210197
P 7.47831004579987 6.091814984932875 6.261879526769183 -0.7150659552454524 0.4447170289394019 0.6844420597120083
P 6.883112391144547 5.726273862438309 12.827196982921532 -0.9687651888099638 0.9491276170846945 1.7198204176658318
Ni 8.069100132141811 4.190282603210882 0.33839383513915494 0.5726952314543041 4.559848628327057 -1.241096435653366
Ni 1.5072216904255773 8.002208801268118 13.505926390753027 -0.9101738615293163 -0.8218238149289975 0.08248073230373536
Ni 6.130075640964172 8.324266854855866 9.43505555428455 -0.5599654425924615 -0.6031193522721161 0.531474277131304
Ni 2.234840846025623 2.593048367460947 11.854653145177666 -1.4671257141064344 0.3150218437333929 -1.2377722563761393
Ni 7.045331276191087 3.8616131971530603 6.823069458431732 -0.2997453771902967 0.24919131839182887 -1.151107053677411
Ni 4.700588269847102 0.561293639152275 5.050245479138355 0.4646739316773029 1.2483194357643663 -0.7988754336629402
Ni 4.853649413166887 2.846798371788558 6.5732723761902205 0.21388390133978646 -1.3934396972761935 -1.7392502442556692
Ni 4.51660007155526 0.3533286396195229 7.335958552713821 -0.4688396330192184 -0.709754570334868 0.9369778690960379
Ni 0.7329239788915101 9.1128789778514 11.198894946320626 1.619945401145049 -0.7266847704313033 -1.5089110255733367
Ni 4.069500416068518 7.648936645192108 5.755143434890966 -0.15869748597562994 -0.8693532279685287 -0.1795298493399489
Ni 4.267433567889675 6.06679555303632 3.2027474774431384 1.8282399813225159 -1.1681418976725109 1.6486293993433025
Ni 5.4248832300175165 4.085186173889674 12.424841553493462 -0.2946615349094861 1.118100002623771 -0.3737885202496401
Ni 0.1624522268984261 3.1232621682857653 6.9235055324333485 0.8873458078912073 -1.3156800245972116 1.2386803700127054
Ni 0.5985246279641441 3.4434497832195143 10.237138539427795 2.1579690493590964 -0.027106369298488798 -2.028649245214635
Ni 6.357343197022298 1.9844057775303463 2.603299667628481 -1.0482055916254787 0.1530297461668913 0.2696583279969291
Ni 5.286146683716225 8.819303445549295 2.781120048160776 1.7084844238277221 0.5669814688989784 1.2825364479657073
Ni 0.6789386747304083 8.817423747298 2.2888715222134803 -0.886603530408544 -0.7983416726466573 -1.0131843383552874
Ni 8.095369609673465 7.422761721615031 0.6500200264120766 -0.1284181182657982 0.27622029748516297 0.4923274317285134
Ni 0.16214388230843524 5.450411939765408 6.589385927406499 0.6155832890670817 0.8867670525696019 -1.6937376045358508
Ni 4.289823274153877 4.4589405591867 8.052742127556892 0.5918445506892452 0.9035324449533987 0.2683066990650411
Ni 8.071822453747135 0.0651468227429331 9.311187143363089 1.8933999629596165 0.9603332559925267 -0.12487950898492041
Ni 3.5025445331691136 1.2413879116253517 2.814688866241672 0.8429320576625225 -0.3669689262246454 0.1885914453215849
Ni 8.513449687231338 1.2849635765051408 3.4417293500417276 0.16146939229381221 -0.306808197574349 0.2724878270259243
Ni 2.903865269930109 6.527469778160498 7.499047839906282 -0.9591559478549739 -0.5030553596689789 -0.24845444022580432
P 3.1976908113592337 8.406945799120981 3.9240988116328293 0.854529789802451 0.19324925580857039 -0.46055219619944554
P 4.088723340057137 7.760977772486083 8.817759870679883 -0.4552567521284611 0.7371946688236917 -0.027880528460351987
P 4.433411849438808 5.118723904988757 5.510402092773629 5.63177984570425 3.221956843519496 -0.8290738116231914
P 6.8884644383822256 1.9148013846486265 5.290555177989337 -1.7805622156305787 0.8295013860789133 -0.819649432985498
P 3.636632761627299 7.698679201871714 13.072115183347242 -2.538692606165673 -0.038416909215301574 1.2090653753597502
P 1.2449528565847054 1.7392209007024815 2.2990626349985837 -0.15900293303119067 -0.43641108017686775 1.8992584786229225
P 0.23276405301363848 3.7638688880856885 12.193841453764907 0.25611324232264276 -0.2176171431299736 2.487410925172561
P 7.8873990543823345 1.962682762271531 8.237583134759788 -0.252584660344094 -0.13698477688888666 -0.4636452333024724
Ni -0.2557991532094419 6.195772483786549 12.54660896178823 1.0762031052796692 -0.7310132226033281 -1.0894836244386592
Ni 7.870046569047713 4.711116431973816 11.026834035307079 -0.31142898417581205 -0.17414801620274523 0.22023246926563364
Ni 8.645454506297694 0.9842859330762188 5.826225659501292 0.42297989437262634 -0.13042100762843992 1.2522563089249272
Ni 8.89000973050936 1.7403320523781243 11.367500175622924 -0.0921028287745317 0.4918954863974173 0.7782207335270662
Ni 6.31585094153434 7.446947789754854 5.133022575134819 -0.7304028427128388 1.6625735202282206 -0.855483669075288
Ni 7.955447834918154 8.671640647453673 11.678215222521818 -3.7883932385482826 0.11943519804089753 2.2778978992069607
Ni 8.30764587770771 4.072333852841407 8.802567649394657 -0.8706094689731328 -1.8353148858914263 -0.4028414717515385
Ni 1.3745038823673503 0.3080195781257313 4.398620764514704 0.4502325594409924 0.18948027568444142 0.99203907173624
Ni 8.932085340627031 3.60378897001476 4.791571220968188 -0.21608990785216978 0.12328902456934895 -1.3126808327595716
Ni 1.2241465414582953 1.0152870648266508 7.52157181033129 -0.44490806190428545 -1.1992884984786443 0.2523784578705589
Ni 8.792163565871721 6.164549121700988 3.8125891852237035 0.5543393546549356 -1.7148054809497435 -1.6116309677420826
Ni 1.7415913576105193 8.277839234008594 8.979344473311576 0.5620076698334708 0.033465221636981075 -0.04838816149540053
Ni 4.18708804214341 2.119253292966888 12.63742338823851 1.2029993716713283 -0.838488420068872 -0.29704546176063035
Ni 3.7341085423730576 7.1123615010242345 10.957703733806966 1.09081648431747 -0.19877327095059313 -0.8173164139769472
Ni 6.007487832348889 6.277543987516557 10.97019863439957 0.12777097160010253 0.3994733266102539 -0.7183939911774209
Ni 0.7106213128419012 4.4348933850063315 2.2350140004950774 -0.7568916330319868 0.09034753664632182 0.6157740649216492
Ni 7.169483956749568 2.4252829836334895 12.80835925818047 -1.2679986593608485 -1.4312158875837029 -0.009345445770641971
Ni 4.857816231950547 6.049859749580065 0.4972885247560649 -0.23696392308770153 -2.071589753331903 0.9115054358565463
Ni 8.671816579802316 7.981170996209284 5.005278096784824 -0.502947887556837 1.5463028359582336 0.8924725875948113
Ni 1.765157032731442 2.936384975637253 0.6959504068844984 -0.05254820641036112 0.9040062992660237 -1.4646597690644452
Ni 4.537554540238422 3.0517225195689677 4.208602716463042 2.2485590410335274 0.7147049723616078 -0.24015594766243797
Ni 6.810257879611572 2.318019808544778 10.45721509222505 0.699715183820995 1.1761891934570194 -0.9827658739644302
Ni 5.578999967429162 7.783256363582719 12.963669557683701 4.719632148278014 2.0949297136094245 -1.4977336688002785
Ni 2.636901820259647 0.6991801544216999 0.7628834059460271 -0.9286996882476458 -0.39129284768199063 -1.364971928853804
P 6.005747028057049 4.437060130773835 9.79386772742337 -0.35242368142061886 -0.4166701501045147 -0.9773961250120845
P 8.672622164767159 7.231273249512601 10.35381039133001 0.6547823278640466 -0.6355975274054796 -0.8944790765018789
P 9.363860362587202 0.4004609158210983 13.60534668693116 -0.20684833464924374 0.2850031858841156 -1.1469153841935666
P 5.918030862862353 0.8508810628985529 11.617120399556063 -0.5081772542765765 -1.4871201549504904 1.3065708632070916
P 0.6096963321030019 6.291590796616141 1.0699177629193553 -0.2668437413662695 -0.3441778964720588 0.5370463719024429
P 7.813729698287221 4.133974992047687 2.967830568057942 0.02387860638981049 -0.885997521393429 -1.5180461551053857
P 7.518135573774365 8.497662073839914 2.8665268697895945 0.8199520518275814 0.5909598340914467 0.5636763157851453
P 2.817047285673224 1.9058380944651085 6.397200207627604 0.6379698842923981 -1.2665364729930253 -1.6970062479847934
