# total energy = -340889.29565306986 ev
CRYSTAL
PRIMVEC
9.14414788794678 0.00000000000000 0.00000000000000
0.00000000000000 9.14414788794678 0.00000000000000
0.00000000000000 0.00000000000000 13.38338473864180
PRIMCOORD
 96 1
Ni 6.718781443395501 2.1970643832155905 11.729278805165897 -0.6898352057031216 -1.05270759326089 -0.46935308232052714
Ni 4.612993943158467 0.14855399574164 5.711279242776639 -0.3136833274276275 0.6932779128360834 0.1587800183871072
Ni 2.68217056623457 1.6438434435038363 4.392038414252369 0.46660920102680287 -0.5434689875993349 0.05100477318264119
Ni 3.5269892339871203 4.455778610654927 4.715782393756911 0.9933017404987473 -0.929659995278386 -0.2320086359649553
Ni 3.8054102451002354 2.6481817689964116 2.3801677124533116 0.3798524670555329 -0.052618140416348096 0.10628760491534599
Ni 5.258671360910314 4.625475704856096 2.6787918036358347 0.5345079217513053 -0.6119644613675719 -0.6167094322517249
Ni 5.573540945010057 4.852716920935052 11.426318559113765 -2.4475562550694687 0.3793575296969854 1.6881562537933312
Ni 5.808819866973421 8.197710181978652 12.696991161205224 -0.013308544183448047 0.10557052424366335 0.0630449921766269
Ni 2.1236825974108493 6.629891182983302 0.18041860745426067 0.44135916821076243 -0.46307881927604116 -0.23001834500780388
Ni 3.052526838965239 1.9081093138785419 -0.02216358534997273 -0.48377722816565716 0.24316902345714894 1.4073653062183504
Ni 8.067369499753008 8.970838731262768 7.000728437886349 -0.3574833553317133 0.7751755189428392 0.057535375212307366
Ni 8.743304902455371 2.6553233483999636 1.5404679386189541 0.5189231799391708 -0.3070277697843229 0.48449456594765594
Ni 6.810579542796596 0.7667651368552679 4.606012386340782 0.8794872310787369 -0.219975358949505 0.021113899160479767
Ni 0.8129577136990349 7.4460429474962435 2.291289339433207 0.7431079489843331 -0.49470698770428356 0.8782860116817841
Ni 7.595723502242387 3.9121773143907226 3.7558864552261055 0.8748361054599707 -0.3331411790419231 -0.3544831350528088
Ni 7.930719355570323 4.073498369240223 12.421895876633815 0.6661334912108076 -0.48465808810871375 0.7614003195356177
Ni 8.535842477989581 7.447862632901246 8.933783901279398 -0.27987769173209215 -0.005264076612416741 0.7210651102516806
Ni 7.758745368575961 0.6445270839631562 0.5328834406702186 -1.7392379029604952 0.13606637883967532 -2.830759126654473
Ni 1.9922903381923667 6.919001702832336 9.051116118896214 0.012787895793287655 -0.9288788941379875 0.4448049606675178
Ni 9.270794210359703 4.977799718196492 1.1351919944077686 0.6619428501682278 0.25070569815382626 0.7622292431948163
Ni 6.4069842929444025 1.7587122277130767 6.909814577574015 0.13005205432479539 0.746386876845921 0.11983294769994846
Ni 3.7159530475266807 4.434655629320479 0.4320600674262218 -1.175812269733575 0.8897173934471774 -0.22860038161435473
Ni 6.031004369338978 5.70564644775412 4.749281064674928 0.12786918774086364 -0.24654848145234318 0.9633154785493022
Ni 5.061240066541446 2.860444871038213 9.242525077547821 0.7822128854055947 0.3552850621288139 -0.15933820488342237
P 0.3615303413090196 5.7122850990306615 12.38460969971202 0.39768615280284414 0.07849577951405837 -0.632223468726924
P 4.332122300444645 6.368386845233273 12.702330429084526 -0.4806633651270238 -0.5328595875146049 -0.6905394308589978
P 2.3081840668416604 8.601003674954638 1.116499527548946 -0.09965338742827999 -0.2354783396811106 0.8877098760988454
P 6.527284700925359 7.955490851862541 5.723190409653806 -0.17384359758844897 -0.34070716431463904 1.0753263591016706
P 5.035234110301111 1.1813873144958649 12.86936931953075 0.08046293054275819 -0.12359472873522585 -0.8298793382436225
P 4.263632633693553 6.487452793266113 8.31842939192719 0.5327225477161083 1.9013958366808996 -0.47002208336309376
P 4.814430374247893 0.9532774043793453 3.573497283928739 0.1451017495690662 1.339334430791358 -0.09027914530223162
P 0.2713443551586871 5.5875589235320104 3.5443082498518157 0.38533611587792344 0.6222542733293541 -0.40919518188370824
Ni 0.39576237287769606 9.2970379144419 5.025715052478964 0.7732592757567328 0.9869590861101711 -0.680446308289054
Ni 2.1075340324599243 6.358264273658713 4.70074027068541 -0.6381763438762493 1.4958297669093463 0.03667318705131748
Ni 6.438805927162534 5.845369025585452 9.238242873150021 -0.6587130303770203 0.8119726331665306 0.18114270235302352
Ni 8.605959803042634 2.500997566589793 9.967436535673261 0.8431858255445414 1.1720864841425556 0.6069716361386709
Ni 2.5758789926278025 5.359842211769335 6.895025747395572 -1.3220720441664844 -0.12376519287481912 0.2526473952612294
Ni 0.6727989600193678 9.639760572630273 8.989432441325741 -0.052668791148625424 -0.941862707992165 -0.3810387740541502
Ni 1.5753903533437996 1.3536447700709064 11.1624925222465 -0.25076766174001325 1.5391795946498912 0.9927049874550129
Ni 4.563377797391922 6.675182146857555 1.4377773304015833 -1.0614534577743204 1.4408205005530024 0.958198469037711
Ni 5.90606787844176 8.158481788071818 8.129616456825733 -0.6338874866929084 0.031903276466499896 0.011590018830444556
Ni 5.614113528638175 2.87180190256089 4.748893352809742 -1.006693331314305 0.39806127675407577 -0.25488348368059977
Ni 0.7174754371638915 7.479419086834225 6.801717034783891 0.9723426217485771 -0.24990814195319538 -0.2788662197484423
Ni 5.087236878634016 4.873135802891685 7.046485753296557 2.242867647075705 0.4876691070208956 0.008989862203436132
Ni 0.7130240660324588 7.668071999349816 11.23931250761044 -0.03410028411781869 -0.5069007015569981 0.0582542556562029
Ni 4.954226105261336 0.2558697138979565 10.517158924450573 -0.5736524531612508 0.36674009804329094 0.5498581789551303
Ni 8.43231243700749 7.342860384129178 4.7384809117510684 -0.28296790062164173 -0.792106747480539 -0.036621507877775634
Ni 7.423886677464481 6.338064851248411 6.9564158978228265 -0.030115074217825555 0.08508474558548573 -0.6747878244516958
Ni 2.4459680853470607 5.426713364366229 2.4778537285995386 -0.2618306044223942 -0.5750501048397257 -0.61869483811287
Ni 2.217428400285641 5.323795981284315 11.225019290240798 1.2207389550429364 1.5221162114097013 -0.5675676804197516
Ni 1.1130896748478136 3.430253294793556 3.4827443606170494 -0.3515993857471106 0.3087707206173586 0.9151193784600499
Ni 1.5206717731250372 1.2495569360752221 2.127409752039387 -0.008081234346237696 -0.6616849685211508 0.46212776821668156
Ni 1.1857765054225036 3.405500086796866 7.843988028445167 -0.45541101831813824 0.445277272318246 0.6684760233010553
Ni 3.7906333023138856 3.142669847621082 7.060270556050532 -1.0275136104937659 -1.746997492301256 -0.10380546192344058
Ni 4.242793120939783 6.914850259747557 6.126365028708863 0.15819046443222434 0.7180042119381699 -0.4597422987036404
Ni 0.7160206032546661 0.10047589562897119 13.129314580087046 0.8322488669170635 -0.3557540313454325 0.47696020524382365
P 0.4146075470041747 5.678067698098406 7.988100711617913 0.4055930663547467 -0.31623848974931346 -0.16588963284869496
P 8.513978820686262 1.837690231949282 7.9479633894233555 -0.527125513244305 -0.389829889983219 -0.3451389748337475
P 2.1009411019222024 3.3835998529024915 10.10098864259356 -1.0029166378806922 0.2147904723144559 0.8968365209904618
P 4.158941285945456 6.349604765726365 3.6334417445945313 -0.7400786752397062 -1.0688201825520367 0.3273903926010749
P 6.855742488602155 3.892608838176125 10.236134574469096 1.870383190349469 -0.8884745221790118 -1.3427653108497777
P 6.911631519734689 8.030363133752786 10.359127933966501 -0.9889015545485227 0.41771016133325484 0.08830325252278341
P 2.3916061268910878 8.42620414630125 5.5334539156282005 -0.10931122223301819 0.5754254859012735 0.18048578549531497
P 7.199315552532564 4.123013929381366 1.3739786114533368 -1.3366489135393946 0.5367553230245853 0.662705439365865
Ni 5.571163466591463 3.2397624085774352 0.23400422776508467 0.6440114625007877 -0.4368689936498928 -0.22450692827127142
Ni 1.887955612207059 1.2704604578633392 6.73566976990052 -0.8258902716888874 0.8214934281727723 -0.5423526146067047
Ni 6.829352478155741 1.0950116947187203 9.36618778866154 0.09721366763853581 -0.6528074635258628 -0.9549781623282005
Ni 2.893336370544711 1.609232844217737 9.142123249515738 0.2781889911757596 -0.25450630284683906 -0.3704512283462911
Ni 6.476178059073309 1.8929025961472914 2.1347305567391097 -0.8405134209187008 0.26959610730042605 1.3262994519842706
Ni 4.214839461225753 7.0717089704883085 10.628414855878326 -0.24978164367766012 -0.2638733458840358 -0.567812449440706
Ni 8.658410634615967 7.188763206013104 0.3533307840091927 -0.6117618584384625 1.2491941250598357 -0.25361490138082127
Ni 7.845998826538432 4.276745341586887 8.05891207748624 -0.13553467470592143 -1.7440741480068738 -0.053823987798991176
Ni 3.0683827911877217 8.839665931590616 12.451780780355566 0.9485971985025211 -0.9547706743030848 -0.9078282441152752
Ni 0.06502037708949422 4.868993503954671 10.080070490169023 0.1018092574290182 0.48441666152186896 0.1610983821076387
Ni 8.647721125880048 2.398208201576573 5.875158830170459 0.3170195908897121 0.7583810730933197 -0.34139467729996686
Ni 3.9296700690629307 2.720347383148563 11.34761122165137 0.25914200184663755 0.30299370892426525 -0.027376078020107695
Ni 1.4824766679155164 3.681278439206235 12.570879647320355 -1.027409995036366 -1.2468287101514528 0.863485456333842
Ni 2.853861084648255 8.660129734395566 7.706112568462127 1.8516182510371402 -1.0049457524955792 0.5709044581024684
Ni 5.699108382102981 7.882328525604131 3.707224044071328 0.013498548707067074 0.5826464291297448 -1.0073728738798329
Ni 3.3209167199814327 8.474549255528624 3.4443480841567244 -1.6262217210720635 -0.6779235418672003 0.6750675604756439
Ni 3.462212091228144 4.800174647884081 9.114700864786787 0.17495328571285998 -1.6978639679993985 0.8681316968566017
Ni 7.518885228582919 6.21584417223705 11.571916251883358 0.2575250350685048 1.9431909183398144 -1.0037710154611874
Ni 8.237468936455787 9.011200999492317 2.4664509763380416 0.8717800922424663 0.2855348900178695 3.193311411868662
Ni 4.334463202272186 0.14794225225623972 1.5012139410983818 1.310584612352175 0.7557287230721371 -1.1210135767261404
Ni 6.509499333524707 6.037853336014087 0.44259961213881305 0.4415520009478589 -1.0192315729906316 -0.5765873674198586
Ni 8.36642885236909 9.576208745671648 11.149657796445188 -0.20474388671173124 -0.7515501662144154 0.5449939088842937
Ni 0.16033257247623026 4.91243734998063 5.630162422378474 0.2375856158321005 -0.4457282438127355 0.7612586517514309
Ni 7.419479198242315 6.32529047682234 2.851825597356026 0.3777585606409816 -0.515236475116203 -1.614571281317329
P 8.622163232880142 1.7785275959172977 3.7261880921187363 0.19654026785501635 -0.5335393871904488 -1.0872382800479081
P 1.9243676086026327 3.360629753719749 1.4338828378689676 0.3621383376052215 0.4289301984187903 -0.7439872662654929
P 4.540279680140486 1.1863617308793886 7.788782065150591 0.4524719902944723 -0.7747484587077497 0.555641618406127
P 9.014392307061893 2.062938023815722 12.779806964257912 -0.443463616148275 -0.12269535684940804 -1.4426673239537542
P 6.59558234057341 8.054000755722287 1.590548607091902 -0.6105601248208775 -0.9860841397043857 -1.510391209663289
P 2.008027416493919 3.2245831232894764 5.747735131081479 -0.6567859885576366 0.7450524743052136 -0.09800556741221186
P 7.078429919094723 4.103427164871241 5.976524451376851 -0.7838087691378051 0.3233311349300367 -0.11326583600539201
P 2.3673649911691728 8.747867832189522 10.19337471069587 1.3588020525976663 -0.41483001157198235 0.20928933999056856
