# total energy = -381175.72577880084 ev
CRYSTAL
PRIMVEC
9.13834155405111 0.00000000000000 0.00000000000000

0.00000000000000 9.13834155405111 0.00000000000000

0.00000000000000 0.00000000000000 13.37488658207809

PRIMCOORD
 96 1
Ni 7.0578702223066445 0.2735206172066075 10.29093233262271 -0.9591248375067223 1.0545004234952549 -0.9076215274211079
Ni 2.2045975035746244 3.427015186937196 5.119050419074258 -0.7026215588345125 -0.8971591944372032 1.4634048136114217
Ni 4.134057817308029 6.502588031410142 8.440583556227368 0.6555040365214194 0.904800770142861 0.5174260265683541
Ni 5.355086472742613 8.824540118216497 1.9206737982547164 2.000353740704052 0.43282490548750613 0.6488880738667986
Ni 8.502824801079518 7.315461796215383 1.047550947072992 -1.0925455511934345 2.5107434292509145 1.6491029965456114
Ni 6.08298279871653 1.232807977797588 0.08987376227748206 -1.9306159098882814 0.8504893011844902 -0.3931059896313294
Ni 8.49552326611595 4.412375150037011 2.108978465913418 1.2913987834523437 0.17184096533612342 1.0201463714954173
Ni 3.9247806556050335 8.844196691065855 9.451230224455708 2.283535299998396 1.6823954400501542 0.635230630984364
Ni 1.7401778435201327 0.47843604844888743 11.287454780025401 -0.3628980985893815 1.1133776574474374 -2.164578584255814
Ni 1.5294019937895713 0.8929612770295491 0.12457295928645298 -0.8179841294679332 -1.3045006109416242 0.19062467370152975
Ni 7.536783292188696 5.694776907868753 4.696952246783571 -0.45441471584313997 -0.2757572418058154 -0.5936654059480679
Ni 1.1709505432939604 5.433255847058469 7.691536538547343 0.028194203046028862 1.1135560920068306 0.21854454004024942
Ni -0.10631546654087794 1.8437518075715602 9.823465949468275 -0.15234146185061503 -1.6733893798968016 -0.0864083494929157
Ni 4.386111556188078 3.5608279234472593 6.600092308949928 2.0406033322527177 2.3067595606336595 -0.9991548568454147
Ni 4.787906161041896 1.955577694116233 2.1980690723130802 -1.6170074015626474 1.0552663551270018 -0.7212510010102416
Ni 5.934174043589174 5.111421731480281 10.372639158984118 0.31460738190379367 -2.40529786062089 1.9533354629729842
Ni 4.096590616618877 4.336846756452659 4.199781684155944 1.152794725792479 -0.13063260941861374 -0.6167791091473959
Ni 3.274459711740925 8.348405104190421 12.387793357532756 0.9937743092597917 -0.49706906017855684 0.4187815400205626
Ni 4.149081250950216 9.128837756203835 3.853652373516249 -2.701943258729624 -1.5451823492005452 -0.0869469956052051
Ni 5.133847221843983 0.4229818499264524 11.385118064709575 -0.2593176081925534 -0.9101568922484519 0.10745180042677624
Ni 8.122843417700093 4.615611867921585 8.530837473516721 0.8866176714759311 0.48910044015078347 0.06860474565259153
Ni 0.39733874947429854 5.839994294734929 10.411493559932934 0.4001927212747818 1.0254472148830402 -0.1910522481572516
Ni 1.5528327017327388 6.695809126866592 1.4755579710626066 1.0804947906764877 -0.5184416123170619 0.08339861613231443
Ni 3.045763574070991 4.47618818964978 8.720466286877826 1.2004552650932356 -0.026991183876863195 -0.41536068726447173
P 7.1221950090507775 7.280845758115259 2.8401307830106384 -0.907997422703288 -0.7594799625844533 -0.1760228646279549
Ni 0.4732875067737 2.36698583436639 2.0061127233384313 -0.7204591012365656 -0.8766885852876772 -0.5883316524399803
P 9.129075353086256 7.073761798403824 8.50137180476011 -0.4811382478809133 0.7587027180987966 0.9497436534021384
Ni 1.3763073564370418 7.864456808069414 6.936604428856632 -0.9026940082125035 -1.315924793618166 0.8567838759439502
P 1.633761855221308 4.539078256757767 0.7904007550650547 -0.4271314546471547 -1.0366744510574273 0.3227503227259022
P 7.126444337909425 4.510520939159328 12.438724990781763 -1.524286736698459 0.46667527837804784 -0.11119969750498268
P 7.062000752724083 -0.42429685728722527 12.347708935800341 0.7803200392582561 1.3760983777842686 -0.8237711684633555
Ni 3.744334961749423 4.005554457285867 11.133549571770159 0.5102009695748245 1.5514167601460314 0.8643166939858856
Ni 7.951353298643353 0.5767179988615132 0.9331334268416258 2.616697819196558 -0.5165816762901878 -1.630199217662573
Ni 7.944600064177673 9.159999501167253 8.097089743314198 0.989817638604889 -0.25491793646296096 -0.5486322769678293
Ni 2.6640915974897372 2.5251705280076653 1.0508032828596432 0.9252186716775809 2.30467285330796 -0.010665964354278405
Ni 1.7274938253356098 0.7365348003181745 8.576031142055307 -0.5192556235779251 0.7313204694311018 0.3940992067825342
Ni 3.813521346241514 5.013476985873857 1.7621546413097284 0.5877477549120523 -0.9537476323552089 -0.33509804565797774
Ni 1.436629549546577 3.0262806297126317 11.980394207756339 -0.5205949112146389 0.40563189001248207 0.9456250032480747
Ni 8.974756177955104 8.49735093444225 10.446856200544351 1.937620880451205 -1.706408258024984 -0.4397972230402813
Ni 7.100820427974697 2.1923886791549396 2.3450857986464984 0.5877343851756136 1.9719358516829912 -0.283168446668222
Ni 7.0646782868221125 6.745759302224373 9.297191596412645 0.5696294480447868 1.1452081716944729 -1.4012013434994837
Ni 5.812643238231847 4.66674088934983 8.248599792227825 -1.4155249592110073 0.8928220005144301 -1.7369043697313118
Ni 6.345481662081384 8.30418466903559 5.290208816329774 -1.019127957533232 -0.8606580141873759 -0.6070395132621288
Ni 5.899484898755998 1.1362888134856786 4.072211348814359 1.591643211766246 2.113046477814793 0.6142841106396839
Ni 5.811044028446335 8.229012670774866 7.551220044298141 -0.11742613803066873 -1.3130371876577256 0.34833819849733555
Ni 2.2549589043058242 1.4509493308831387 3.1389518128582186 1.9898613258131603 0.5372541170378746 1.2590640758753802
Ni 5.354565587269617 1.2206631217693236 6.409901487578484 1.0910527686979918 0.027021008673534106 0.5727898480506393
Ni 4.933260623032545 5.683326565804482 12.649405801759356 0.23549068097628476 -0.4443509038492347 0.5544622533860452
Ni 1.9661142020173534 4.22937072052458 3.01857792155144 -1.5835090126948859 -0.17327486956917257 -1.1947520440608717
Ni 1.331456375709637 0.7926323380914672 6.101770315276731 -0.928830300288239 1.8253495471485983 -0.2136051937571031
Ni 6.775440635843488 2.7649697507598723 9.084223458524686 1.420371231559715 -1.4220141664797767 0.17461569986778314
Ni 5.5694536907343535 5.845276256197936 6.106758935973367 0.07395572555185972 0.30932196513513827 -0.21035223403744419
Ni 6.457234441893005 3.5144965313755514 4.66331492507218 -0.1732581573986242 -0.03307055730172369 -0.4818599565382862
Ni 9.040853802975748 5.718737639626547 13.218855163687174 1.0650064652329014 -4.1913624941269365 -1.4145080879107186
Ni 7.708529284811118 1.2754383415085382 5.69284689011618 0.39690993675845193 0.4502546709281794 0.013908382550976046
Ni 7.56299205598784 6.662088646246353 11.60957583953082 -0.1860216277118796 0.11846846325225405 0.5630433101868367
P 5.870251343876826 4.008259406408792 2.4312868614222807 -1.1230511759814594 0.17608071444908385 0.255369936398715
Ni 0.9000197321057202 8.938202811429102 2.123985450540668 0.1501735076650188 -0.64914698395514 -0.2966184015255407
P 3.2942350830314924 -0.09853599630998147 1.202061113544241 -1.934657426947507 2.766947431515151 0.3441100193486009
Ni 1.07229300704028 7.523724601997282 12.47145304750082 -1.8629359900428044 2.3509637659546994 -0.8218641812486298
P 3.8827716991250254 1.8940766549362342 4.9071386734789 -0.35924507521782645 1.1623543444564564 -0.21873274479165555
P 2.688692013161737 2.358688220164987 10.358729689186813 -0.8066491640710881 -1.604701844722417 -0.9420745668926549
P 1.5907294044785718 3.356330114417539 7.2814086799597595 0.0953897270559196 -0.5205877121257874 0.11996844483654823
Ni 8.42433558480656 1.4129521063793593 12.010340553282767 0.095096621295533 -1.724809643350307 -0.18570255380956407
Ni 8.408425732026117 3.7198716212018956 10.934264272807045 -1.2901065470034812 0.5749050946214292 0.6520525876377093
Ni 8.854404218668241 2.26510246351679 7.549280888203937 0.05171722586863351 -0.2057327329875618 0.061163715993514015
Ni 8.882970674608313 3.055367971125698 4.172884803231948 0.3908007385369205 -0.6988968016847577 -0.5955173715551422
Ni 1.816400751068479 8.402440118257486 4.38202763131296 0.2907030644823703 -0.9725573088625443 0.4285411905104878
Ni 2.0880105410399397 7.825755931260009 9.558362658738442 -2.3707982841821233 -2.644072097444453 -0.0038792804497481573
Ni 7.733275913949222 6.592363099598004 6.783154310014638 0.7421183313775541 0.2285358469250064 1.1185879980037832
Ni 1.1150878609005974 3.744700495414683 9.632980873496296 0.4774518001682616 -0.07565805295494711 -0.9625683159706325
Ni 4.499692004325999 2.73328712032346 9.206362877434671 -0.22522349472232178 -1.0621988205807773 -0.2712009898937007
Ni -0.062133412420898856 6.5898957473575 3.3111401012156056 1.5144268131852436 0.5290121887440566 -0.5701192431970117
Ni 0.9605585039119222 6.119070109819325 5.367074149294815 0.056397147842806104 -0.07969339936658533 -0.6722216063864165
Ni 8.599800882473003 8.222140637867978 5.223455058379988 1.4902013649789756 -0.27067982728290807 -0.13087892110146493
Ni 6.838513469784104 5.438656606962685 1.053797917412286 -1.4070223210566348 -1.1774289794013915 0.3338443757565347
Ni 5.238298466692035 6.540932512895918 3.63717968161261 0.09506499672664918 -0.31558774353919194 -0.4865779308392459
Ni 3.272449276581995 5.760691766056767 6.273517221733317 -1.2958136246905876 -0.04321741592773847 -0.183005209483059
Ni 4.038854574191056 7.199834359552006 1.0978428964077924 -0.3844457428531702 -2.443504710707914 -0.2971629611751011
Ni 5.975643837912923 2.6615054468080226 11.427623233140174 0.40081081447475486 0.6803676325323186 -0.06438479403397299
Ni 4.839163119252984 3.4584693588328212 0.04151914136855981 0.4307127442405098 -0.1724688287281094 0.7854853855092795
Ni 8.969565599908412 4.1736725282805835 6.104271479381274 -0.7979719480120644 0.4359750210807137 0.5550026992705474
Ni 3.581800417491553 1.7268815564462991 12.266536702424375 -0.0755850336251666 0.731874799272675 0.7027328876013962
Ni 7.712413080004506 9.28044284387043 3.0648014811918967 0.42580733651909247 -0.9248222075701105 1.6146296453590903
Ni 2.7112819936748065 6.381587249867443 3.57122827005807 0.6324003606244205 0.2965610659250441 0.6007423673995073
Ni 6.245078702576087 7.397185985425893 13.675152665699587 -0.7918977167935265 1.0196110678172374 -0.23821759298914455
Ni 3.2366818074363013 1.8752333944920798 7.117953904699598 -1.9720510371046167 -1.1982749696124653 0.5866414092217509
Ni 3.518791551942357 8.65185287640603 7.17034401727299 -0.32144754475407866 -0.4538099923796055 -1.0866739229040059
P 5.689385286306168 0.8640603577857654 8.692418888742425 -0.16204146274719833 0.20385094258381664 0.10865636225783869
Ni 8.51713544407445 3.1299825305469007 0.0099708445541303 -0.12566575233164162 0.6445274829052577 1.157990925281438
P 0.37422331431741773 0.8872461581732086 4.016893311582233 -0.5980496510586926 0.7282207474598555 0.9472124023398526
Ni 5.223439523199215 7.116638897338825 10.943372457911162 -1.2006339567629452 2.342751662457552 -0.7091753007926302
P 3.1474550397463297 6.1441000275480055 10.483717529183336 0.5291677404853145 -0.3652501437613258 0.24488420637604275
P 4.007318157220747 7.545802835378987 5.257721097995626 -0.1044513230375556 -0.7741285657355635 0.5164698333026718
P 6.85304343297819 3.4587160940568715 6.775945072301545 0.7050923889725083 -0.3757962947082883 0.37549393297652106
Ni 2.5150269687966995 5.944801934906608 12.742495346456963 1.4164778100425799 -1.7730479095314047 -0.7987358227612824
