# total energy = -381173.7458065367 ev
CRYSTAL
PRIMVEC
9.18693578800779 0.00000000000000 0.00000000000000
0.00000000000000 9.18693578800779 0.00000000000000
0.00000000000000 0.00000000000000 13.44600915544640
PRIMCOORD
 96 1
Ni 3.20346620045144 0.5522717374160973 4.6233696264817965 0.2563040181772102 0.08095786790130574 -0.7078059312489294
Ni 7.528289805955684 0.35908609166259986 4.9581755650572745 -0.720843481159178 0.2896746232178559 1.2420534002499966
Ni 7.426434246805918 7.316227762855292 6.235990164530948 -0.1917184209863408 -1.1213807302575718 0.6115425433388049
Ni 0.3184678916383498 5.70427878982588 7.061548442462589 -0.8394638966082638 0.5232868562245052 0.040205882794924305
Ni 5.538445408549391 4.031126449334057 6.243089828652076 -0.07616815982214624 0.24323124415365208 0.17033944108993243
Ni 2.5912947217877207 3.281582717042985 1.2966175013327719 -1.1019167079956893 -0.6359281712720208 1.1716987617858337
Ni 9.32106523977204 0.6705820175898685 9.358422996218925 0.009055425334048921 -0.44548244635051665 -0.7521451194859369
Ni 8.452706864522195 4.0259817651883125 11.935968549627143 1.2982991101166028 0.5072051201712943 0.5571125465246987
Ni 3.3683900750664484 5.528890995135866 2.0757009075563913 0.15838304005900464 -0.29969729756118063 -1.266849890468386
Ni 2.7560440446192125 0.7788270907099297 0.3480645245739398 0.37246645900410696 -0.4232652868235291 -0.6762142724855773
Ni 8.31106268566668 2.0458847068510098 10.959344889998093 -1.1172386830647403 -1.1743703950807258 -0.03516703481943621
Ni 7.343834505458796 4.672172467765767 7.360654866534588 0.6698248240194657 0.16464033382262616 2.2467656965785308
Ni 1.3274938744496159 2.606563409377412 10.246410178871981 -0.1385418369633614 0.7709617379718077 -0.7366547371598215
Ni 5.495110631557469 2.1988655646991115 4.516299562472879 -0.15828096726350158 -1.1000187196420284 0.855236071840856
Ni 5.879051059805598 0.24761824140266878 3.2475873791627836 -0.3154352771217277 -1.0625248364616282 -0.5540966425165103
Ni 6.41770867680102 4.306716154698419 1.4485786092876993 -0.9232535775314099 1.2148004780713144 -1.8409204050036618
Ni 5.710847449047678 7.194013953585937 11.45653819016601 -0.16260607700141674 -0.8466591288051226 -0.8317073925912967
Ni 7.699773152856517 0.5501964085794477 0.5408202217238285 0.901725473651647 0.7325031768852932 -0.3358012423725894
Ni 4.605144582895496 -0.12042970630309849 10.121927196416914 0.3201267690601261 0.09035859238991535 -1.2123198777413056
Ni 0.7779809739066742 1.5852149893434906 1.2586515697243728 -0.10422763706252372 1.0960250251016026 -0.44322553199553993
Ni 3.6262030593200683 2.837173876210408 11.240124295494475 -0.12637640524542107 -2.2335201444225343 -0.002696058774924389
Ni 6.041751695914767 5.896065265230454 9.151959471901419 -0.3588779216863948 -1.4711106668961116 -0.5361876234465733
Ni 4.877665851644362 4.732797058261781 11.15839915045213 0.12102156869141095 1.524279537609607 -1.039776487021519
Ni 1.8763765511847041 2.56432187776646 3.673476275764278 0.0035612349886970924 -1.2426282989168598 -1.2224978467155723
P 8.581480146077375 9.174377433066502 11.822269192618995 0.057488066914139706 -0.8605554271712405 0.11677847714434082
Ni 7.9593775896251735 4.76421637929472 5.168833844340757 -0.3630598209782263 -0.6373124532140572 -0.9189240969181207
P 2.5165773715067568 7.294372042171853 0.6163478597577472 0.5117611149730928 0.20095588042420875 -0.08060125589283539
Ni 8.290401266659932 5.639501704269372 0.35802132578315027 -0.8649461000397685 -0.6408934856970963 0.044894546519845265
P 2.8293006720802243 8.306992873029957 8.87230914083631 -0.7773902672059708 0.4402034573397645 0.38488694415564684
P 6.54213653764024 4.965768567640235 12.472639032371271 -0.13597407623618518 1.4915319108649407 0.5494257194034022
P 4.968258227289336 3.0853956993066043 9.603973258333724 -0.775942993236483 -1.0693202621169067 -1.7266081300116265
Ni 0.5260797829526731 7.60116976904174 9.757365690913485 -0.14462146749853802 -0.5226510224127192 -0.22464602495229696
Ni 2.111681542300692 6.201429830088313 8.457177227567408 0.13461242000196819 0.5232542032143569 0.6909816606027389
Ni 0.15851139330477704 4.1811399268623815 2.386572121837391 0.2585028256007419 -1.2518647299134633 -0.822846599766557
Ni 8.007259899924495 6.392095499303992 11.344976633159137 -0.4042566069315103 0.8411639100185062 -0.23508341823553708
Ni 3.1826853512770223 1.7427250066270423 8.575152184578108 0.7342067898399615 1.0181905333206271 0.6633818966075995
Ni 3.953524401157086 6.73369333964545 9.931922067897805 -0.36747569065773483 -0.20204242862016816 0.27190598638052527
Ni 2.3834954169795166 4.666752175540786 10.361764103049143 0.03208068258462862 0.7862004092984332 -0.9294908166903734
Ni 3.665366967379548 1.2444439732397408 2.364171615850661 0.1414772654426015 0.5908665030466921 0.9790467732416299
Ni 0.2486646334101693 7.615152285594995 0.5135166480074846 -0.5698562193436122 1.9284083607140015 -0.27141104902197777
Ni 5.319658528315633 1.6068134758196426 7.007629396534394 -0.16715255872151857 -0.14827551931135757 0.05955600518676195
Ni 2.9971000576552647 5.930314162543553 12.262102020642654 -0.4385918898782704 -0.011156787947767883 -0.45008754922269584
Ni 4.069601337195446 6.427621380717553 4.226497667155898 0.4267095366183877 -0.16045869164111076 1.6683037378437784
Ni 4.289012929075473 3.9668270844482256 -0.18715258489901448 0.21387001738271552 -0.3239533418950679 1.1638041895291054
Ni 8.824731836811344 7.676291344505584 4.22710308623662 0.029598282482407094 0.7990512971191722 1.0783659172589428
Ni 3.952761885471199 3.8273510224827025 4.653569841110913 -2.2099112467543427 0.8829710758622794 -2.088972981805357
Ni 6.6980388411282465 7.997273700520165 9.467174269511185 0.6725715335266675 2.276977958495853 0.547276020050251
Ni 6.841731706706085 3.7795881423510505 10.095048977836191 1.308926765033778 0.10036455456269167 -0.2713717111436101
Ni 3.1305311157495375 2.665047443791357 6.354234298765703 2.2222160322636246 -1.6381169298477531 1.1528754584317435
Ni 1.1563136964359433 -0.1800593516330693 2.714749686107236 1.099950585408254 3.2046561474575195 0.6695864827564145
Ni 7.142686542296162 3.006094067974343 3.1777225684635733 0.7869915377411607 0.8068630798541071 1.2227652414443457
Ni 1.464039303839259 3.764172463785766 7.835137142279834 0.9359473709489945 1.4554575337398867 2.798829110715096
Ni 6.30757568833819 0.4926172873589952 11.539903203279811 1.4009995119013225 -0.5666138011469146 0.8739760714525208
Ni 6.583073524342806 7.08515794922357 4.081240266381595 -1.6955083232830281 1.5695785186567226 1.1785330110988477
Ni 0.9077923792269766 6.977340068626324 2.5529934670162504 1.2971775949176498 -4.677599239576679 -0.27614085039747926
Ni 1.8582691003788785 3.4078571520130883 12.5736052961187 -0.8163897883976198 1.0953786497668554 -0.3887716239220337
P 8.800248652439183 2.740178206191176 8.766354370854701 -1.010680083876195 0.30378946535268325 -0.4919782759192108
Ni 1.9794907205629824 7.412038318133809 5.180653756165604 0.6625033506573881 1.1775269384318365 -1.1168494180461217
P 4.874239124525856 6.254741619548589 6.501266615570287 -0.33481213898644274 -1.0166630409325073 -1.0003478487122515
Ni 5.917415704435293 1.975613833581725 1.3687496478304995 -1.4654483264040117 -1.4660098553344365 0.2678760392855257
P 0.5854834296576701 5.818490777861407 4.941435130324461 -0.2940277579802291 0.454950790852268 0.002230174882099385
P 4.410997064945464 3.3501172594130812 2.283414773860032 1.0917492805443842 0.6547923551663756 1.1252427843161397
P 0.7642400737695492 5.575937294261504 11.62492186486903 1.7278402026465145 -0.022381195908677584 0.29161477766336225
Ni 6.563560472332876 1.302891259909788 9.215141705372748 -0.11456192910899624 0.9521193527231668 -0.3571375419565205
Ni 1.0736588334729735 1.336111220393738 12.269093278919279 -0.8466835542851548 -1.213366573838265 0.4054362290619081
Ni 1.9282735525049013 4.9436096780696355 3.682122101209921 0.885145972026411 -0.03954408084120931 0.3925660579674594
Ni 3.879514444946162 8.356152167429741 12.3181313057642 -0.42182546905320906 0.12121620120072026 0.016375356034229863
Ni 5.417545331124396 6.457671848290285 2.222087382761966 1.0977299236078515 1.4399789784883135 0.23627641010237374
Ni 0.8513763241009014 0.6685360869483375 4.998351873461149 -0.3444141808525811 0.3542476220032351 -0.45191714623226686
Ni 7.680214166166714 0.018567716298150277 7.443132421633249 -0.30958164655442816 -0.011323395432619208 0.9540829042074408
Ni 1.4864829884250692 7.821950214381974 12.020074029780494 -0.4826150895367559 0.557775376919678 -0.7293844287506536
Ni 4.866935510426094 6.386473094487571 0.07325295268662167 0.4059468501497395 -0.7496629764940315 -0.306396306847911
Ni 8.260874454437749 1.119391400754252 2.8716239674213493 0.9659014941089236 -1.8148499331688552 -0.02098174445798967
Ni 4.81195169861845 7.954297214031251 7.72685715880307 0.44381560017105504 0.054911307325898974 1.6259214162228255
Ni 2.5448363865644525 0.6927344763052856 10.579495404339427 -0.7749032391180589 -1.545413748485061 0.280141229806124
Ni 4.881542738625618 8.669178636890368 1.0198922906819565 0.9636579494903856 1.0530420937821734 -0.16102793388101946
Ni 1.4997672978442596 5.226677549317277 0.5684058343745909 -0.8236716667710137 0.9511479899488329 0.19255917172008127
Ni 7.7752897665672664 2.1862427146700885 6.682357660113298 -0.46795465931110375 0.9648200881192868 0.7693895083886815
Ni 3.336153116731775 7.991531865536076 2.5733103759239535 -0.39802296731697256 -0.14596435467967764 0.36062010118848215
Ni 2.584478015294609 5.419685887206464 6.343786915175452 1.423276321021652 -0.6384493950319778 -1.2525931234390557
Ni 0.9746971591551886 1.7538503860922146 7.1101289598959765 -0.6567595061950754 -2.689194186594072 1.3178294668400465
Ni 1.2818715504000318 3.3969981936911777 5.673960063722691 -3.056068753332698 2.377837964637724 -2.795827861994927
Ni 0.6843054625486419 8.386900842136539 6.844771663820061 -0.7491145601897292 -0.3576512483681453 1.1641618299788403
Ni 5.877562776177722 4.754230179890392 3.8110699345486165 -0.8529174510100086 0.20586025970436161 0.47533449671494266
Ni 5.132070482651425 8.777207817015027 5.642348735727882 0.6919129141677567 -0.27310360623305224 -1.3623033808827054
Ni 6.546684070947639 2.8315882191378856 12.72968674485821 0.0633093015816071 -0.8368753099454812 -0.32513347824609806
Ni 7.757173128825466 5.743571314989003 2.7686136104195835 1.0296545680961686 0.5366169976745081 -0.38568578590785835
Ni 2.932626140985917 9.279172811728122 6.934765969933094 -0.18060765578515994 0.06976508450927986 -0.46709771062744715
P 4.649407240420848 1.288394274941958 12.662645079583978 -0.10170152820656034 0.3830241799152952 0.522186938292107
Ni 6.872912167403685 7.781068349295254 13.355490717814558 0.5214793707021212 -1.1996548806791276 0.35979683395623846
P 8.573772306794732 2.548309048362831 4.727455773686181 0.8542171436580385 -0.683667643439829 -0.2125009049493308
Ni -0.08887166253694342 4.9116115800703 9.534578818756412 0.14378251653701044 -0.09246201188616333 -0.3009183144524753
P 7.82786660114958 7.908050178335397 2.156054443057738 -0.3333777205327613 0.508112462476912 -0.2032192225370887
P 8.089409481408865 2.745874106495393 1.216347566948794 -0.14127569095475667 -0.38645197464992154 -0.8607855409041756
P 8.041848713868653 6.727391101566913 8.475691659636906 0.5451854560698094 -0.5175314417979668 -0.8899652477919254
Ni 3.9545808987941586 4.392127098453751 8.095088845228329 0.33408837344654074 0.09608726734357645 0.8013064117019361
