# total energy = -381167.1940332063 ev
CRYSTAL
PRIMVEC
9.30166548567513 0.00000000000000 0.00000000000000

0.00000000000000 9.30166548567513 0.00000000000000

0.00000000000000 0.00000000000000 13.61392766504349

PRIMCOORD
 96 1
Ni 3.302770202198821 1.1196786585279106 8.733947457784224 0.14511151976107914 1.5932321535199208 0.7042277269793679
Ni 7.630816461820664 7.494695891856241 7.561773920983031 -0.9244290858967499 0.5744456384865074 -0.09783278927977346
Ni 3.9852054800845536 2.924834239493855 10.317737357166301 0.4951546167646633 -0.7012599026002956 1.0903400589016834
Ni 2.4403570024706918 8.105099073677707 4.508075340623376 1.0464454144012623 1.3748814746580322 -1.1400155717499398
Ni 1.752480250385889 6.2085639328285795 5.235194888432034 -1.1937955936848732 -2.3081870371088056 1.4058480982428756
Ni 6.996833558469897 8.680816345604589 2.3947714011804337 0.7016697364442044 0.2101437175710639 1.3153100428523024
Ni 4.20071576336361 3.3602451920724143 13.260305221549944 -0.9500601562012927 -0.07813119708578802 0.7462755480790374
Ni 5.613982883678256 5.322998888174836 5.5936494433378 0.05030826133624885 -1.5779680282719986 1.2081747452246805
Ni 1.6982329383705472 4.6172908437146205 0.37785038738422816 -0.8126724874470327 0.3009928764441526 -1.2725561968245438
Ni 0.16979166817504301 1.9935143032414373 1.3231116595846217 0.8860659127375191 0.1514400330822682 -1.1345926009621556
Ni 6.043384960474595 4.523037069254493 8.79879029674001 0.6591382908398971 1.812080083733202 -0.7942962989326902
Ni 2.320756190074727 1.016448777055643 4.683013620207555 0.08025672806922307 0.8505888028768319 0.38166149523981363
Ni 3.242067534466975 4.244387081935632 1.7939619569468663 0.718454412101711 0.5974917216726936 1.467090489993125
Ni 4.247791491434537 8.271487262520374 8.641699122362251 0.06794757168456685 0.3357382503451379 1.0182756368352657
Ni 7.53913924864796 1.674857853477791 2.603023595027808 -0.03662639297378208 1.019379925643038 -0.41345061472595246
Ni 3.629472592444852 8.254279181719898 0.12049656276411944 1.3032718807408457 1.7017399060150369 -1.8770950551520058
Ni 3.264614771148249 6.000429870130485 3.54231691877329 0.9282826553148853 0.28997055719171994 -0.5176831368844826
Ni 5.428284437677864 3.1804998118624574 1.5008943884167942 1.3607715176192112 -1.40503691519549 1.4520582782503508
Ni 0.29007336247078896 6.483176997408303 7.647242272569616 1.1517557430050036 -0.6723373060286744 0.8536746408910073
Ni 5.365209845295142 6.707719197691285 7.528120495936476 0.6692488969113377 -1.704965612041186 0.8690490664645484
Ni 8.00700371144969 2.604122121699449 7.14208371292387 -0.13130289601276096 -0.024971839453989248 0.771618140608884
Ni 1.967423132081795 6.7930247701351645 12.467743807540337 -1.4026550452268747 0.12306302460147192 0.7182955179263436
Ni 3.2164879548986987 4.886639165735927 11.705962534166868 1.9055833923996859 1.6177545641413171 0.16728265654147964
Ni 3.9947396870145475 5.747750132322397 9.516489117935306 -0.029164794489414288 1.4601575103187177 -0.7985787283581279
P 5.432898063665451 1.3989332540911132 3.0359333298078544 -0.2895869486000561 0.8332981341171842 -1.345749333178766
Ni 6.517351315711521 0.5655663645876601 8.363049135043388 -0.3393488505145317 0.07899483063766395 -1.2064173962139417
P 5.785580005087555 2.6470679103782615 7.6415515137405725 1.6180224730907231 -0.942012603306468 0.31360130923678253
Ni 3.0299337556909314 2.10635280496608 2.5294269588604914 1.0566899749474061 -0.5417604895486605 0.6624419012918333
P 8.055307259339893 6.149870424801007 4.811965396727153 -0.22548831834793423 1.4659208951650562 -2.508790162179286
P 7.3266427049253116 2.383998212432805 0.09359614672358978 -1.7886699323393775 -1.330532773339328 1.3690108748098682
P 1.7972863721242125 6.690557625217296 10.064327438632356 0.43650261144940955 -0.9118224528763329 0.2470403334870971
Ni 4.450223633305231 7.386554731106864 5.541916371452388 -1.6884994960653628 -0.4493370442099165 -1.3699812091429373
Ni 5.335304991363502 6.326425333813902 12.316479196304964 2.486454217686247 0.3076705455746443 -2.1605928601351883
Ni 0.899005951008711 2.2121499460604723 8.711034665656756 0.18471704996784316 0.6732690738143244 0.11601768771891631
Ni 8.937449291164137 5.547699216767877 13.29692680799295 -0.655353112765852 0.3776518598597883 -0.30004748181174773
Ni 5.948135907827629 5.380297146407777 1.7678233472942062 -0.12749072135552236 -3.693239795872884 1.19999940850274
Ni 7.358612528553008 4.125855961048885 3.7815538898933503 -0.41952381750322587 0.582330697661539 0.7093465362631719
Ni 1.048111645728521 4.751169712342333 11.50792077831662 -2.5700127564351933 -0.03478882554441105 -0.8804902184219545
Ni 4.021919153014005 0.9167302742332024 12.259926931628888 -1.888170082019245 -0.2387768079267243 0.5220496413832945
Ni 8.00928261944759 6.309449794645864 2.3563118056746317 -0.931783469379292 1.698488746067591 -0.6928693645437551
Ni 0.3225891938514527 7.541492569968242 3.590700460985053 0.3475355000903821 -0.5481687070678495 0.20607571814927733
Ni 0.6391239337607266 8.271412849197993 6.307904788039941 0.16609069311590752 1.1046999271677813 -1.2133087240171363
Ni 6.370896595601513 4.302029501784582 13.077865148903285 0.8016545390699742 0.46425818429612303 0.4149264279405306
Ni 0.31116488853299534 5.048990431839455 3.269193980974235 1.4241245279545605 -0.7074683454038526 0.7796363829276702
Ni 6.412744787775215 7.0033819308393745 9.877476516301597 -0.8690138423512388 -0.09945849780865453 0.0531012507003537
Ni 7.315899281506635 8.675737636352123 5.176042808305292 1.2062333052275938 -0.9678249363838815 -0.3032762731616906
Ni 0.9039423447821234 4.3392268613095055 7.0427428577125095 1.2768648515022267 0.17901614292832396 0.9244236865801111
Ni 0.4919064770963204 0.20695461153836536 10.400209642360545 -0.6301822699271792 0.6446400972237221 -1.2944540253388999
Ni 0.46889508731669854 7.669818344413313 0.8928956870747469 0.8943358660557953 -2.194224946367337 0.3672491764692256
Ni 8.783357903844838 6.950241516994442 10.052387821056413 1.1207916905233215 -0.3574771846841263 -0.6502487016597511
Ni 8.432210737196831 0.019262818664707082 0.482902465088287 -1.5132651887769744 2.580051371618118 -0.07378166186784067
Ni 8.857622399580519 8.082663456980004 12.161144176335382 0.4551235689847065 -0.33480108324284924 -1.2324143344983358
Ni 2.349656464154231 2.914704725984817 12.156924010789881 -2.6146656192578774 -2.620007086075449 0.07346387351710573
Ni 3.345278812608648 0.22965253519745957 6.696336749866667 0.3626777550484592 -1.507143649260269 -1.2188347960416879
Ni -0.23931417494203017 3.1023007117059107 12.994085049568206 1.8138135214845408 1.0111529097475553 -2.1303718564671184
Ni 3.765016459160827 7.610045843211224 11.353797765335308 -0.24701102291105848 1.3471672965722155 -1.847277200459625
P 2.9900482148950145 1.367800580340196 0.5697260693087268 0.6649440988883967 0.7298377142379883 -2.3356093949858163
Ni 0.7602009204394137 2.1806079990364626 3.4191926355626108 -0.6186264467687798 -1.4990027653206894 -0.9254634406985353
P 7.766258010218365 7.280943623318423 0.12294569123696572 -2.475634244252607 -0.36835500793889464 1.1854189395854036
Ni 5.65886341873896 7.285185182694108 1.2660105966559898 1.113392569845773 1.977496890710536 -3.3633310077253302
P 9.424633312788888 2.6315248276660466 10.650148179405441 -0.7823962050609945 0.6971808474349155 0.8659105208355669
P 2.807716971732337 0.19752272292664436 10.544258951824602 -0.11345892585280459 -0.20198355035777474 0.4835818243253994
P 5.604550995066535 8.664538431333867 6.641663421580697 1.0459340219824824 1.1845126257210503 1.7989170639886825
Ni 2.9188067603810395 6.666540725419009 7.353521727135656 -0.371482754934599 -1.0388156657701464 -0.33020832166584424
Ni 6.756785482135889 2.635347812103342 9.793559682486643 0.6207270380515504 -1.2764943555366854 0.3837014084879779
Ni 1.7834361924961528 8.433271127040753 8.509058305385643 -0.25347966135453764 -0.28217522951701723 0.7658251880761908
Ni 4.876174792276177 4.079682494511822 3.708760917607743 -0.13289903685528726 -0.2573175470433891 -0.3932522854012066
Ni 8.116921490270899 4.195460322470492 1.5840075583500395 0.04735766334835714 -1.8595552464960297 -1.3814814964730529
Ni 5.164582226492173 0.3873632004840379 4.783226041457297 -2.002433506051216 -0.49835692575204493 0.4135195202906749
Ni 1.8436272686366326 0.0157281858516361 1.5605785237985574 -0.6906965252621524 0.592190106954122 1.4773245090163074
Ni 5.864253490174277 8.634968437352939 12.566730269303859 1.169746266045153 -1.0314353141456754 -0.5739033928297923
Ni 7.781698774612307 1.067514919539221 11.66102339861479 0.6430177311289506 0.5743656771781915 0.2978386470858871
Ni 0.3434314352836847 3.293877810174358 5.163626945466115 -1.8559621298281328 0.1850898599262296 1.2323153470266262
Ni 5.683847691728193 0.8213389061071844 0.6320211821395135 -0.057374681264726994 0.6901995310210758 1.0921753123382092
Ni 4.454809354296926 8.533896542229705 2.452439865692216 -1.5647615568840536 2.01615805472616 2.2169452707829884
Ni 4.103671489314217 5.786454361625524 0.25062034911120856 -2.130770377457117 -0.8622986351145923 1.783454192466393
Ni 5.891935246099801 6.632961713694834 3.872386511857036 0.9532442103562292 0.7490636523471358 -1.4586035355680365
Ni 6.972509703716789 1.9190544725345078 4.991968433065852 0.4225363790773045 0.5870844102964405 -0.1360920898712882
Ni 1.522617497552705 0.3210906955720165 12.402669357118642 0.8769909470194445 6.453468934827596e-05 1.8965745040328563
Ni 8.72612475726898 4.500247989275483 8.870427072029132 0.00017252102212228352 -0.32821211717142185 0.17709167221210145
Ni 2.6411427495837185 7.1454648682595305 1.5641317599422235 -1.2058666659167943 -2.8692567685090387 2.147354507068044
Ni 2.3356109495549227 2.4081825422064487 6.83348329351341 -0.3815056863882397 -0.6078275563810629 -1.1508296316463082
Ni 7.801009031770032 4.588009201357917 11.04231103918302 -0.4904646674881618 0.04857353803332925 0.4112659483698079
Ni 2.1433455278544566 4.3776334373231105 9.405698842909187 -1.6583862216197502 0.17285218020945714 -0.3741032232765815
Ni 8.002724945412814 4.876928227165279 6.3325458295796935 -0.5665238125362695 -0.3758042651280883 1.7765317543149468
Ni 8.948229921244003 0.3221055072559798 8.044197350308494 -0.6154382788487853 -0.8931066216343845 0.24523207663376473
Ni 2.342419768552733 3.873464574865023 4.1133396402244955 1.0934996875765877 0.11983089081741945 0.7138991886308609
Ni 5.320561851866877 0.31101606188823444 10.410938183114745 0.34056806763361347 0.18305868842881376 -0.2981636345254736
P 0.41843820391011033 1.365707705648246 6.310545530817916 0.612458627395171 -0.0038186024151418106 -0.02884443503551807
Ni 3.897472172998013 3.5011189130038876 8.117780964144394 -0.04046376444200128 0.8684134897630786 -0.26950406180725195
P 8.875090927009326 0.16865965550833056 3.683574798481552 -0.665232576663093 1.6167130102506804 -0.44343739089602985
Ni 5.733937159355529 2.254528333156134 12.009226588196121 1.929729136407954 0.32412174915213215 -0.48502344186793245
P 5.231479803312191 4.657148479514644 10.842648933237937 2.2430748779905048 -0.40519968757106994 0.8156786212632081
P 3.1077142809090876 4.483402673421611 6.263549797068547 -0.5564026649418675 0.865811019143225 -0.6553397430294133
P 7.570904435639111 8.900735618234686 10.110913899108631 -0.051005544513589574 -0.5711014046046229 -0.3077733897010958
Ni 4.674617006943453 2.9292525305101935 5.845915257040146 -0.038455732873036996 -0.3625090906810789 -0.9221510884958505
