# total energy = -340889.8133651584 ev
CRYSTAL
PRIMVEC
9.07798614546305 0.00000000000000 0.00000000000000
0.00000000000000 9.07798614546305 0.00000000000000
0.00000000000000 0.00000000000000 13.28655034078671
PRIMCOORD
 96 1
Ni 6.469390642567256 2.145563911941533 11.616484520430642 0.07192044028938582 -0.6538662438076803 -0.278139883105379
Ni 4.689488019796797 0.5706540217718377 6.133775672534674 -0.2337508154670426 -1.7738120413909386 -0.7997274972505904
Ni 2.550950469270815 1.5577098294797145 4.795009625039985 0.6063265463555041 -0.23275759831583784 0.9109505917943407
Ni 3.453120750249497 4.453832572786075 4.856712698091023 -0.6996498778006983 -1.3198333846439527 0.8001676701118026
Ni 4.897855039914564 4.651787142589065 2.5005286098258575 0.4534281835601546 -1.404286924403343 0.33517723563534535
Ni 7.20606015485483 6.116565626059735 2.759537176657647 0.15789658734088935 -1.2001852992613007 0.25830305088511
Ni 5.410062262330142 4.514700471095211 11.73695393795658 0.17648309209382507 -0.954039195453699 -1.1325169493800495
Ni 5.582516768546202 7.930211124000226 12.70732349900047 0.05363655437853342 -0.6455752074434817 -0.01565930380381174
Ni 1.9848926319753257 6.525755859659193 0.23664585531878027 -1.6066188592394717 -0.908501616033216 -0.24207579039297017
Ni 2.844823042583774 1.5390182556365355 0.35323080249624883 0.4768954134441593 -0.09323000040043944 -0.29593191698147747
Ni 0.6551800602425623 9.036154964016225 4.539496082943322 0.20595693318322597 -0.39328313863914205 0.2318266018611362
Ni 8.733295184241513 2.0272142042224846 1.2399131310058453 0.17298690601510852 1.9170888219361244 0.8110938301060032
Ni 6.681997082298799 1.0166073765916552 4.464281335046151 1.213112034625298 -2.1000405524734282 0.9115496588309205
Ni 0.8792129613613849 7.078913878386854 2.321280138644166 -0.7671325940337046 0.2650051454956339 0.4301301322641624
Ni 7.789148294496022 3.588782177890325 3.858627136998269 -0.37731196002186634 0.29407095251333865 1.3182279878300458
Ni 7.7882586518361725 3.868039193220031 12.626248910930512 0.6739918109129618 0.2463836737397047 -0.04768753588395013
Ni 7.989971507977714 8.980053008527713 6.890059989874678 0.21686818077909106 -0.06710373562703281 0.0847481881816734
Ni 6.877564141698313 0.7386966266339465 0.6471850776861332 -1.2345720042712867 -0.781839561226576 -1.0488995323687096
Ni 2.159879896376061 6.667417836260846 9.112460885869659 -1.9243308482105184 -0.9639603112221528 0.43813809017030353
Ni 9.016392187786694 4.816507204456222 1.350206125861455 -0.02153041787260808 -0.6099008939703238 1.099628426182145
Ni 6.582139232723779 1.8584362824680503 6.93419806718547 0.3013888263309906 0.6009650249332747 0.43681037249781546
Ni 3.427847636320692 4.164834878129641 0.3113440657940578 1.8384598592783112 0.7501964803999983 0.5961807161707539
Ni 5.77277320594559 5.254574512555511 4.760105675418986 0.4512460883071712 0.7117543743737161 0.022664788587367417
Ni 5.2443073100219335 2.722896608252675 9.620698304865316 -0.20300427831280524 0.7525683230662846 -0.8778833769267268
P -0.06632921488225839 5.88976121571589 12.761253092361407 1.2936209879146432 -1.3272918978045272 -2.296770824852064
P 4.255923392914709 6.061153597531924 12.509791963360225 -1.4016255755210958 0.49941339204101737 -0.12521966593315853
P 2.3399326771461477 8.406996043775647 1.3293993812045508 -0.3715904841570568 0.6111085411251798 -0.5265521572393383
P 6.428993603420999 7.895805555828469 5.87431592978253 -1.1271068341080717 0.5588611537846891 -1.4875765257616187
P 4.8831396240817355 0.9223960345107862 12.606478872311923 -0.6079604824145014 1.5065247847293475 1.2812529532675934
P 4.080046485854123 6.185340450457948 8.191317613471723 -1.3687223970351716 0.9680846178031715 -0.4409228520042922
P 4.488537714506556 0.8699434295249256 3.91437686661737 0.5438754790091342 0.6043010312850431 -1.01502910487351
P 0.03447909986098946 5.564161080197048 3.737759195872665 0.6370070061584965 -0.8250886017231984 0.00991751622402808
Ni 1.585606481456445 1.0843473105488188 2.5397110144018304 -0.5971587638133071 -0.6185518847771025 -0.5764729533291814
Ni 1.7391787761165012 6.580241933581854 4.795780346078978 0.8152957840024927 -0.4106645673403831 -0.941050753613831
Ni 5.907163715500918 5.727474054183832 9.197123094135259 0.9906013108484488 -0.4237944198541218 1.1662791334321592
Ni 8.690102125307154 2.55183103394434 10.13559170343446 0.3634524284309547 -0.4962475927185259 1.1623646288691014
Ni 2.2706040955821085 5.652299249426491 6.964092783952333 1.315183030356135 -1.052529415811813 0.08703569866426945
Ni 0.7694374117263003 8.781971346916173 8.990543529524885 -0.5544319143687418 1.0149486293445618 0.21919065826468057
Ni 1.4793123395769985 1.159367789538634 11.665538327336423 -0.14353903306763666 0.175527155938459 -0.9229710132939846
Ni 4.044433545501142 6.5402987937518455 1.343216984189836 0.4293940254290863 1.7508446339614876 0.8211085340295278
Ni 5.634297602544012 7.799252093275749 8.002104236701078 0.06269172260226623 1.11545022370575 -0.33375001627051554
Ni 5.381566463255961 2.818042982925019 4.870690073635628 -1.4928066638123063 0.8969277951526876 0.17208496302612944
Ni 0.6649897322653593 7.448869055089654 6.850891202278193 0.6461087113494486 0.5768228804694324 0.9853040670052514
Ni 5.236763503385857 4.714897303520477 7.221798659746486 -0.8767628901690384 -2.0875146520922754 -1.0627035281313377
Ni 8.045655876095275 7.2216198234158835 9.181764049071989 0.025977655010684293 0.2649987177377307 -0.7214703161098994
Ni 4.672848070863068 0.45310226905075646 10.487220241344346 -0.18265142568806608 -0.09208457394208658 -0.2778902289884182
Ni 8.434738369984853 7.217325935884157 4.990534925702405 -2.125610687633049 -0.6695751699025049 -0.9170975852323431
Ni 7.072323260314902 6.119770155232461 6.763611810555095 1.4281287640179468 -0.9486856444512693 1.1488912769730149
Ni 2.2921370791450126 5.000091321906734 2.358655116142831 -0.6281966069557181 -0.01931207006505061 0.4248483150399328
Ni 2.272710188409509 5.79525937807262 11.302536888158574 1.0572833855570305 -1.2986490372568538 0.35501149675245314
Ni 1.059827669484989 3.19582338383997 3.808602893354346 0.6036965649318248 1.02922545097855 -0.12863614781387522
Ni 3.5744480374831467 2.506350322456081 2.6559818632524537 1.0481132890219884 0.5595149853186041 0.4672527481480727
Ni 1.3001492014667624 3.556491780532293 8.224839893574059 0.18473247658681088 -0.06587911919131235 0.20298705192162458
Ni 3.6964834076501463 2.4641830759764476 7.092599850570427 -0.04676682384189365 1.3850116211134986 0.19935382604441151
Ni 4.154758313308889 7.086993286216106 5.84547153603347 0.1342663495164591 -0.18227347352335704 0.05779788484507466
Ni 0.5861864563739159 7.382499897067566 11.10464677205849 0.040337780387098274 0.7248652007240614 0.5598823959603518
P 0.1585552013538495 5.778655741084192 8.064391024272812 0.58698747970726 -0.703684452881388 0.4932887672005182
P 8.729328104217487 1.639729435926106 8.069520086546438 0.3655566192581511 -0.11035380456491962 -0.15881472827978454
P 1.5841540036444448 3.556128661079293 10.442072691954216 2.2469191914372595 -0.505515134063381 1.0705682755913948
P 3.7073497572811736 6.089104717426604 3.593879467211813 0.6752225979962695 1.5080180814454223 1.0635743607720651
P 6.938522819870701 4.017217742498786 10.160544364445993 0.2364975249742443 0.47130326406836254 1.1898471505600863
P 6.293695295233171 8.005558410497741 10.139351805370277 0.06288866910442072 -0.6567109123453271 1.0337727040296003
P 2.3387434609375726 8.50170667510439 5.8342302655672205 1.0493844424249283 0.16065718080516203 0.3290706085169752
P 7.03885272473462 3.8478225176742518 1.9486587573577134 -0.5023879012883089 1.543266620235071 -2.442160023754562
Ni 5.514332013259113 3.0302318352856115 0.5218117319474304 -0.47225277246582537 -0.2994764397996262 -1.6769503577751828
Ni 1.5925511409950714 1.0481624570573616 7.115266674625325 -0.1314731030420381 0.4758623441939546 -0.045935843300166056
Ni 7.003648293766264 0.9058650214129579 9.26020783670496 0.005799380290596464 -0.9027701128660774 0.3243276945153511
Ni 2.7336631000341267 1.743481741634552 9.503218268236202 -0.41395840760030644 0.16051242769718163 -0.36019021273991514
Ni 6.053800428608672 2.100264760179774 2.4648149038246676 -0.04324132718713844 -1.3270905804269981 1.6542709138997964
Ni 4.219656837546327 7.128143798227339 10.49462152359512 0.3856564753318197 -0.3811164213696211 0.06106138608769484
Ni 7.766126521175818 7.155604706860469 0.4528471776350239 0.2847404191410322 1.4585562272698687 0.10528256068959932
Ni 8.007364929776417 3.868048271206356 8.233050932205021 -1.4934018741941442 0.41740522849832623 -1.3691155187085324
Ni 3.165802483063189 8.358274491169363 12.580755490261398 0.2843426694819812 0.5316851075905294 -1.1253649117163005
Ni 0.026886272098757925 5.113557072982933 10.304065512647007 -0.07255473143927504 -0.35448339216312497 -0.313118456063093
Ni 8.792792306615576 2.1702469567592133 5.725134657107878 0.09331458969444574 0.28628025282432634 0.4935250515810404
Ni 3.7796286844008384 2.8098909512051673 11.549108613725112 -0.9242460233516663 -0.7519530580797887 0.3370610829216195
Ni 1.427286399948413 3.9683600200976263 12.714179194273113 -2.1312200634000265 -0.5986186361882851 -0.8650407166361037
Ni 3.279622275606062 8.51949045031507 8.400806672699261 1.4432975013385851 1.3004668071918828 -2.317413183692764
Ni 5.5603664819131975 7.689408458743228 3.6784218460579226 -1.0092569782764231 0.5061375981387284 1.7575582985362377
Ni 2.961302685119873 8.29164207154385 3.4158528929894674 0.43958279303663 -0.4208070550910236 1.1032688511482094
Ni 3.510539013755134 4.471507412160853 9.55376086489928 0.005814035578615794 -0.2760110096878344 -0.34769233738322053
Ni 7.139936102463516 6.198213035066801 11.299015537263106 0.12870093961353965 0.12354047845852272 0.9435678636087298
Ni 0.3175851813924966 9.044052812118975 0.3033463598417312 1.0882950034471965 -1.2018824844580656 0.38403976566400316
Ni 4.4578450427417255 0.11748457562227622 1.6849868289507703 0.17374512433737171 0.4936075839925177 -0.4205887684326305
Ni 6.066064788133749 5.4512763202456505 0.5705614263113227 0.7192378272349549 0.3793351610994822 -0.31182570539359844
Ni 7.733345912556237 8.725642441769537 11.668487765093417 -0.39613860581006616 -0.5549625900612314 -0.5526858782119127
Ni 0.2660521764213587 4.776446050803989 6.072551917161595 -1.6343934582495787 -0.29416351222714504 -1.0210801961635962
Ni 7.9492204273647795 8.495070667100814 2.594066365321411 0.3602462627888312 1.346237328558778 0.611762629769411
P 8.64624637337107 1.451179659955818 3.5122729091432094 -0.5864213227911449 0.3350715632954165 -0.36833803865803016
P 1.8069550220189647 3.046408806916765 1.5351011045372973 -1.0955691685111069 0.6328623878625036 -0.6256175333746323
P 5.010285900549711 1.0968204637593715 8.231456837806352 -1.1016583121279802 -0.4537158900039025 0.833829324030306
P 8.479238658950011 1.4909866299909509 12.297845493234512 0.1440609670093777 1.656662039839792 0.4392590911486241
P 6.107333313967208 7.798934363754374 1.6810143021349493 0.4181022545653509 -0.3396219016702603 -1.349965942363275
P 1.8898370371662316 3.350702908530826 6.140206518047305 0.6109686731132058 -0.6140606817749682 -1.193177757595216
P 6.931705252140624 3.788770216630115 6.116848859233075 0.8635847009158676 1.2698079446554456 -0.8718613391023629
P 2.481040896581976 8.602145515804212 10.313352292657484 -0.7623038051864935 0.5296179406488556 2.0144760390380467
