# total energy = -340864.30378314457 ev
CRYSTAL
PRIMVEC
9.34275567625328 0.00000000000000 0.00000000000000

0.00000000000000 9.34275567625328 0.00000000000000

0.00000000000000 0.00000000000000 13.67406731241429

PRIMCOORD
 96 1
Ni 9.059240123887454 8.471926492522105 0.10222375797502468 -0.6324247861044527 0.1318878219819535 -0.5240574158419427
Ni 4.278430740834509 3.850682028580382 1.4789731248420386 0.8566776893833892 -0.7517579113498473 -1.00549159769672
Ni 3.1288327197630963 0.6117253168941114 7.782759076294723 -0.44513689008563984 0.9995155826189431 -1.0926699925864407
Ni 7.542219562041578 9.124359128876344 7.775142862110083 0.2158366541907831 -0.15676401639834292 -0.21058054799816636
Ni 0.10228822298713708 1.8328430646642957 2.48314181569006 -0.5917339932533099 -0.45822997582417213 3.494808738753058
Ni 0.6253713454001041 5.360247071634131 3.222922674905506 -1.2384461425147122 -0.21667251982851715 0.4070202857195764
Ni 2.5594478359692925 0.8995653330780659 13.341336027656991 0.36024420590630213 0.050381280666029364 -0.04842132872618112
Ni 8.54738792771511 5.1481945528058946 7.970107481350846 -1.1575790345549999 0.4595785194322666 0.4293333473944799
Ni 1.4070002745074046 5.005418565110028 7.6236482150949 2.1965484522941914 -1.3345010139584566 -0.2709122550086883
Ni 0.021751803072472008 2.644962075949679 12.903410251968948 0.8899127972874351 -2.863317005985836 -0.6175319281530203
Ni 6.193359254255243 4.2251209786441795 4.6884543775843435 0.1809213303708368 1.3252036478169307 2.1299658792779512
Ni 1.3870067779971864 7.367986516985942 8.070365523594212 1.667031298889258 0.45843437852549435 -0.2714694130637389
Ni 6.5688259074106865 5.221198843334327 0.8300627072655351 0.3579556669824416 -0.21207050228013155 1.166013024254966
Ni 2.9369698953080303 5.290746314372675 2.4788899277172565 -1.2080081377398293 -0.09706274388296833 0.45731800553286406
Ni 2.1497680126173906 9.12143484644284 10.584083374811838 -0.01341215964084787 -0.4761855318613282 1.5394922407943035
Ni 5.291699275421293 0.548751408540151 11.583931041297255 -1.2567832502610035 0.11425236828837743 -0.5908284507199051
Ni 4.018879653661437 3.1121745869230404 7.824601540533351 -0.09464873512483699 0.7563028504080523 0.5926850443126697
Ni 0.8007189811724074 0.36929576322787444 8.919730363471949 -1.415176317622337 -0.017431565212886108 -0.25105279708059985
Ni 2.8784655611271948 8.376508931840394 6.1516204946013175 -0.7936537802526847 -0.8440276047195464 -0.6057056249420536
Ni 6.736761935341142 3.013449690837304 8.364180231842786 -0.07208241978854682 1.1778303286048684 1.5192779706299577
Ni 5.57816684084013 0.49070019799517856 2.810198047575716 0.6160067497577455 -0.7253130868947574 0.2818060191030566
Ni 0.40833633512845807 9.152200539904591 6.599131937307811 -0.0437815159613246 -1.3501253507592748 -0.013865188017866443
Ni 2.595968666744266 6.165601928025403 4.7170469461450315 -1.2192639131593068 1.910100820654065 -0.21555640394620298
Ni 0.11988063136505339 3.3600005160959605 9.450858532541435 -0.3438454528333046 -0.18768178902312194 -2.015178207311394
P 9.342194813283935 6.1740477788876635 0.20113737771940904 -1.2147585690897853 -0.5108450309167267 -0.21015503042497355
P 2.9852906261261833 5.801738977050188 13.162561469211816 -0.2595541496833917 -2.7550817904258165 -1.743157292619559
P 4.152284857712561 2.8147386266897194 13.196527056390739 0.3330388491361039 -0.6078841206506111 -0.31124103653472207
P 3.124198713095307 6.454685464950249 7.08194965259006 0.35308522626401767 -1.2176096653853352 -1.021007433944132
P 1.3050334423052916 8.499188652716878 12.432215858653224 1.0069848944127948 -0.9237526286550154 0.47146112980246546
P 1.6222106446536089 7.361680157105383 3.141302495366922 0.25578516955926267 -0.08343384024562404 0.18665360486892368
P 2.7621015428866493 4.105075914784463 9.422990961798126 1.112789131933819 2.451149628847682 0.41946931011620664
P 5.984361816435811 7.557522995351736 13.35866123323108 -0.37805243773231667 1.4244927099272564 0.5655334235985422
Ni 2.8470085037674266 2.147880776030912 5.81707137290202 0.2168167587158653 -0.2646531614728539 -0.32437294593098975
Ni 8.901422300032031 7.518423564092267 2.176118319887213 -0.2774567409954254 -1.5273972573029824 0.454632745391217
Ni 4.460735926537261 6.37877557749907 0.8641590930197601 0.8080514437352536 0.16744977824696325 0.5303478768363447
Ni 4.757601978692487 7.484238422161945 10.88606178271024 0.08758797162331368 0.38566033198656163 -0.4156591923414971
Ni 3.3785365427671166 1.598480045991948 2.176392062619806 -1.1413319765685184 1.2499695697732796 0.4244590500213141
Ni 3.4194204403038992 7.793147286000196 12.966324366688484 0.060111620579915835 2.406393921898546 -0.9525705813279723
Ni 9.082354100694127 6.560380056548426 11.683245465247381 0.5762950329904204 1.9754580059036366 1.6339345163352892
Ni 2.4675431513099384 2.1085664613977353 9.680158712074114 0.7013678889330694 -2.9467601022028407 -1.6179031739040393
Ni 7.527345895478836 1.1196918611044928 1.30957588997037 -0.053124133518489144 -0.310093296083524 0.6664350816116265
Ni 1.363808716392106 2.153000605978389 7.69591536222396 1.1329648355507456 2.150084761515013 -1.1889277240696106
Ni 7.026452751365598 8.464611115060656 10.390308088330771 -0.8960214812883344 0.19813100938090392 0.03662587875314983
Ni 3.7287216998680504 4.5789030965658775 5.690749845978955 0.5160510005976983 -1.1812614657736042 1.599179115131975
Ni 8.213814189677338 3.325142695778379 4.396403581551251 1.672153964827804 0.8745021191593199 -2.0549806840203124
Ni 2.3665946794440935 6.554017640135595 10.880865342168656 -0.3374462341751801 -0.2881754129645101 0.6513041395074589
Ni 8.092722737215217 4.483980701919234 12.649605893629257 -1.3202884699035005 1.7034381196530661 0.9778704935453417
Ni 6.309545760143595 2.8610319795907153 2.7115675133193036 -0.21702039008623916 1.38114699595177 -1.55737272061915
Ni 6.582270132400502 2.798669087438516 12.960772901442517 -1.1018231198406185 -0.55048115725111 -0.1392092953440312
Ni 3.7092981114359276 0.023955759066285318 4.16615978372533 -0.34209170336699146 -0.3157762054009142 -0.28596452135612044
Ni 0.23549909772638644 1.9273824063404166 5.652531436551689 0.29846831025008597 0.7513143960545254 -1.8561847873619
Ni 4.320202200132259 7.983683439191499 8.053314060752717 0.18968904926113783 -0.9585887624975941 -0.3117578282701405
Ni 2.674812179384327 3.1065689336958764 11.559304472394786 0.10010821557751147 1.3324803839840018 2.9152589462707663
Ni 8.949219836548982 9.414414312360567 11.334830760290691 0.6423932101710743 -1.2789811265142812 1.0846458367303837
Ni 5.290223120071474 5.2705379344887495 8.772173687848849 -0.04359768208529266 -1.3838343129759458 -1.0650370613605207
Ni 8.920294665896817 7.795585745154012 9.255428644082816 -2.4195661976144462 0.7122637099099669 0.3039753561112442
P 6.525241953569488 3.9346733994340557 10.87906032182951 -0.20747388404838463 -0.876150196285704 0.06387160184298032
P 6.729979094936273 4.774465652150872 6.8895281313633525 -0.7232952851337802 -0.4476923095176419 -0.5859947767766875
P 1.6991575779518133 0.4454793934116467 4.855031968882749 -0.5416293632874349 0.1840670750886701 -0.15083453828778537
P 1.347159926307429 4.152350257000212 5.447447678960356 -1.4731089282730632 1.2624982983679096 2.6871123643643786
P 3.9093358468472745 0.10200140039701386 9.599441042705104 1.5127252571131045 0.08531820175253048 2.6132142315233318
P 7.477549009310863 1.4032725151113405 3.650524705900189 -0.18628722266844044 0.3246166865106797 0.3871420587384107
P 7.8278275939655835 7.845448030609636 5.921062780194676 0.6477706724329038 0.6384329399717457 0.2866486919073386
P 8.69564811281822 2.29970055093327 7.561280651565012 -1.531219716372866 -0.481133619895223 1.3247444487923248
Ni 0.44248130321065177 4.231614193632311 11.406769976705963 2.660550811825766 1.6313698409319068 -0.7675735382258652
Ni 7.04937053030932 2.3379871624748003 6.18912885461981 -0.3415083200596957 0.5081222326689249 -0.31935672366332096
Ni 4.447936351668569 5.060223168160935 10.990914592048803 -1.542106281378383 -0.9593966031108704 -0.22185714935325018
Ni 1.39134181649286 -0.20770346619949379 1.8315724499328052 -0.7457232751199931 1.1581451914711152 0.3578271118243773
Ni 1.8873580422984657 6.790837803472516 1.0076348530934847 -0.7841702662422817 0.8984375469289947 0.4234537486852513
Ni 6.336163270217245 7.701102460010163 2.0280552669225926 0.28961600206577864 -0.08046113077054529 -0.6238105620728804
Ni 7.514723832962338 5.749924055720435 10.252760306544774 -0.898200491217524 -0.15604307907191833 -1.5067291874306696
Ni 5.782773183631616 0.839028949602384 8.946476803569825 -0.10636859466492647 -0.1654170640876506 -0.34345850180753107
Ni 8.730319078028229 9.157581967002669 3.992882502544927 1.4366008060447 -1.0737559292907572 0.8780119320847912
Ni 5.017872458029711 1.9450028429844688 4.5812229027263855 -0.5341592801626349 1.2812956335800707 0.907725914209456
Ni 7.731980266536458 1.7764595359544046 10.361113846323702 -1.2713138397770105 0.5063147471465409 0.0844144589913385
Ni 7.453379301146407 6.267961155953417 4.310503485773728 0.27034506965130856 1.0623554007632994 0.3211151011153244
Ni 7.0152601304220275 0.26667493814925897 12.998199045213678 0.3200007850052231 -1.2589954274209736 -0.9283831854484914
Ni 3.6022207920417166 8.73367312720915 1.8446317534010217 1.447743452925081 -2.2033569905755925 -0.7985442755757667
Ni 4.826523485120468 2.60894575396515 10.255467837053493 0.4065811412996288 0.7487710608073813 0.3726451506738163
Ni 5.114728803039726 1.2338790173418233 0.6358305600464543 0.1816499810067452 -0.2184193273162948 -1.0571190920650246
Ni 1.9883905989627177 3.3611309894967722 3.7904651673386485 1.2809577906246776 -1.3400797935978146 -2.613416320231809
Ni 4.863838450102623 6.231113328740193 3.2487946330999433 0.9244558253696272 -0.6168701261993054 0.7874895604235019
Ni 6.6016843780772465 9.597345462673683 5.405235241608735 -0.412641745671412 -1.045359123315619 -0.4939163734821881
Ni 5.4575425261469395 6.48653491803592 6.015563816573745 -0.3337533587046252 -0.0683545773149984 0.3798822918522038
Ni 6.2054394369597805 5.790499642329724 12.28149946316108 -0.2889966233142249 0.6685611268156938 -0.567234722560365
Ni 1.3972370951367605 4.295200986739108 0.5963901182156663 0.3401276376620852 0.524873998205967 -0.24687372600224577
Ni 0.14970737791125513 6.486170550576154 6.035172391562364 0.2707189080509596 -0.4368617945610412 -0.36245458329405966
Ni 8.350965838635284 3.4774669794711817 1.1214828673105717 -0.5191880035647832 0.6053711244207703 1.1148920372094349
P 4.980576178558313 1.4791730598071409 6.860661820070072 0.6328940124313875 -0.3316869630938997 -0.9452557928341141
P 7.723216761991325 4.971915444322344 2.6888141668702454 0.2597685796870429 -0.8992739267873608 -0.25654724453626787
P 1.2612439478457622 2.064038889263296 0.9379248181115489 1.8920827868100898 0.7419164997793932 -1.165711176743831
P 0.47046285556957873 6.074052268070436 9.752289454974647 1.2320145279567556 -2.473983853133378 -0.6922060199281433
P 0.7034291323128249 1.7542424636640779 10.797699870890453 -0.4319293902564303 0.8358252714144121 0.8308956953232786
P 6.011427778767636 7.168303806278983 8.90887314744647 2.463120685166629 1.3242238004021645 1.4596579449744798
P 5.54853162077919 7.92984113994459 4.337824505327387 -0.3897630413010255 0.8235341127518848 -0.7441962969525054
P 4.43029722951376 3.9639162237690946 3.7385306587400495 -2.083655940467818 -0.43243152670382945 -2.0399551571457573
