# total energy = -340854.7308627913 ev
CRYSTAL
PRIMVEC
9.43608520926121 0.00000000000000 0.00000000000000
0.00000000000000 9.43608520926121 0.00000000000000
0.00000000000000 0.00000000000000 13.81066451786324
PRIMCOORD
 96 1
Ni 5.6609246041252845 2.297733952069728 12.729855620568507 -2.132293498969863 1.0258197677311107 -0.22227083985190108
Ni 1.763415621703007 1.031213146415836 12.386233025337278 -0.4789240138384139 -0.5798053601365241 1.5473963261327286
Ni 4.030104853120965 6.107694935036951 1.405925755508299 0.9013845453724605 0.8926885602603593 0.8553381446363593
Ni 2.7645654003387397 7.096936374018418 8.811439103937072 -0.18484611934653972 0.9081306058470424 -1.4844084124462822
Ni 8.99161737839218 4.462805980843638 10.232666415375132 -0.16898189862077348 1.2540969616780917 -0.6338265515479858
Ni 3.4057379606935 4.236255008768148 7.00217260013102 0.7627622328801509 0.9262795088419273 -3.895822413267239
Ni 8.374837098549524 2.6884161919315086 3.7741925580120252 -0.37099218845142556 -1.7072862897545629 2.7839092561804697
Ni 6.859345182136675 2.0763916990823166 0.971827143552031 0.27394615673900563 -0.3511350445161824 -0.5769684049083611
Ni 3.6146528893348986 6.592370020616753 6.29015013687603 0.1624402408475138 1.2616863439895756 0.5482648663260815
Ni 5.811675502949809 4.176769927008645 6.253648528092675 -0.7755167043323418 -1.608957020454345 0.3296226243657033
Ni 1.2597079520640506 5.492990593961284 7.369122141843479 0.26900038269795606 -0.8427484808968067 0.3861347005198189
Ni 4.539861053440099 7.655401646679326 4.175115781254768 2.020797353270384 3.208310199270339 2.9574420073967196
Ni 0.936151192232817 2.3169646939202777 7.675511831680255 0.25798963340974923 1.5450288543418167 -0.5248410880855026
Ni 9.719073502771192 2.8879327796096357 11.999741350959221 -0.8468478477771608 -1.4073010286393182 -0.6867599092119075
Ni 6.104816929019082 5.178580231615692 2.863364987910867 0.6039796433898824 0.2913458402726918 -1.053151108556212
Ni 3.0670391147741523 2.921006258601872 11.902694044428136 2.4943235931319943 0.3143559280146199 1.0137168138199897
Ni 7.245045168957685 3.5992248898620582 11.377612697965981 -0.7256429594303503 -2.1863100623956346 -0.16635705940341672
Ni 6.885077386762019 3.4405004989552395 8.680030292769692 3.905648655329041 2.914196823554839 -0.4658419838434752
Ni 1.916148098441475 3.2401063553437948 13.903472504748517 -0.6576416516897126 0.9925388941907939 -1.3031081014694719
Ni 8.084196235085942 6.496961762103059 2.550249256469051 1.3325148367663633 -1.0199316843814499 -0.9769158429415562
Ni 4.690961087420891 3.3325233748159655 8.645973573688726 -2.208648835102151 1.939686761841298 1.9118987930947522
Ni 3.728810649348613 1.95922382785647 3.472098174205853 -1.400190385736466 0.28224876306743 -0.27497845465826193
Ni 6.735647539880121 6.763474555443062 0.5173484745551268 -2.7898312780918597 -3.0267347802552713 0.2979836573041835
Ni 0.9673780293309642 4.938497913213565 12.516481198012206 -0.6485456029257153 0.525909638559333 -1.7948089553575801
P 3.8841474856311202 0.6690458127356922 11.72140136829857 -0.13398558505124666 0.7588060764458803 1.3359287475439188
P 8.31326664193773 5.721777918253938 8.366293666914839 -0.08773915248919728 -0.7331968605182082 -0.2995188630017874
P 2.236286164566892 8.91034437566461 7.438175414101734 0.646101769370913 1.4324749568017847 2.1270438205351496
P 4.228923170486559 2.2165081297686817 5.762665419486821 0.29093934886289247 1.2607862007728092 -0.3317666672918996
P 4.932751337263131 4.009487006730655 10.650895419066309 0.2519763373361338 0.3054069463514482 2.3551248393109248
P 6.711293003709234 1.1360952345752375 3.096930745801714 2.5438543528722706 -1.2156507418867515 -1.5734215465518966
P 9.0555562924154 8.724812066407738 5.985569344592125 -0.3467693113483189 -0.3593296645118328 -0.7644085102343221
P 5.693422481913946 8.462970135293457 13.08608860020066 1.1545633876571277 0.8444477229761005 0.2633627247962045
Ni 7.155874162830259 0.7594170889138494 12.239342429010819 0.9467940838555113 -1.1618288109702892 0.15997686690868576
Ni 2.878666543840627 1.5802706420281696 1.1624860779548336 -0.5752239114134287 -2.017595815613951 1.0411797951269488
Ni -0.09740682138118473 7.579346799125141 8.090232498855222 1.4717637270990782 0.5199979010605884 0.8689760471347681
Ni 6.623801620766007 5.5707911172968005 12.088502830984432 -2.9233923740111782 1.5016998525368783 -0.5512542879717087
Ni 1.9876641889642013 2.4875030636283175 5.2040104815112915 -0.5307769939539633 0.8452110835046862 -0.2558610171025207
Ni 2.349160616979196 4.578813213577032 10.50980518437652 1.0433086685444937 -0.11318973135181797 -0.10470329114736161
Ni 6.5589285342976416 8.198486100293918 2.6593813574495946 1.4653804492805538 1.6329356427571298 -0.9454725368306104
Ni 3.0519319422016644 8.987965613379341 13.65773891485753 1.8590711077707596 -0.7796368971483025 0.07430411003021396
Ni 2.204231782787541 6.16225438026751 -0.03428695956239323 1.1529986142731692 1.5012614794478791 0.7011123212788377
Ni 8.960374499949015 6.3705842716200305 6.008688697196655 -1.7660362541002619 -0.36627755658457567 -0.0015514036475199088
Ni 1.7634911103854432 4.833068532106503 2.9592252349106456 0.9322665796632975 1.3095381733655318 0.6090511443755189
Ni 2.0055078262749912 1.8361300950594037 10.315406729367549 -0.767745030806723 1.1123538441686134 -2.790440629541085
Ni 9.216016923018245 6.667443515299272 13.752052587475903 1.2619061733098655 1.7502473666971212 0.5910752766233884
Ni 8.972943365574595 0.7709545904156488 2.4635740949046623 -2.9537948975624357 -0.5310598153017048 -0.61213261151432
Ni 4.067849194338923 0.6251736777209985 9.648862422846078 0.5914804824816072 0.6032293954874192 -1.5258921335123656
Ni 8.463328706535027 1.2719276825333645 7.857370672928091 -2.643819100893382 -0.1737952608490168 -0.6076691764263277
Ni 4.372870651806547 4.676325719113627 13.195440561968795 0.16709933688607995 -1.5687861046624143 0.22960105496472716
Ni 1.4808331750894586 7.622818844122925 6.064953243041735 0.166107662396772 -0.2827331589030163 -1.7029935759164798
Ni 0.7466623324077709 0.30713136614170855 9.061204733078668 -0.021340413348989052 -0.9480559812870704 -0.23229274286427734
Ni 6.011361940163417 2.868126436555512 3.8543351177201157 -1.1948222351771747 2.527137297227906 0.6539858001046802
Ni 4.543739284500244 6.4289275870576885 10.167148844280469 -2.0642104301486968 -3.5285092163292973 1.0898322660273296
Ni 2.3090761266057243 8.838847157312493 10.525894653429207 1.1595554415550804 -0.9113743095953206 0.2712719523409522
Ni 3.1248540094347597 0.3026161993235103 5.458623427673803 -0.5711631110804938 -1.1817769719574422 0.24665055424784618
Ni 0.7435682400364287 2.951871693632857 2.43365981727237 1.268019999517087 -1.1553743135941972 -0.7156963897405997
P 4.647121035096231 5.934599386211395 8.061395822164704 0.18338573275092934 -1.324102701443268 0.31052704118683294
P 8.722292631631438 2.7514964221920213 6.084481221579377 0.7192319136976839 -0.16496634970347718 -0.25218819623662375
P 4.581115618391327 8.260150917758759 2.293053653758701 -2.9313753922166548 -1.1161179391967357 -2.621158683181389
P 6.529025579967715 0.337809966683665 8.780931296539128 0.6292335328606649 -1.641809805318308 -0.1220842056279704
P 5.345004468130974 8.314012092676784 6.312164523891405 -0.377459284233008 1.0145241402126335 -2.063939692985813
P 9.034457205674562 2.4788407373187957 9.80278195911585 0.0016948712039196617 -2.475037491208873 -0.6578709940916992
P 9.348999673214417 2.820804468753497 0.3391300750177631 -1.5104338899757663 0.43130281241602497 0.6212492291036076
P 6.795491192881195 5.513523515583853 4.9308905412410855 1.8644701672991437 -1.144706035247074 -1.6003196564943214
Ni 0.04828256128601213 7.806246906356897 3.7944801414166776 0.9283775290215366 0.9776182683252195 0.36667170669920074
Ni 5.736941707338253 1.8773469156694138 7.534766957712612 0.18608667662186018 -2.2957189865487817 -2.939040107850764
Ni 6.652676041797745 6.7019512792577896 9.69130216011155 3.059677810840195 -0.3862665981119928 -0.5664597920675535
Ni 6.143391645743836 1.8799984556399756 9.98139573062747 -0.663045082093471 0.1228182555805175 3.206290340626833
Ni 8.168083033442853 4.816753540615041 13.50243793569918 -0.44384465363677755 -2.5455098861978223 0.23556318608543303
Ni 0.892959398968577 8.920035235272321 1.0982018032094683 0.4637272514933175 -0.8108801714333003 -0.29431006510733826
Ni 7.866317025405277 8.474331182000062 0.3038523264983985 0.7150710974517749 3.920346880771164 0.10802258532858171
Ni 5.065422696644253 0.7354428269807329 1.7307110936461767 -0.3237648800333456 0.23142859509176916 -1.0236980934024178
Ni 8.053963017770357 3.7911926092965937 1.8445385906742342 -0.3345604279869529 1.706042390045133 0.09551314000766131
Ni 5.370481898453096 0.7550170423363659 4.64898749276946 0.28605193886360414 -2.632625289060092 1.4106064388634676
Ni 7.380405812650588 8.46598024650559 7.271342595092768 -0.9670407499196894 0.9577012176863184 -0.18175925289109987
Ni 5.139052470275185 8.159203677171329 8.514882758596105 -0.6868915496937654 -0.21442383300365653 -1.4956413050476243
Ni 3.1707605644411014 1.719773727169743 7.674448384866439 0.043969720712730725 -0.8672570075611322 -0.5138776470954635
Ni 4.486339577593034 6.811145658401343 12.599855616937086 -0.8063223768592888 0.8771395567821668 0.29441702299884775
Ni 4.584097421347546 5.588889528910811 4.440583999951564 -0.9401472679629551 -3.368015043464561 0.2968076347182114
Ni 7.909553168270448 8.937888308668416 10.224490991067322 -0.016090477803959388 -0.19633895047748767 -0.29698324106412727
Ni 3.388177405941845 3.7507967281080736 1.5697201550492197 2.1775441432775464 0.8382135691409307 1.4498548428411289
Ni 0.8967913932107301 6.18859049435234 9.91707937319207 -0.5748541867788357 2.0165185233893723 -0.24903859486404853
Ni 2.53246601010421 7.136048947605527 3.58842529023107 -2.0009571786160056 -0.9425281094903057 -0.48440200623384966
Ni 5.300069829910995 8.342622303319997 10.819177620778046 1.0438056627855703 2.7058865596480883 2.2166904744597047
Ni 9.004176807932454 4.792663214832679 4.120674287090516 -0.2645544311114605 0.832799854324527 0.33093003032321716
Ni 7.162309573007922 7.640917255736936 4.749252504389374 0.0931155863097622 0.5932843684595652 0.828758851485934
Ni 6.413065527660843 6.427012061740878 6.760182305280325 -0.4494008075683164 -0.5673897600809905 2.1921168988853985
Ni 0.3830541085016315 8.112542235340628 11.44285379176122 -0.4786633039778595 -1.4567101752000655 -0.14034726560321634
P 2.387461687230119 5.14700709018687 5.089409225488265 -0.7031596907261697 0.11495247967919557 0.014504107153445987
P 8.456959348954497 6.314684902276234 11.524308910935167 1.2232915462614609 0.42076668877139145 -0.4312642458686056
P 2.509498578473082 6.741686634474996 11.37548580433835 0.21843295416304961 -0.1395471382994242 0.490083372889343
P 1.4125725339967812 0.8916789221927577 3.1650451275721716 2.724049346600044 0.5743093700189592 0.4056861402891852
P 5.740253773280129 4.182252292570554 1.0223375645784332 -0.08095838212193798 -0.6532813178384878 -0.650600428572215
P 1.008217406528795 6.660875999927347 1.8746868832220782 -0.3056774264040155 0.4481278543931637 0.09876532839637184
P 9.307924393883974 0.1277136401621443 12.799986493768534 -1.2923794021980581 0.6778222404026455 1.2780077068574183
P 2.342508176839531 3.727517905661898 8.568812816936854 -1.7978891369448007 -0.947847207710374 2.158866621472701
