# total energy = -340895.2020232602 ev
CRYSTAL
PRIMVEC
9.05465023305846 0.00000000000000 0.00000000000000

0.00000000000000 9.05465023305846 0.00000000000000

0.00000000000000 0.00000000000000 13.25239587415924

PRIMCOORD
 96 1
Ni 6.550975993225811 1.7639997761861865 11.555903977373259 0.41445463051043463 0.9815312302263804 -0.1842884470708568
Ni 4.463996846571127 0.1364599158542076 6.091636308054637 0.36287315888871696 0.099609421564222 -0.7087775511335793
Ni 2.5314628673423227 1.4719420359433668 4.70466673087843 0.0673958129461549 1.1248463202086691 2.2843691087536016
Ni 3.375736555630062 4.5401555088927 5.0511112271829 0.45317004480276146 -0.3301347881154314 -1.3627121862853497
Ni 4.893440793377403 4.78690377983851 2.548925665600959 -0.309867296115647 -0.6435679472054658 0.22866928717907717
Ni 6.975910724262721 5.99598026758813 2.6395065746643946 1.2902183899909971 0.4230102333899295 -0.2578209690423689
Ni 4.9208130007484785 4.502940896820216 11.433398182848713 1.5074652942657458 1.1220096220908227 -0.1101332039136813
Ni 5.711465050911339 7.94693140520025 12.391984112749954 -0.1035789477349313 0.6637181969010956 0.0134502119676349
Ni 2.050869201899193 6.370399105497937 0.2000969024981562 -0.2638777167594101 0.6307612823591008 0.7691514242359464
Ni 2.7565433605048097 1.6209815772360907 0.28038720167828823 -0.3230629688703146 0.5691198553982199 0.06882380364193308
Ni 0.4080405648070217 0.04936685802442655 4.595891407825103 0.6472767635156207 -0.5133850237297609 0.2436300222539675
Ni 8.740381342256152 2.56175067205825 1.3279033779225728 0.05983676965197436 0.31544273332089545 0.9562300324574304
Ni 6.811722753286964 0.5071953220873519 4.835467490395581 -0.40629240641461634 0.18230766919540214 -0.7478246377337121
Ni 0.9948525201041424 7.421263691363731 2.448314015113217 0.31965522874034624 -0.33775862320927635 0.050058092998655726
Ni 7.6701035864917175 3.913655211105041 3.916533684384321 -0.3996422480879504 0.005062502124571926 -0.8921707400836765
Ni 7.4989073163081486 3.911889554327879 12.808307871504399 0.6166127587728607 0.20254662195009634 -1.0806770818906226
Ni 7.8617905299405 -0.2710500464546517 6.810352784720889 0.4897470725958469 0.30397792721440553 0.9104178592193224
Ni 7.186078208645796 0.6973927755882217 0.538135061613308 -1.1528155517280856 0.011022576362748759 -0.46557253223217243
Ni 1.7135563202601984 6.427017832818922 9.189608794151765 0.6179980691561614 0.14891778088104676 -0.5364773867728502
Ni 0.13281270277810134 5.1046857811270545 1.4736262008692749 -0.43996511607671324 -0.5120480500858923 -0.3554041042051815
Ni 6.347219201141353 1.8750912787451437 6.964252862208384 0.6088305437242806 0.44423366154508004 -0.18925504704751278
Ni 3.4591298834129285 4.185883267542814 0.17377956186830795 -0.33847878920475255 1.0464477283941076 0.11588116214105204
Ni 5.748779264135355 5.662751033161955 4.811865639342506 0.7974423007608396 -0.5280382548665615 0.20416436005917743
Ni 5.3282450930661405 2.5176816898303227 9.485190604228794 0.6810086085504271 0.7689441933211466 -0.16054482359701383
P 0.22295265037975368 5.672439508810996 12.542504994805466 -0.10064763302074924 -0.8321606780786314 -1.0668861987541174
P 3.9551164540928525 6.309551856561904 12.451619849497348 0.4262971316713174 -1.0891002729573114 0.9696416778776461
P 2.349908077399406 8.610184527903291 1.2181718838145374 0.9695167222640075 -0.3716200518434116 1.07383743326097
P 6.276728749806975 7.561565495272041 5.85356963566238 -1.2815509441239863 0.46023800739313636 0.5544152021981935
P 4.839484133197371 1.1863583705501397 12.780345300944239 0.21226050680375058 -0.7651574725852048 -0.43544254561601137
P 3.9999098083319233 5.978866978824871 8.343920769512268 -0.13893135909229623 0.52052112055391 0.16589683193754654
P 4.841992271285954 0.9636320864238682 3.8754907662329443 -0.689262106808471 0.32903718417587846 0.32015710807742925
P 0.1540666830500583 5.669867988171438 3.5884302874019993 0.2710472379246558 -0.09199792776555123 0.09784950145032181
Ni 1.6021660142466447 1.2781544136622682 2.5344807822337487 -1.0189675206959676 -0.22015893571522085 -0.48017614107796003
Ni 1.9189429493697283 6.713117613270088 4.84833595917354 -1.0223886305623748 -1.0151185792635227 -0.8931367035413715
Ni 6.112323467227875 5.46826620282013 9.369522881489441 -0.5700734775607409 0.780023848174076 -0.36184960272020905
Ni 8.740761637562 2.3802139914156117 9.98689971379675 -0.2357804443025617 0.06291412302571746 1.1303826766458662
Ni 2.3080484298054658 5.224687059423073 7.010557437555702 -0.6248690852443819 0.07779155435818216 1.1594112026677323
Ni 0.6414468087725864 9.221074608850813 9.137699390368224 0.7677329466218649 0.11180390674788487 0.5372093798428683
Ni 1.5578435018148171 1.1795583282955324 11.39313758646937 -0.6564553446910952 0.9838866178324344 -0.03173718320228082
Ni 4.126991823036867 7.054532251422182 1.6012342907473118 -0.4504804137857403 0.3524987576329284 -0.4007349669314969
Ni 5.588176934614757 7.728324986887356 8.15421226711892 -0.04554220740617318 0.040738101149310486 -0.21094358776453995
Ni 5.2062336824391995 3.0212017294261364 4.874986510928515 0.4231747839922518 -0.6475775825854913 -0.06460822289868874
Ni 0.6320616639032117 7.178635286231299 6.850560864129423 0.03635719847279545 0.779196210066458 0.4150585826430207
Ni 5.060797891901912 4.420941985158799 7.164218472279521 -0.13420387170963985 -0.04856428206194862 -0.017493785909389225
Ni 8.308112344606416 7.473653897069667 9.030805623613842 -0.5709592225998038 -1.5622354480280902 -0.07095781926580037
Ni 4.627134478130726 0.33077904609848247 10.62567811717329 0.23405266297817756 0.10032855911843366 -0.8562871388131897
Ni 8.060612537699043 7.09310506101556 4.80412572440344 0.3737036738453177 0.14662281419928297 -0.4408369771587053
Ni 7.230110972273167 5.947039883585264 7.154624164991928 -0.22766552850491112 0.3360092446183374 -0.6913351872874159
Ni 2.3833197364133882 5.15387969533382 2.4696105522408285 0.5566757160975961 0.5972500379755328 0.3795002259224367
Ni 2.444927575961122 5.160127403929931 11.174181658661098 -0.21931561387831905 0.15599474233248617 0.4996836149832684
Ni 1.1553371391729297 3.5395713952503867 3.8296244359523675 -0.3339477341036184 -0.45039916692584364 0.03814694338336656
Ni 3.6485622189770286 2.6751511104027266 2.995611477202473 0.12656435288651105 0.8323522252641472 -0.8013292945200715
Ni 1.2944527839129913 3.263929735710101 8.226543528826614 -1.6893944970758068 1.2043489437206871 -0.42445467914594
Ni 3.620854989550799 2.4065811326212265 6.983946726261341 0.973672396303594 1.0865934473750578 -1.1474146924274884
Ni 3.9757067285095995 6.736351845527508 6.112879422746428 0.8353498744398904 0.7551800496575188 0.8107806697409585
Ni 0.8832123057467444 7.372332362011005 11.25594877127895 -0.003478188356587558 0.1702129428143972 0.3631942896735616
P 0.12533899455313083 5.403462071773228 8.01367051498192 0.552904421980622 0.141600164173711 0.917934993531974
P 8.535547046805117 1.5934373315123687 7.894478722408353 -0.48541090711433826 0.24425351477057933 -0.2303695576996355
P 1.901956425708419 3.199659829021416 10.343627576264412 -1.2239888294388017 -0.09596411150215085 1.1365800637058294
P 3.863202700528913 6.381500106568708 3.8144234892985267 -0.20541957262251717 -0.3419333234122563 -0.7668780548207372
P 6.921139145570152 3.8539850666871156 10.547158002095388 0.09967549891546705 -0.09290115630611098 -0.13677908863598381
P 6.569076238854253 7.823670452854087 10.255035068371566 -1.1347864621405166 -0.5988490070315364 0.2588802635448187
P 2.3073964949954364 8.489304948543761 6.011459192001247 -0.21190338057464794 0.47660590722819857 -0.39377807599768955
P 6.867653327197362 4.101466764294207 1.5850789839687893 -0.1401855432143715 -0.39830630288534624 1.0705901299682659
Ni 5.177684370550015 2.8623288380821426 0.8754081027916898 0.3713547139971669 0.12591592066923474 -0.6245659521816663
Ni 1.5745221673713905 1.184782861425903 7.13552700238315 -1.004995889007224 -0.8263073046216479 -1.4751629825886143
Ni 6.877839808604064 0.6308718828749089 9.266406714773172 0.3734982427027309 0.3076255512693218 -0.7259427500589563
Ni 2.9255755693050878 1.726468251358827 9.05829101411166 -0.04188224205608271 -2.6896888668423036 1.6286565557658015
Ni 6.453765269330386 1.93142931191181 2.6240801672220853 0.19044006849454945 0.2740358882393345 0.43297608635338974
Ni 4.23443430158969 6.906280464691576 10.447380284885474 0.18547166874568058 0.4918209244057401 -1.4460948615780644
Ni 8.133710728273538 7.281423674612527 0.14294938360903722 0.38393537887565493 0.40682668165153163 1.0377098343004774
Ni 7.530761575498174 3.772348341031271 8.202438239225796 0.8224673620502674 -0.6921401996872145 0.35757977170026156
Ni 3.2139390122910774 8.43735842069465 12.44650397216865 -0.07588893801883059 0.028317358887454458 0.18969881945315073
Ni -0.011323745464196887 4.979324149948575 10.33572920494791 0.1125055608005998 -0.8943577204326661 -0.31297704538922233
Ni 8.488055406824538 2.261281161836029 5.530489758577337 0.49630981341502906 0.17724722395335926 0.9622155606169042
Ni 3.7867723987031607 2.6057562717352027 11.44818804838623 -0.795945404500339 -0.9287770784528004 -0.12039730484385071
Ni 1.202629576850445 3.514173101609676 12.580075454628423 -0.6993462305173503 0.2259868552509076 -0.07686004368284827
Ni 3.077041756835142 8.22508120282912 8.180703457031443 0.22287479198448712 0.21514657010229396 -0.03623327130042146
Ni 5.5854967581735275 7.833214054100899 3.4742348507752934 -0.23247580540936094 0.5700927608344504 0.3138391362792014
Ni 2.999878028348107 8.542491963461954 3.703275847908706 1.0329638349750596 -0.8224401083567578 -1.1526653993034663
Ni 3.5094284649366885 3.957217132925168 9.213251391130466 0.8052489412894518 2.357257055162579 -0.7516229284338797
Ni 7.309257669140706 6.193643280128844 11.461639636633159 -0.37687538670508 -0.7538096516725534 -0.16187691214487607
Ni 0.5655615968852195 9.322577236912261 0.32424068323290073 -0.4172337359174685 -0.4479836155058156 0.034343767587192466
Ni 4.40178234546406 0.6253738993103317 1.6617709651835673 0.5048157940035112 -1.1943118711996594 0.4799496268894509
Ni 5.794441864787798 5.752862911348176 0.2987726687861179 0.38749918496751323 -0.5283994948607222 0.16447681166156836
Ni 8.095989055793252 8.869256177688674 11.503000373004424 0.2334631090232947 0.6374474361300247 -0.28773909675803994
Ni 0.09548038025380598 4.977902569876706 5.715943480870233 0.034346595800669885 -0.987482562713809 0.3303142511160892
Ni 7.992539677951858 8.44897553682336 2.453217108163643 -0.2786700445772362 0.9767361228305823 1.0648426859615274
P 8.402298815355316 1.5229378255278518 3.392917754269366 0.9600167531933723 0.027725748050042572 0.2655129383699879
P 1.906999865836004 3.28116978957531 1.5048095104839778 -0.07329803736320278 -0.09820225680405023 0.4846439470413266
P 4.82493331042353 0.8950050820881564 8.12785327509843 -0.0037694943447612508 -0.6071755246193608 0.879733285651272
P 8.693568801036019 1.9415071375168407 12.437824184545127 -1.0108957994314267 -1.3893225897840267 -0.4597785512582146
P 6.326764746476695 7.7502915681252755 1.2871782779910852 -0.6352396298454285 -0.04086254254231672 0.5791692692144219
P 1.853106588206946 3.3086325434477786 5.984503498536578 -0.7372579179614592 -0.9083545489323904 -0.5586354109271283
P 6.882104548819671 3.9845078484449905 6.04029644176486 0.2875298089607113 -0.2362648401381479 -0.7245116740393844
P 2.479072661636387 8.670379842029295 10.321774178153234 0.3392516628150351 -1.0788348864755612 -1.0595055900193302
