# total energy = -340897.54149001464 ev
CRYSTAL
PRIMVEC
9.02329892517221 0.00000000000000 0.00000000000000

0.00000000000000 9.02329892517221 0.00000000000000

0.00000000000000 0.00000000000000 13.20651006603026

PRIMCOORD
 96 1
Ni 6.204068508203619 1.9625224237438512 11.24926569796844 0.5127036813920203 -0.09337732461158113 0.8118245376244405
Ni 4.538827694486044 0.29939847598002356 5.985534131190769 0.32455266604196364 -0.1734479048119271 -0.0736029701981313
Ni 2.765532874817377 1.4245623585415033 4.67448397218698 -0.8704292346415267 0.29093652064941505 1.0031112703900014
Ni 3.382094897918678 4.34557569904099 4.863653827148337 -0.012218396443062829 0.21918448761709347 -0.4651282456059022
Ni 5.081028710235115 4.453503378805583 2.703808095434577 0.20780529924587438 0.32667588303255357 -0.37803186890702634
Ni 7.264955822415036 6.09596938575735 2.584236750594469 0.41705247314459787 -0.38450230712271843 -0.025502772256794787
Ni 5.204738140012941 4.452465699416491 11.429534970761098 -0.9328561336181805 0.28066702040260694 0.4823446094841887
Ni 5.500224113531137 7.655872206533544 12.365770822775374 0.39206674973353767 1.656198469939812 -0.06981907767566685
Ni 1.8178067538111913 6.239918075271985 0.4665848675009928 0.3230660541941081 1.0926473668786214 -0.4222062494313954
Ni 2.68638951897629 1.4909918860414562 0.40695168883464017 0.4236298692517995 -0.5380922966684539 0.1872742691720581
Ni 0.3733010997412452 0.05338273942440515 4.912795616026019 0.15736128366270963 0.35927592845576184 -0.5914627418697942
Ni 8.557182477300698 2.3092697590831865 1.4315463919950437 -0.15785313569746362 0.28208266980321095 -0.4945689194645224
Ni 6.87671033481106 0.7536927078646506 4.82571175703362 -0.7363978839540093 0.6909788323892616 0.12168799863081622
Ni 0.7342700566905608 7.501988864780732 2.7072946981819257 0.46503131501672174 -1.047882403958105 -0.3386669939561587
Ni 7.524673438556185 3.7563542720175023 3.766351185019023 0.8185348597650806 0.9251315112804133 0.6983373296368619
Ni 7.633900473381902 3.690204466787652 12.565175805832792 -0.16868313643343205 0.1907545144111747 -0.10671826469486138
Ni 7.871312494307094 8.931324548512059 6.973380546698862 -0.15797037800161826 -0.0600951655196836 0.3096472096850409
Ni 6.856768843942425 0.7829300013997424 0.3245635546603575 -0.7412672962311685 0.06956402424206728 0.3207582319965379
Ni 1.9635961963290856 6.548884857549339 9.131733824752137 -0.15708411874192302 -0.24934738435371892 -0.3086982155082103
Ni 0.19351367111708606 4.706354264380654 1.4136513853476778 -0.9409515090318054 0.15930735164548693 0.15897285112420362
Ni 6.325964254875292 2.121197137284556 6.888344074257636 0.7518787531984277 -0.18261157358906613 0.6024328677280528
Ni 3.2942530818072897 4.156636840534944 0.3840243883151305 0.3459550429771397 0.22477072345561935 0.13540663376848935
Ni 6.123995752561867 5.806402696406496 4.738072965150532 -1.066943534354614 0.2348661600184084 0.2849612769025866
Ni 5.203303435466284 2.9723468887129108 9.156258249200944 0.4325387417056551 0.18977749520988607 0.002240716405060657
P 0.16785411564960226 5.520824305229369 12.308586567467279 0.31236615127810075 -1.000313138819574 1.0183733387553946
P 4.041878523400415 6.020462419427601 12.635196606348906 -0.8773005078400634 -0.11816481596890618 0.0311442868132883
P 2.3710342409817438 8.488379822154387 1.4992554232982418 0.3595667202233033 -0.6920363271194985 -0.6970821170735221
P 6.307240909376461 7.932950650019152 5.760204307674222 0.034401103187689144 -1.8919539745417093 0.6392304961723766
P 4.627319188127994 0.8667735937084645 12.415572214812556 0.9174261722163554 1.5650698321530918 1.0857251858374914
P 4.080642616057275 6.227835877863342 8.186108327761433 -1.0682779368953215 0.40099284857857387 0.20007913424621024
P 4.773271050028528 1.079177541356541 3.864304510029684 -0.021051935574292774 -0.6153835143514498 -0.25767210216933045
P 0.21234800319405583 5.469373454128482 3.586743320045672 -0.052651050536812544 0.4065592869227579 -0.4136354770432489
Ni 1.1445964593645084 0.9368981621634881 2.5067410491572786 1.3190165451696123 0.7672248966371948 0.8652859998776904
Ni 1.7635225868131317 6.46753981674357 4.825421206804673 0.37025531028540104 0.30498759942584247 -0.6687583304281643
Ni 6.014344622681477 5.805103341345372 9.155915363837591 -0.06464396123263061 -0.7685991512769021 0.24925559597086103
Ni 8.71868148343954 2.4461712520510326 10.174678308831298 -0.33563926287342843 -0.02585964137558127 -0.1533277370232843
Ni 2.4089411202302227 5.188189409581684 6.91075524207231 -0.6394007032016537 0.09557381804226767 0.9456250032480747
Ni 0.6354649322509407 0.01837324149625155 8.92153878070797 0.0437905148223891 0.5295526346285591 0.36556638945016395
Ni 1.4158007351779534 0.7906647733330432 11.453398889720502 -0.3520706689565743 1.7747574360233436 -0.620048523927287
Ni 4.005947746640729 6.911080080837591 1.5521481975850149 0.4158422548865806 0.022000415530491143 -0.5471870598808706
Ni 5.478017774604569 7.978743892624729 8.03815600046471 0.6776759446327684 0.1704021760070678 -0.2703748944479795
Ni 5.266998903358455 2.9983069200382797 4.917774672433853 -0.5012422177196401 -0.6886882365828719 -0.9667486726005674
Ni 0.7187048658541823 7.4755054821113 6.890061208064107 0.25037016919127847 -0.3586791754120275 0.6167171455612089
Ni 5.022927687745004 4.700525213203669 7.017371836487033 0.47340205557892023 -0.06382326510354815 0.023992506259855453
Ni 8.367783430543836 7.123163701369904 9.210616407251095 -0.5603670489062543 0.12898787472633913 0.3411316534465673
Ni 4.532610641450527 0.23294368324277118 10.281109925615793 0.5558887014199265 -0.38461286455865373 -0.1942617562334848
Ni 8.232903156559962 7.01646319027415 4.943606572912915 -0.11225462113205828 0.2280727912456588 -0.895247065016155
Ni 7.378820832945042 6.2792777056651925 7.131502132008685 -0.7500144462961793 -0.1544721350403727 -0.9069142169414381
Ni 2.3298609274823843 5.050529959494849 2.6658263228041026 -0.06040112679587662 0.296143004551019 -0.25266153632861654
Ni 2.3753473779207517 5.170178904706662 11.308021811968533 -0.18126997195950717 0.039374645142880575 1.217269508437097
Ni 1.063666490314376 3.2120057110979623 3.8030254816192413 -0.004711546543056402 0.27196357909133806 -0.3849370806672919
Ni 3.6031296310942884 2.596400157694433 2.8075588900755997 -0.3783925946805548 0.37320590827329275 -1.1483354044695449
Ni 1.2303538933986775 3.4184948862282147 8.037165242230603 -1.2968266393361343 -0.37976299266552016 0.7192110877620774
Ni 3.6902766531799367 2.8182921042784237 7.060609680805734 -0.5752097703460416 -0.7994549603154941 -0.4771034156899074
Ni 3.8972891796542535 6.6595465969217145 5.9267247797263645 1.1943208700607237 1.535112623669369 -0.4056735418836949
Ni 0.7240042493777794 7.36483471943989 11.409196454734897 0.5743175975490754 0.10355195115173778 -0.4901885310086397
P 0.29875601708869015 5.566852153609872 7.878673701660321 0.22486971092732885 -0.2007514777228865 0.5823283836686939
P 8.52362482818737 1.7294867028509173 7.989185654268705 -0.016535792871494103 0.22256677382576506 -0.06711170604683281
P 1.78211058282643 3.1834108764542033 10.295781809847648 0.03996779864218923 0.1264651083044854 0.7688922570372886
P 4.002257217335176 6.143386822189332 3.622149843131391 0.5036842515022293 -0.26189539622205865 0.9677516599437851
P 6.8675065697947675 3.8830504137761053 10.289496179739462 1.0282250347384936 0.7513390786448737 -0.3414820948074506
P 6.39579556611166 7.756003755931395 10.135771648049676 -0.29092186536139575 0.31478530224255463 0.14830508699771233
P 2.3003637629350675 8.459117263381994 5.760005795095438 0.9424090674139382 -0.05001875512028805 -0.7167364009693398
P 6.9636317744208185 3.940492735436618 1.615618083001297 -0.5695587427078515 0.6454517944917401 -1.260555572819242
Ni 5.238178486238806 2.758386421981197 0.5686058957168942 0.09259236681644054 -0.07447431705949109 -0.5295040407788106
Ni 1.5208048660550182 1.1103349929264046 6.921149180231397 -0.18059814270346317 1.0459612756759922 0.13434888192793637
Ni 6.831223884372693 0.8427328180879641 9.156958457206105 0.14227739274639367 -0.5333699514921201 0.07044925506049803
Ni 2.972644657581085 1.6952613296089556 9.201899900382722 -1.0191359279530319 -0.41213806656211605 -0.2507722897257036
Ni 6.330963162541005 2.0188909728191304 2.6754803504422715 0.12136198274996517 -0.4100834980259324 -0.3433448590478022
Ni 4.016216260943221 6.845679209427694 10.545530485214286 0.27368853220224476 -0.47623823947613464 -1.0491149908136255
Ni 8.23117068314513 7.03709045186949 0.4631866930841927 0.25225633047039786 -0.16241812936032674 -0.21292847940505266
Ni 7.594604006081944 3.94943482478088 8.150173039352229 0.4373791005170919 -0.2832322100266219 -0.16086672571280683
Ni 3.1499976001254444 8.366267516305859 12.331922623433101 -0.924899340664949 -1.088071831692797 0.8796656656381302
Ni 9.301306878868017 4.953123446405744 10.122908935274456 -0.744751398125027 -0.7014774179277403 -0.3948455980302555
Ni 8.676398304158804 2.533724322593282 5.827900706358769 -0.754990559354532 -1.019836296454166 0.4630389671770413
Ni 3.562145806874676 2.7013501487772844 11.541182054388159 -0.14809399942817075 -0.36467498798414616 -0.14440318084014483
Ni 1.0755321285461659 3.2686539824433445 12.628897441292168 -0.021628119792736943 0.005702706811732115 -0.7431573141650298
Ni 3.0863021322332727 8.408415346101062 7.835593765074743 -0.04858150845312924 -0.09687968133788477 0.7074308072976978
Ni 5.79375203115861 7.993072891493234 3.462350826530853 -0.7559788914097303 -0.4013913695685732 0.5645034396721311
Ni 3.2762245303341975 8.19922820455917 3.669230710509346 -0.4122689357130255 0.3935453911615932 -0.09849099168906263
Ni 3.288252587948628 4.35837976037248 9.259810531263184 0.788765341812132 0.39326848335112274 -0.6779816487986453
Ni 7.244030791951522 6.041901777936144 11.30564417267266 0.3907158921325981 -0.5020991664032965 0.35447953550838307
Ni 0.47734515160092406 0.0037591063782233545 0.32731566086620995 0.21410193088786353 0.12357775945436136 0.29494949846355006
Ni 4.7165596155898974 0.3640937254053376 1.6569547182132005 -0.4740237483233191 0.026918935878031063 -0.4522917559628662
Ni 6.092053273975908 5.716386265227533 0.290485261192676 -0.13011581768319525 -1.3879452498205258 1.3534294754318432
Ni 7.722734852387204 8.601541015359617 11.68859388607265 0.16413434072048508 -0.019385603615463386 -1.1081958561361818
Ni 0.22446087981942078 4.800115364659384 5.707061588004162 -0.8313132424766714 0.4527406705748267 0.5400111109577216
Ni 7.919145002494712 8.925224798364006 2.6080483344194656 -0.38889195154998185 -0.24695214464866502 -0.45079563103331394
P 8.435440126712628 1.7064141272169346 3.693597227225031 0.17253310630714155 -0.02237245415792921 -0.043893101838524406
P 1.753479654986529 3.0750500783359023 1.609279215428801 0.10344884991497022 -0.0309005462335984 -0.05292307325127659
P 4.827979312081261 1.1176799583413684 8.10154648084948 -0.6270933465892103 -0.5581718410271483 0.08504386504522127
P 8.470603923054291 1.5624383678051925 12.193280536081291 -0.2528800800973258 0.2738168302499929 0.939589338576956
P 6.391482429172652 7.842916172242117 1.348966061551303 -0.2326624674988703 -0.6023369655801368 -0.4241484607594308
P 1.8112016989171453 3.1843402762548685 5.923568429723718 0.7176398866202157 -0.66179526884677 -0.38751615424837776
P 6.75921795806875 4.107144045324778 5.932324639107846 1.9805403055225503 0.31624003241121024 0.47973828220959314
P 2.3267659359131794 8.441287224487684 10.117428183440243 0.9378949815936687 -0.05866023284536994 0.1640610642803884
