# total energy = -381174.1571512305 ev
CRYSTAL
PRIMVEC
9.15482679846617 0.00000000000000 0.00000000000000
0.00000000000000 9.15482679846617 0.00000000000000
0.00000000000000 0.00000000000000 13.39901440363078
PRIMCOORD
 96 1
Ni 1.563021848224032 7.231141164517563 4.400866111670658 0.7888134214412479 -0.4284319186261331 -0.058034169225596836
Ni 8.928647414906456 2.0201040287064806 7.552314451822431 0.14984852022543224 -1.2594240303179602 1.8903421499698991
Ni 8.068624698216778 4.123928946303203 12.464446500452933 0.47226048577530927 -0.055684952267129904 -0.2281445250238587
Ni 7.948513373750953 6.915674996090133 9.284270314556208 -0.6957888521833953 1.8189706402054477 -1.321383759850208
Ni 0.9846473706495311 0.5582677320010029 4.058373979755761 0.07433110661340747 -0.6666631384620324 -0.5795582771227245
Ni 7.3063663743602225 9.02188932341899 10.303251946735971 -0.5339970435531578 -0.2993579119438909 -0.3598492844607286
Ni 4.4076919503537155 0.7761718292622851 8.223617742841116 2.9871516186460103 0.14114250781100207 -1.154498081636831
Ni 5.306283951340232 7.583299877797053 11.53286599744049 1.3486150847623355 0.25533496939572153 -0.7067144979569635
Ni 7.4830728366193195 3.8612128885138897 8.807345962987844 0.4967229896930478 -0.8850382428039533 -0.04447905624898146
Ni 3.4149700226783573 8.81986061089522 4.375193231548743 -0.10693166625724809 -0.17202557054310375 0.30263118337852396
Ni 4.332466740511057 6.107541836341942 10.004186650090595 0.9324285591624586 0.9954303568059759 0.15865660543536544
Ni 4.696114761123216 3.430981814331614 2.744533693734894 0.7741465634576925 0.5771848917945415 -0.5820134235314364
Ni 0.7169657349341306 7.855674277607056 10.828507374161992 -0.25356373642791175 -0.6058516636016146 -0.7729952234620688
Ni 0.5412617261833415 1.2433902337118499 1.2956441527504199 -0.18558633994667395 -0.7079439994886904 -0.7551720792377188
Ni 0.8202935158677 7.090962460232447 13.069706872668535 1.9054522661384603 0.25997838170500387 -0.3136090225462663
Ni 8.302310800984664 8.171396781178162 1.026251479950975 -1.8627079331923986 1.290579629985158 -0.7295723763917435
Ni 0.5611542488153378 2.577751978949379 11.957561148002 -0.6931717262755223 0.42826788224444307 -0.41523393187862034
Ni 0.41197360357387713 8.465623751986636 8.401650739468742 -0.11631207903088354 0.18442600108998564 0.6557485484320577
Ni 6.5997785508143885 6.705791442377975 6.305616579274491 -0.28578197303166913 0.33942238406494446 0.11740814030853973
Ni 3.6985957043304714 4.610288262124198 0.5735581233213398 2.030046125562162 -1.7801914625547213 1.204611967574087
Ni 4.16096021973798 6.87138394519336 7.572988796642643 1.3358133050119767 0.9252001597348195 0.6674365262929473
Ni 1.834142036795329 2.6101966842776476 5.082527173459209 -0.37903717024308914 1.9240835080864025 -0.5267439615351703
Ni 2.6039164732575593 8.974009580510737 1.1467866728865237 -0.15156447447527444 -0.32721298648294617 1.1705589917544357
Ni 7.355555257466539 0.13120056587782647 7.727653182993481 -0.7470659051908167 -1.8255516358570751 2.6018486699988674
P 0.9802438990742216 0.9358521450852896 6.193211787806785 1.2051999788670729 -0.9363659465436519 0.8439396729914304
Ni 6.987064333604196 0.2928629016510483 2.987484480981393 1.34411334023724 0.6429537106602345 0.7095581380533458
P 2.7566464447562913 1.0025359017475663 10.698818270149204 -0.9205721740445049 0.9337017694479275 0.96111538557419
Ni 7.688662776674887 7.346061702323928 12.132445799775677 -0.08617052245049676 0.5580720822244906 -1.058695949633841
P 6.564376836507273 7.451168266058085 2.164785076693753 0.188431779815269 -0.43041706737696195 -0.6511534728622076
P 5.216365244868941 0.8363199552434527 4.408222014811534 0.9936256994970695 0.04617289901163661 -0.14094684686042822
P 0.7177420642264097 8.42674320358676 2.270006991242565 1.8678401122126413 -0.02227038136242616 1.850990130534838
Ni 4.208345602011997 2.0711604964310166 0.9230179937309725 1.3612721114047137 -0.7175537546643126 0.04180639451282477
Ni 9.003515586513279 2.4420042107192526 3.08041970280417 0.5939741954377384 -0.2367572063935342 0.8249867860380113
Ni 6.12087126381315 5.700152054426605 12.903867189536033 -0.16368491188789228 -1.0040006149734904 0.38959951913996776
Ni 4.981470704995149 2.855152378540764 5.0870295171613655 -1.5317709608906458 0.021604208533336985 0.6055233337279184
Ni 7.303253733329858 1.5204427498939592 0.8192974707379835 0.03676754653733668 1.3462044184383137 0.9689816756961441
Ni 6.890425984437941 2.874881029777338 3.6168495115291983 -0.852256420387242 -0.19648807446084227 -0.36325933858354215
Ni 2.235471323528016 2.3159880231222942 13.376517152583585 -0.8281255887773094 -0.025571163600884992 1.807097542916946
Ni 5.10717562848907 1.0960707647100159 10.423923546587261 0.26081938954906053 0.5216094685220823 1.4643849181365038
Ni 6.023912495717299 0.3234345294651624 12.701889744040999 1.798933776159231 0.538438367153963 -0.013045777440364628
Ni 4.653929320335218 3.068871804581518 7.751396225676569 0.43506819299572813 1.1615403331955931 -0.8854251938297267
Ni 0.7783296218824524 5.768309738165024 8.973506980532598 0.049999214736262274 0.2087316677148857 -0.17259121323858664
Ni 7.668448919630638 5.241330456897774 2.531596089882355 -0.6894395129265998 -0.5073123351731198 1.095631903428242
Ni 0.05215138498109915 4.193459854025608 7.052035222217117 -0.6931971801968191 2.149230641044834 -0.310253218700156
Ni -0.02006463337132237 3.812985262196362 1.2645571082009837 0.5968756853552494 -0.37707413297944736 -0.1571352836948326
Ni 3.354877741139205 1.4454372558887376 6.305723690745242 0.2205587422568008 -1.021411097140454 -0.4179045367322481
Ni 6.626089522347527 4.117923380079913 6.351333952149296 1.4244160910530501 0.555757832269017 1.65097527386766
Ni 6.082622398445907 5.584224485698651 8.392740346777996 -0.62159041449311 0.5105853494974367 -0.24822869736824343
Ni 1.9013293089184002 5.824795018039578 6.514708240489218 -0.6159650978865328 -0.7813199412776802 -0.20964672332998735
Ni 3.134511911015967 4.89225692016897 8.46867230923108 0.5677821104234028 1.8134432826293156 -0.13884111337133506
Ni 2.0671415275712226 3.2114399185987663 7.6098763393004285 0.336960038567381 -1.875241289772719 -2.1380730817661173
Ni 5.382259856960802 8.869708641513851 6.2947360679080555 -0.5417867148009056 -0.7077689073634068 -0.552386601803939
Ni 7.2336038128621745 5.4490992456745975 10.613734227584194 -0.3814396090369947 -1.5409850232897462 1.4839792953286637
Ni 5.838984999207415 4.886562618048716 4.4741321886295 0.127821879442696 1.3110949763296904 -0.45460677724928805
Ni 9.050159427835945 7.521642120916158 6.3929911594447875 -0.25889466172252185 -0.7278463948395723 -0.8348883614224395
Ni 5.007836605487647 7.55206360957469 0.5865790331374788 0.1426347760858124 0.37530495689416654 0.7496069264451155
P 8.25625286856183 5.63759712454284 5.492041790619098 -0.42187149179979605 -0.2685766648969762 0.4061831345302618
Ni 8.288294761521465 5.96265755120504 0.4653599746579062 -0.8034913351683969 -1.4981347608934392 0.6721102776195328
P 2.2725758355752714 7.254852165307692 8.533631296569473 -0.3651629833641582 -0.024026959042216682 0.71252981908716
Ni 4.76213937027318 0.2455846308477814 2.3454436775787575 -0.19171610699349562 -0.6961058692031818 -0.6686886535324935
P 3.4431028046969154 4.32599427813321 6.116194062923698 0.3256001334698715 -0.5321515057039868 -0.26205660439027123
P 0.4381454217433056 5.321673214787415 11.177832668621194 -2.6740143935298395 0.2584658017152194 0.43160928791285014
P 6.292286236320628 1.9950289587589278 8.770445603572874 0.7620621214893327 -0.05677072913214094 -0.23802861690679006
Ni 3.1247162465968787 1.8339955595703707 3.1587905110528087 -0.6283547298001372 -0.758207780740249 -0.21066025219616624
Ni 3.9195016692207427 2.685879635448301 12.023377027106399 -1.0049735204097208 0.27894772371865506 -1.282403521932269
Ni 1.5800772901051168 4.582366041116517 13.048857670661029 -1.4483530614846218 0.4117616570593038 -0.048772284307696645
Ni 3.727634814178459 8.462950542631146 9.795282662820345 -1.066293302365125 -2.4775450881220746 0.733866375781407
Ni 3.0433847674387695 5.034275744592624 3.81701704781334 -0.3651755817696485 -1.016307200254985 -0.07781520850726599
Ni 8.469734269112028 7.283552546572963 3.744220613457021 -1.2669409075202955 0.5889672291414502 0.7307036617827093
Ni 0.20631408683645483 1.1769261928870107 10.178815882203253 0.8107346469943716 -0.6316688817750348 -0.8108302920319713
Ni 0.8093004001345778 6.166379906642389 2.2743884912341303 0.8717212139800729 -0.13072954000779421 -0.7860978222822977
Ni 6.6646954259506055 1.7814834744228116 6.377635768855875 -3.2338404823309594 2.3256242587486464 1.0220839548377625
Ni 0.6173786161329343 4.782655336593904 4.287939495089039 -0.07777947017332412 -0.058687229428563435 0.10881191399909647
Ni 5.209169551192863 3.9622272447757743 10.13258858548906 1.6352748324132675 -0.2177827221735604 0.7037178772224848
Ni 2.271468101561524 0.686868327135819 8.456024000855928 -1.9995955223817885 1.2315368169893888 0.33914444781320946
Ni 4.115259325550983 6.404863138527659 5.331655637668326 -0.44446300394706684 0.41458524255102797 0.13392490701664034
Ni 7.169126369400832 2.305725462548652 10.819985146117386 1.6494099862630691 -0.24269028404851753 -1.0310316509493533
Ni 2.4440640466952286 5.179828332068398 10.920477677265355 0.5800676126589752 -0.6668765400244192 -1.1370811717119644
Ni 6.0126245945689485 2.914439035342646 12.577104880616348 0.1805336080141149 0.872079111540124 1.9856426597461225
Ni 5.255328186707855 5.696856316865042 2.505280540935936 0.7429012322901658 -0.4822487073362727 -2.121676128465333
Ni 3.2531401535790896 3.0284349356664606 9.723208544279602 -1.7182702995698924 -2.273387412931117 0.34573007145052714
Ni 3.604218597324511 7.087767425763043 2.6179663855790305 -1.7623809167358615 1.2832571281818157 0.5273792811263239
Ni 8.517449225142203 2.7643822731994026 5.367885863779111 0.14300347227914084 0.62502926497133 -0.8794725757907176
Ni 1.341493355127687 0.26679361753909064 12.575430462838543 2.5012475739453373 0.10827866720344577 -1.2423269656263571
Ni 3.241650846246421 7.030201876354423 12.394382781824744 -1.3436842231196213 -0.49488799336683803 -0.1853834799072485
Ni 8.068185266541903 0.4538953853569494 5.624075445713875 1.9889709527884065 -2.4382244361455814 -2.6967930819872525
Ni 5.752297946511767 7.518355538181155 4.1151320734618 -0.013639959380937799 0.82117281160856 0.548499608044707
Ni 8.40934903312296 0.4306979703368308 12.343895744312233 -1.6114625604850181 0.6548635747239432 0.04909778596791544
P 1.7959938745202455 3.487091746317212 2.8197955228837928 -0.6962519078627428 -0.04191103841148911 -0.354177430886932
Ni 0.7750695881444737 3.4569540572820365 9.408586450860996 -0.9048982149526739 -0.2770739037347099 1.5547957039205933
P 6.522575898434792 3.818835196368135 1.2262029623283026 -0.025262374111214556 -0.40936641735424983 0.20605977730967737
Ni 3.8704226440331446 0.12664695514693458 12.647530214893655 -1.4144623222744477 1.2576813365952404 -1.2470796498199943
P 2.53486161651627 6.241660045444407 0.9336018887168673 -0.7007919618249415 1.6819879201990904 0.15386561180462532
P 5.729584821816667 7.955644983641111 8.918678724265385 0.8710712391008997 -0.5534412683206984 -0.09306827801159456
P 4.303876217164504 5.03816654588058 12.033292619753421 0.6728836654504476 -0.4470009398775721 -1.9993813494884534
Ni 2.3348469658356787 8.088902639046946 6.5535512541001975 -0.20467549536764107 2.1668591527598746 -0.9152672168918238
