# total energy = -340891.1287463113 ev
CRYSTAL
PRIMVEC
9.10867639206099 0.00000000000000 0.00000000000000

0.00000000000000 9.10867639206099 0.00000000000000

0.00000000000000 0.00000000000000 13.33146861890298

PRIMCOORD
 96 1
Ni 6.355096258516127 2.231653065191948 11.665875470927885 -0.023246372122450287 -0.40685187846251225 -0.5453744321521639
Ni 4.5991073881192985 0.07690637730978256 5.992935281417758 0.25828556738361325 0.4416417324481878 0.22945450208453386
Ni 2.8706995901232215 1.4246607632048465 4.82124523593083 0.37740143441187907 0.24340659338925175 0.5073138778350167
Ni 3.48330362721454 4.354302598871417 5.042708130814721 0.6678180780020821 0.7172591062420292 -1.1384628825508392
Ni 5.115432714749607 4.4442598878508806 2.7660664015889056 0.08092264378799612 0.12660960430214968 0.0911144967193334
Ni 7.1888771780496645 6.178506347474726 2.4806396478147263 -0.00829180769514701 -1.1128742354484575 0.2931389276173726
Ni 5.055497623469243 4.4281648564994525 11.487247038088832 1.059359294249453 1.5513902777834703 0.031669820299455136
Ni 5.706066624155784 7.709091909539658 12.541299437621841 -0.5359929909372639 0.8566350090709118 0.15550494718026123
Ni 1.627401684438637 6.859507436302255 0.3090528388445456 1.6256712478852324 -0.31228876107294606 -0.16439762168420075
Ni 2.6444856095840357 1.6097672867610102 0.285835733348418 1.833556508439423 0.02888223025198897 0.2401595472068638
Ni 0.7213634560739638 9.234558395419242 4.824511607318845 -0.7290298736247122 -0.9874568516821963 -0.10422995105536888
Ni 8.734783533964682 2.8222596485686653 1.7082411882552377 1.272926692790085 -0.4705494166214734 -0.8489816062907121
Ni 6.861192541452234 0.6698110797640131 4.86622570215586 0.6669516162367288 -0.7556958129516728 -0.4618050947699401
Ni 0.9931554320156851 7.4626293411712545 2.7685457833284977 0.14134948161548558 -0.4505467482473015 -0.6999895205283042
Ni 7.651115183703864 3.715410921440412 3.783991057573997 0.6929495829623872 0.8000653402059834 0.655942923831051
Ni 7.618342165705878 3.9543679403840395 12.720114598328866 -0.13341480014944118 0.05416671585039059 0.32417214277409334
Ni 8.094215860060183 8.555497454683314 7.0724774012302465 -0.021628376903053075 0.849295280876389 0.15919319466512583
Ni 6.845179488189182 0.8307049194840881 0.3570592073983496 -1.2823143046525722 -0.7058673194653198 0.3691523070292094
Ni 1.6800589432063855 6.346570537324878 9.405297803553443 0.5062417278167604 1.0914957697726815 0.1583125918323854
Ni 0.14188585362830242 5.325014252024668 1.3117086204355224 -0.47819227787871194 -1.1044690421038978 1.237511803625901
Ni 6.4073071921360425 1.8628791889644685 6.9836896663116335 0.13888507923539306 0.14229693313041944 0.0960921524395829
Ni 3.4309287374178696 4.862712485635063 0.5796133217253084 -0.45223004948699536 -1.7314502885952763 -0.6205930835768473
Ni 6.362756655441171 5.52548711281335 4.8344036299830515 -0.38765010872308076 0.4710528386204533 0.8256691568170167
Ni 5.172088682494875 2.7808789312910527 9.426201305222033 0.33287095609967193 0.2803248065718398 -0.24654796723171085
P 0.09469562248767782 5.769982207060695 12.589066247984055 -0.29210765813938083 -0.6107763545967416 -2.1159744500948654
P 3.847705338728559 6.264073254387756 12.364963658654412 0.7926093981485705 0.02400381911376511 0.5802604453960717
P 2.5957359730289435 8.442176410516291 1.4879514909027922 0.1849592478856363 0.9572211927261064 0.347383290783234
P 6.608945963514982 7.644074176779894 5.859260899641924 -1.4765647480321473 0.07604371842914001 -0.9058081283614529
P 4.817333059379931 0.9651371431435878 12.582987117297046 -0.5206237075700453 0.9159899539904611 1.5323358322551803
P 4.237055715138766 6.3063192959315755 8.130555835770236 -0.8306833222021566 -0.7098587000129001 -0.11266625474818016
P 4.985706944230619 0.8596604911666336 3.8239453561138435 -1.2657093491060396 1.4043085216698976 -0.013346596510235077
P 0.02294839953977949 5.526133828843883 3.6190001351703494 0.7916717168256495 0.3647649765947911 -0.48581225631781494
Ni 1.4584175182633616 0.9651280344671014 2.7628801865539705 1.0307596282348894 0.7307501987499286 -1.1433603198524565
Ni 1.6840849782133644 6.511109669374801 4.985183195332652 1.3114055655915737 0.18142783769361012 -1.199747954613566
Ni 6.026464319564114 5.64338982125302 9.276875484639655 -0.3948090883653652 -0.04957961070034042 0.9735546397788072
Ni 8.806614556736255 2.2270714009193004 9.908174169351616 -0.07647669220150055 0.8322336974084119 0.8041819334775182
Ni 2.4697083251634244 5.157851821146668 7.098193927554236 0.12265396208851134 0.044021142775956444 0.28680115832480285
Ni 0.3429607979327345 9.029804456681964 9.294059913698856 -0.4746127880575697 -0.7603261126348325 -0.41600654837858675
Ni 1.3169324464004597 1.0121288051368094 11.444612966926693 0.5071932930967523 1.2095567131738716 -0.18426093626703105
Ni 4.23953327514306 6.803388880469683 1.5167476607468258 -0.04409570476763374 1.7751790969417944 0.37193424064972075
Ni 5.660450372312005 8.015161656834913 8.138928531196514 -0.038427707848578976 -0.0703834348195691 0.07053204458229144
Ni 5.381961697417499 2.8537756692115317 4.899035154859791 0.09175238741364843 -0.25239414159984275 -0.03143893523557166
Ni 0.865118410117271 7.182309822302987 7.076836813796627 0.05640460404197383 1.190834711284336 0.6055084213295829
Ni 5.232725141864691 4.53345204800549 7.2324020777721705 -0.02692484941530202 -0.4363370324058227 -0.914474031566567
Ni 8.14469614514769 6.666940906703747 9.392633099766785 0.6894361704924901 1.8355216025855936 0.05861986652573776
Ni 4.660326802784241 0.34690758745428185 10.567829074833318 0.41266000050385704 -0.8144128671769071 -1.0496155845991277
Ni 8.205687842900472 7.408687759018927 4.305370788786597 -0.3593782583615811 0.32212708731960654 1.0691945351723198
Ni 7.330644618883644 6.158048260086322 7.283021725609917 0.08056037535257093 -0.27267140379164007 -1.1229601589295497
Ni 2.263670063041565 5.241423927909182 2.6556282535298217 0.18180064765199658 0.14544344917920113 0.4484397292066277
Ni 2.218235984727514 5.03084043622062 11.461010406337468 -0.16237339216532035 1.299503414837349 0.7420445407168252
Ni 1.2138586632806119 3.3326916615122886 3.8166529497188497 -0.37406542806011067 0.021486452008550094 0.2809318440282194
Ni 3.541444309227088 2.5973482087670323 2.8242717552045065 0.21877953886919096 0.1525944584016856 -0.5737406419996829
Ni 1.1871155891166076 3.229144227215149 8.152153418587087 -0.2695372290380326 0.35959577368902584 -0.07690838042228045
Ni 3.622374899808552 2.5984412499453975 7.211991355501497 0.0904156708800959 0.7611298394830505 -0.33454243026482383
Ni 4.2703388190199885 6.838584806413046 5.9303304370592365 -0.04652668280662955 -0.7227535536976971 -0.27948071340398967
Ni 0.6172239578052098 7.65016788134928 11.41607001828898 0.09976214509200237 -0.539914180368541 -0.4774623416912228
P 0.394501332963253 5.361986369882874 8.017131863558918 -0.8180604912318232 -0.7343610560296385 0.7603878191107034
P 8.57441617574552 1.422228746582984 7.909320657798505 -0.34274939155564843 0.7534185868817218 -0.0907781964258372
P 1.8362727449477598 3.272383114495983 10.351259360957911 -1.19541693133838 -0.7076706912226458 -0.035910854963996215
P 4.08159793354576 6.156681958613366 3.641970395533696 -0.16643496382920367 -0.38577166075344527 1.1072661452330608
P 6.957881142355132 3.83171050281848 10.273483105043677 -0.37756315680072394 0.3178068626776978 1.0517796821299823
P 6.571418216391106 8.139986959404231 10.425902232160828 -0.05051574936136461 -1.2246259488021685 -0.1967071324501838
P 2.405537699316895 8.386385767037229 6.015598579383513 0.44996336494000566 0.4254967472572091 -0.6927783474918455
P 7.017879994370899 4.149412029986841 1.5954438929861816 -0.5836010797335304 -0.3319463874028734 -0.30811328953901773
Ni 5.176888955003197 3.0113284463964036 0.6424777633636916 -0.502700033212089 -0.44031967120265453 -1.0372946011399298
Ni 1.3185628994915215 1.104144655002195 6.9044478243507434 1.2320644073580846 -0.5402723350389083 0.650634367133944
Ni 6.883326625314131 0.8398509415440598 9.11656460021471 -0.51270702382613 -0.2672155228833914 1.1839408123779804
Ni 2.946784364813933 1.616416620596066 9.515709536450718 -0.8608374771880335 -0.29972403703405803 -0.9621636243330461
Ni 6.485632701242403 2.115399027196312 2.439859192317565 -0.13930056950625685 -0.7585703062859903 1.07284190211692
Ni 4.049043523783447 6.933588302165962 10.291973718311024 -0.1945134672329747 0.6638974027914373 0.0454272790948637
Ni 8.217292296744118 7.686183588176418 -0.007143934968265878 0.003660479570722728 -0.16997794398545565 0.4559730614691953
Ni 7.589422117861629 3.9190718189993268 8.162152012766182 1.2010029100665898 -0.461544899130018 0.9413562006693917
Ni 3.2368592761991106 8.42487903386866 12.445192881146424 -0.2015240942228529 0.19611963537782998 -0.04473642367542618
Ni -0.12114448640117219 4.686823942683114 10.373655774702614 0.6724396359344935 -0.45677781675867785 0.47822030290317
Ni 8.600849554908987 2.201394041904202 5.759234879674419 1.2602208151876426 0.1696724969298949 -0.030814157167379192
Ni 3.5867326487173568 2.7725991443649356 11.586126275686704 -0.5334532552345459 -1.0270564683516892 0.7353514449673658
Ni 0.8298022496442882 3.548804119828081 12.779359251931561 0.8622731811932957 -1.0110881179478908 0.05831596213207377
Ni 3.063001968103623 8.52747005713473 8.218837128276206 0.7933858713032788 -0.6298907068286893 -1.009356737079081
Ni 5.5610747118456265 7.870279048642593 3.4945109427633794 0.867236695846158 -0.3391053670451579 0.5092884850628843
Ni 3.108609111270915 8.240701595314107 3.7236387889105567 0.6266166640631079 0.1835824221427677 0.10244997633681065
Ni 3.496884663855729 4.564576395559442 9.385860798799163 0.22699524191076392 -0.4042442656363361 -0.3772885629830986
Ni 7.246034123001684 6.139967537260863 11.635586389007734 -0.16550113916102466 -0.2769669458432005 -0.8193023340587244
Ni 0.9356887920631293 0.13535948692581293 0.2797119701466264 -0.6137544633884591 -1.286826847810945 0.2421992033447119
Ni 4.704221514772095 0.5673821909394008 1.6150275474318934 -0.6019595276360601 -1.0339133433725225 -0.30450268936962394
Ni 5.81960627655848 5.426412038671022 0.3858034577864111 0.25771529670244 0.6951049387424931 -0.7094853758338814
Ni 8.003957984756669 0.35464996246770275 11.478327822073371 0.1568959139905169 -0.6096424981026146 -0.4922595546050554
Ni 0.04061649932040594 5.119704684021719 5.779445211062392 -0.9682759078783711 -1.6848282178613632 0.32386978104232605
Ni 8.480013852640703 9.021424474314497 2.2625770218632 -1.0381464076172637 0.6822352818686767 -0.06077856473995339
P 8.597060345490654 1.684513086008224 3.6157210116352534 -0.19543032262028923 -0.7329757456463377 0.07531146824880579
P 2.013882827755635 3.312160704711993 1.374808065927254 -0.5225440645212098 0.5603076564232286 1.0872771037056437
P 4.712273584786053 1.046459406813966 8.130382770916995 0.6015980305315832 -1.0182416982735367 0.7105161310912408
P 8.658780737362349 1.6371024248966293 13.096181791818987 0.6990132726579639 1.6508145799200795 -1.0184689837929943
P 6.7382071915331645 7.986250717667152 1.5049892702705614 -1.9532719567249008 0.45733857435815434 -0.327012697546682
P 1.9541845620639167 3.148359375457467 5.960392712934876 -1.0217006033564147 -0.291344297610795 -0.11223713763056153
P 7.225457622818957 3.747090898260033 6.10291981738782 -2.58517763710109 1.723851907422728 -1.7458847188530515
P 2.2386576374099723 8.564760978669959 10.16221880002728 0.6209520095781628 -0.33554618893898985 1.5053312786418784
