# total energy = -340858.16954605025 ev
CRYSTAL
PRIMVEC
9.36147721329503 0.00000000000000 0.00000000000000
0.00000000000000 9.36147721329503 0.00000000000000
0.00000000000000 0.00000000000000 13.70146817427070
PRIMCOORD
 96 1
Ni 3.5867189051512725 7.130655859777036 8.227703962010747 -1.077600242737512 1.4889680067925066 -0.9902580685764171
Ni 4.080246618445429 1.4506170515603354 2.3222613795351625 -0.40692875444703464 -0.0175115265212021 -1.5632142670015916
Ni 8.06406066088139 5.853956330506176 4.3331441149140195 0.3295730020746904 0.205807037868923 1.2035655285874431
Ni 5.506111924450087 3.3860181967669436 8.665438207703813 0.3341462232676697 -1.3253820823763238 -0.40586457484857846
Ni 6.888390192895277 4.026137280581656 11.543897709240577 0.17110665827326016 0.6050250539352613 1.2588810133302966
Ni 6.524921481494094 1.1164591250815532 8.837351437737816 1.2736854253329808 0.04512748846625777 -1.0039257958714967
Ni 2.209879654923877 2.5945895579535887 4.27510482894727 0.1723515864239548 -0.378079177205194 0.17793859359342903
Ni 6.781397870672949 4.706435824277219 0.06268632321858023 -0.44556549298262615 0.751241376724745 0.13496826067949014
Ni 7.215995085376717 3.131872815395716 4.324922865690497 -0.13043309181329793 0.7519929101787888 0.5371332751892943
Ni 6.9693950545795715 7.418914463843003 9.088691184410466 -0.26536227172473653 -1.1823912085026733 1.266964047448747
Ni 5.809994833861145 8.967752133546366 5.096850611475474 1.6337414264878765 -0.1839475187916703 1.6005104323488888
Ni 3.1193939663693477 3.6798843256392075 9.597508062168137 0.6451370914647986 -0.6235297976076681 -0.010572633309523728
Ni 6.018699605199371 0.7888242758732686 0.802798152798745 -1.5729050119267944 -2.3899316625774643 0.8230314620838535
Ni 2.6447109065561207 6.12848164760914 2.29347483733255 -0.9919022890480594 0.20128601007011787 0.057112685852591966
Ni 8.015427787143969 9.021524458233133 6.435456652919231 -0.31662878320919663 0.553222467441673 0.05466988073905424
Ni 5.113585188009259 9.116094100291926 11.891929344839445 -0.11119815484308591 -0.12943036158039645 1.4593782089505318
Ni 4.571143756663509 2.710812296635031 4.442852201654389 1.319842126394701 1.9011490107774163 0.03854237904957233
Ni 1.0341155721663724 2.89166667348455 8.808180138824786 -0.748838166599891 1.5941225265446741 -0.3778758029451363
Ni 1.874354952782792 0.8190206565330237 9.265877734516902 0.7685058202321474 0.07385699519046636 2.468046147492704
Ni 3.842446376159002 3.8634441693819155 2.532318884319982 -1.3461954195772494 1.015579063839709 2.3659844077332477
Ni 7.768528189078374 8.192303536209387 3.849249361595957 -1.6172436859431694 -1.2695127820125296 0.07325869948483511
Ni 8.835886366565553 8.631955948568248 9.502995525119893 -0.6842379141210022 -1.168747906687626 -0.5145695309561655
Ni 4.709150652647547 5.248849171191552 12.299862264208027 -0.9376702671773721 -1.6427554570610288 0.945042134161411
Ni 3.45106173992914 5.660847780081626 4.839742322589733 -0.870137928653353 -0.345465762045547 -0.08059611368651282
P 5.27957353916195 4.855124165676925 4.054921950488841 1.3532446131145468 -0.6178283763475166 -0.5288877473510504
P 3.7446844703957876 7.779977275619446 4.9230332569913875 0.12055054259226335 0.46292352464509956 0.6975305174648503
P 0.3277172302071082 4.591383270238159 7.207136319560023 1.7456155243520648 -0.19674878432139664 0.37397389678756887
P 4.310136412549349 5.212723230911915 8.545674022220664 0.8865091709225248 -1.7660627364628232 -2.206199859341026
P 6.849006458571248 7.95968019078086 1.7332222595820224 0.6984113774079069 0.06947789228616422 -0.3025203688322725
P 0.8420611240676807 6.504204532585352 3.9427620928857516 0.3567822154996307 0.6169369748814988 -0.1755785780016847
P -0.007648326822612832 2.7668032914037544 3.571739605581061 1.2296707103149274 1.7818765635666283 -0.3054557973115126
P 7.429277619035943 0.46908770492720997 11.442548485437674 1.9648357503031 -1.7486666524735628 0.8496606346356076
Ni 8.832768994678245 2.9436509560377555 12.173001142905754 -0.3899792710768897 0.02648339100250923 -0.701840971914746
Ni 6.309467085138606 5.693304021322751 7.33694443386567 -0.23617150909339327 0.26982133593735463 2.306589610714698
Ni 1.6384738133098722 3.6221146502140624 1.216552974800107 -0.04102066538673581 0.5947498972614983 -0.0037774647645612363
Ni 4.6200106673294075 4.19827612221471 6.619069857081631 0.7232981133472576 0.4237147156561219 -1.1955701690867924
Ni 9.037242378349616 6.621503841137787 7.922531041049925 0.9611616654310929 0.08439491860731273 2.361886069294158
Ni 4.668006960621374 7.936210967593234 1.0581848660386124 -0.06549345371711945 0.17565211155209748 0.227521289617563
Ni 4.565807714694245 1.739325006528976 6.597983129825896 0.5218832910087593 -0.253682264283647 0.6185390292612961
Ni 0.24290973650892683 0.5430939263023428 11.200511238598107 0.6597414716415347 0.7212152626762999 1.3244940233444156
Ni 3.3089264325267767 1.6336152066746994 11.044972168228037 0.6305167704484624 -0.7381048393427869 1.2224659650363723
Ni 6.130119906108475 1.9104528086310113 11.084761254512188 -1.9511009172155107 0.6195427879354621 -2.4752750611409757
Ni 8.316080986942051 6.430510984546665 0.27441297937729486 -0.6892466801895033 1.3901885373287477 1.9511487397343104
Ni 3.1637299220999404 9.039058504914593 6.763784251435806 0.21358951002781923 -0.14794307567260329 -0.31801820735755554
Ni 0.9613862562730077 7.278614005959895 11.195990581287656 -0.24472402664909468 -0.6611404088715904 -0.6667580121686839
Ni 5.314042497987972 7.032790977765293 3.2282988383711864 -0.6176550839944459 0.0009608212513725389 -1.48964652091677
Ni 9.258528974962738 5.216215061884785 12.411036358268374 0.7342278728858839 -0.22016510636280792 0.15446802127531462
Ni 2.8484447335335057 7.275009837261357 12.958150102854228 0.7269884177146513 0.7615815823084884 -0.20356683568449455
Ni 6.982997280862627 5.21606527825056 2.4075537977491472 -1.1600976872117956 0.05523860875833068 -0.05086593361193176
Ni 6.388758796506452 2.465438619343103 13.264678565704786 1.8855575840970622 0.5702380281630631 -0.2446669481589141
Ni 7.853436786729658 8.776469071163932 -0.38230213110954503 0.53834426477826 1.340418664994472 1.551878530273798
Ni 1.3348998326444022 1.0568358771828736 2.6274623849274015 -1.3184871550287034 2.8667525140299466 -0.39460957076004943
Ni 8.52427087703763 0.8941624250851247 3.9784948511255473 -0.9247905830012266 1.1653782188844446 1.3335484202372
Ni 2.6601667053127107 8.677808463595369 3.0163783996356925 1.161738051028696 -2.442571914481 0.02829601873121578
Ni 5.844810167341313 6.779460044905163 5.368865180409741 0.015806370904637292 -1.9270145656902684 1.1143595617447326
Ni 4.0539876750703625 0.5347135319674553 4.320716754011917 -2.5099972951135094 0.15760502424239953 1.3266648057434896
P 1.4461516269650032 8.053734951597006 8.804384995992612 1.565754516924942 -1.9775565403038782 -0.18841583897566908
P 0.9727323665655496 8.559825767211784 12.891053587755437 -1.836180062105199 -0.6867560525571657 -1.4309613483707357
P 6.179763819376916 1.2223374315243327 3.8405628469586226 -0.1081007468646848 0.6326800966483684 -0.9480451826537929
P 7.820428218337328 6.924965484077588 6.387665375976611 -1.5671364848741332 0.3625317163888982 -2.7538247780902636
P 2.1521380639301486 1.627895344142733 6.245457985200277 0.7091092234413853 -1.1858372580697447 -0.370603180543123
P 6.73113609991333 2.474032455356761 6.793598683828287 -0.7825828671505038 -0.6307551117115137 0.7576886750119853
P 5.632416974010298 6.978307180815958 11.858770992812893 1.1174469424208044 0.6664754479312587 -0.837192326965268
P 2.8241891462661983 5.246508801906787 -0.20774428378375812 -0.20946700321901346 -0.6210540823736659 3.2017795972406726
Ni -0.024443752957802156 7.934778661590959 2.158337234091635 0.9542597961049373 -0.6217531653232194 -0.09898232950318438
Ni 7.7982227945634754 3.5451445851767027 9.483128598335377 0.8266258643033313 -1.1841691263387026 -1.1050236290557873
Ni 6.118446144116066 5.2445148072761665 9.970503948853741 -0.26443796013825427 2.5702320715348512 -0.9484712144476182
Ni 0.18535537505797983 1.4328115220418411 13.572291087608047 0.6194281167344687 -0.9154970735144428 1.3242991337247902
Ni 7.825839152123706 7.31086429470396 11.766560442993143 -0.3795123101072948 -1.7471191054807846 -2.4676111168378148
Ni 5.694230807559517 8.37263367033912 7.633005829127043 -1.1624944695787462 0.7313202123207857 -1.5089521632239173
Ni 4.485607940043909 3.092798009817275 0.669265106739465 0.3059229667559183 0.2195668106571767 -2.339046445691823
Ni 3.7588764697386043 6.079464953309016 10.234791554557429 -0.8506019155029544 0.7671359364678143 3.332475455797055
Ni 2.61012961000443 2.125177009769653 13.392157544498236 -0.3653473314608224 -0.695696292469589 -0.5984772255144144
Ni 9.386285053479504 5.3130220969798145 2.27237500400882 0.15282637190683357 -0.8222449616268162 -0.18776097900048955
Ni 2.196202536823709 4.507991231883404 11.663703085223137 -0.3451991386477216 0.21653213759591095 -0.6280932486086344
Ni 0.9845839966236009 4.533782101401517 4.819683485523868 -0.6994020234559504 0.37526973278085696 0.20196015331900702
Ni 2.404944754070491 3.606743104751724 6.679465426844283 -0.6624156760395883 1.2832260178335642 0.23578815761204555
Ni 4.0678894686218685 1.3625723590674668 8.992643365111414 1.4478964335631774 -0.7693954219259523 -1.3808122383201702
Ni 2.9474798001876317 8.4830897391029 10.534072361806926 1.0690811495229071 -0.18581953900340256 -0.457564060105399
Ni 8.15178706315153 0.589729060818289 1.7291116349702607 0.05061139439896445 0.4468451310259982 0.0019792352135578816
Ni 6.4205129269621475 2.7417332556253493 2.245711644821347 -0.03175980891010014 -0.25124023050105765 -1.7802274579989794
Ni 1.8006239588355475 9.152865982494157 0.875216667651093 1.9920053687393566 0.016990878131041706 0.15241062452565365
Ni 1.476333029261336 6.672598783362782 6.352110485802457 0.8327430329446627 -0.22753311669210494 -0.6405967803922838
Ni 1.4648184123802908 5.421914799061373 9.117409387829964 -0.2681488333309382 0.31107751437366427 0.12810058702537938
Ni 7.813023289920332 4.247470684580476 6.281807664783537 -1.3256173383155816 2.5204902242250333 0.9135530624141943
Ni 4.676881640949203 5.562720776709989 1.2472951295770693 0.3981252972227918 -0.0749448289380064 -1.2464121914393245
Ni 9.04557409300338 2.5748930100530045 5.798804124089112 2.1878028448910776 -2.4454302098654015 0.373394370135015
Ni 0.8527322718584963 0.38817271342345017 7.431744368262085 -1.7782682773900795 -0.8721706428126658 -2.8608155797202213
P 0.9103044201160075 9.126148326739278 4.240659273814095 -0.15928986814399018 -1.8309728068726465 0.6716590490147272
P 8.30164558919362 3.425195978593914 0.8078374359427015 0.686126903613599 -0.44223925682287063 0.06877958066755897
P 4.549443852655166 3.0989110543890823 11.928580463986584 0.04560237122014727 0.7320974568064423 1.1969709060890612
P 3.9198002617590624 0.3038510803887861 0.013633119157614523 -0.7079846229186387 0.9509320172832847 0.20318554108567588
P 1.4306022134370229 2.4845922015696216 11.31567238577198 -0.6934532620716832 0.0275182600249268 0.01501421402064511
P 8.83849821868735 5.200160128591295 10.387686007635715 -0.13272034518557788 0.7189352083928715 -0.8242524789751482
P 8.995752311669298 1.2493265701162457 8.988204152652072 -1.7644923066519094 2.365904189314616 -0.42876564781646803
P 5.346011942417866 8.799751064808778 9.855493521461808 -0.9717070450471074 0.30650763561479466 -2.4460686147803483
