# total energy = -340868.5371735088 ev
CRYSTAL
PRIMVEC
9.30729975174944 0.00000000000000 0.00000000000000
0.00000000000000 9.30729975174944 0.00000000000000
0.00000000000000 0.00000000000000 13.62217398295830
PRIMCOORD
 96 1
Ni 5.075530992993151 4.903476255410501 9.476987338625753 -0.4763361985065796 1.3847856211456215 0.8602083282444669
Ni 3.4174355964579832 8.353152337153904 2.4051308949929884 -0.02532922279340799 -0.26070857500280903 -1.5727173213960206
Ni 4.806326663779661 1.6084595685827563 11.773658411699552 0.36811126735920474 -1.3582029855610869 -0.24918360508234505
Ni 1.5907291631356641 5.684470366631714 4.1406499927104035 -0.004131248559554176 1.1358632401444633 -0.8367781222459847
Ni 6.232716840574481 0.6599843267272935 13.39473774760289 0.2632709364133466 -1.3516849819369108 0.17670857784106986
Ni 0.6343622620788418 0.25063254389636214 3.534381814013214 0.05023035691046188 0.30744943070277375 0.2564148327234616
Ni 4.096207637849582 4.74438658595793 0.38739400197487883 0.16051371324876226 -0.6722133788563003 -0.9859003058283535
Ni 2.8338399992143986 3.259174276656221 5.994750600495939 0.4858541652993439 -0.9907422073016872 1.4972490158543763
Ni 1.2682126226880825 8.182959059460714 6.763913272659753 -0.5492781380819444 -0.025482974762452888 -0.4762683213831217
Ni 8.8987276161553 1.102375161136224 8.81761915512187 0.21943928394037693 0.3658129582433313 -0.7960623896941774
Ni 1.8517896053327727 1.5755117285393407 9.46933115410041 1.2368592576435666 0.6242602480157894 0.980150804939086
Ni 6.237296031902549 8.162417849580539 10.986786740877372 -0.6897274764806638 2.2425578291447703 0.8501350031688649
Ni 6.385142483622791 2.9359689960495396 10.2364229521372 -0.6066834154742907 -0.9934500931511536 -1.3783817745018068
Ni 2.0217315859408873 8.568662855855964 10.20149638023129 -1.5022711516593161 -1.9782579372462767 -1.9106677489011286
Ni 0.24079379765062914 8.341983577817155 1.570718469323985 0.24493588554958465 -0.4902129564886719 -1.8981734730888598
Ni 3.178331073657038 8.911450694499749 8.091284952094716 -0.09239156365954411 0.12099662899074647 2.170210328620295
Ni 3.883191475399397 7.237998253876549 9.965668957565736 1.5355450832210973 -1.0891997746496531 -1.0253495129629115
Ni 6.876325904654207 5.15250235942226 7.917602367838735 1.1099040970765401 0.602245177197279 -0.5095522802472321
Ni 8.773274526905244 3.3416741789570223 7.636372077009399 -0.6618024679356215 1.1037722731471893 0.029443244961781554
Ni 7.181530868129825 5.645770615529871 4.077430161214669 1.3488351711929416 0.2263311259642038 -0.5252308673247535
Ni 5.437203342215492 5.148751517745001 2.3284517777665235 -0.1414816363179757 0.10597598721219813 0.6289437695343878
Ni 7.449711394404113 1.4905919283822433 6.691374972957389 0.4175430396277712 -0.05889857410842114 0.6249732149224141
Ni 1.880940067201693 4.188331287778883 1.6354646979290757 0.3651084759771389 -0.37052064813164576 1.0493073093300895
Ni 1.8615064259557461 5.8135812245645555 9.95853118961961 -0.013445841092260716 -0.003785435184361223 0.2267173056590289
P 6.566541749850522 7.414697333883398 13.43373812447688 -0.1664521902203843 0.2854060777494891 0.4930594247985315
P 5.246496776540468 3.7459646523485155 12.200127248943996 -0.712078076261722 0.6582813421562405 0.21474522089881726
P 7.333919281980346 4.072474024258986 2.0374004245604045 0.8711239467157063 0.571017843751881 1.127699216276432
P 3.1643049733899677 6.139913757785527 11.982418346112489 -0.6423950099432872 -0.31392423979384 -0.1289498223995521
P 3.3835942556676275 5.855138316596716 2.4629571464590168 -0.38521296003649785 0.5097451129843285 0.6724887440048741
P 3.3665060538823988 5.95908223682408 8.229863195025345 0.5089323872750461 0.11860704571264734 1.2165290307266468
P 1.8144952564474714 2.014053063896871 2.3826137454401533 0.2974079873063717 0.7759242241834057 1.7955676879004754
P 0.4956444096565043 7.870596782710129 8.814799974119286 0.33314323592445205 -0.15351131378900015 -0.9325013213819231
Ni 7.3490157216838545 3.3434332585525603 12.133338068110227 1.029593118730614 -0.7446264425113884 2.044048867599157
Ni 6.662695460440501 4.84201084986058 0.13203800360901574 0.20968117611234857 2.3324083715500152 -0.5413383144095774
Ni 7.458125193104465 6.551268471457515 1.7782926537873376 0.37541757121263086 0.2934461744451462 0.1435500888112302
Ni 0.16953990527199161 5.858209725414323 8.022901430865623 0.4502415583020568 -0.20958141730969065 -0.4265897232110718
Ni 0.10094138542566661 5.663259031191333 0.793584095183565 -0.38259609123894106 1.375565388098934 0.23319262897072743
Ni 2.4942352569815878 8.095042308881588 4.330951690859471 -2.22777372885706 -0.15623436914711802 1.057308068147379
Ni 1.664126526577013 3.3683488991729624 4.109141991891484 -0.5839530637563104 -0.5137105253899797 -1.2031531236403732
Ni 1.7164242421713498 4.4607559426011365 12.818614981085538 0.05517278851740176 1.5854962183282437 -1.818910990612106
Ni 3.709964018086388 0.7573414711358079 0.4371135956223156 0.017037672208577107 -1.9231579109483394 0.10197097981786309
Ni 8.442279036661178 4.7615027096415 9.967943661550654 -0.3785142078600836 0.16318894608808024 0.7307851657529221
Ni 7.6787733411014285 8.562054673248387 7.922042880405038 0.704806225190657 -0.03659425418426601 1.6396683334952729
Ni 2.6998428090717277 1.1665303762264116 4.9040775069547955 0.458851668568571 -0.7795093704315026 -0.6348015138667454
Ni 4.437804142164112 2.7690239658634535 8.562476293913349 -1.4307062949371359 -1.8656351341415225 0.785276611932583
Ni 5.867610097856089 2.858820790930932 0.9316308913157527 0.9817225203015801 0.5572138479892533 -1.6374497285773995
Ni 2.3707460079149105 3.9219191483995814 8.327343195786563 -0.6484741262578315 -0.1503933369853087 0.5836928681163883
Ni 8.41380800765191 8.704586656984226 12.86367720208955 0.012518701292301022 -0.610357264781452 0.4995098084095655
Ni 6.070444074710935 3.5610844561274964 4.556835194795537 -0.7581152210264428 0.41777701001544826 -0.08509605843939538
Ni 6.710292989813956 1.250919660315013 4.434984961161527 1.0012173958013983 1.2326318498257804 -0.6138760765679879
Ni 8.532783216486653 8.611671886601902 10.384673340653455 0.6516093294527036 -1.2813897359557738 0.6290455852195747
Ni 8.893487606566474 2.756542877304634 2.7416940117664237 0.36958862323567965 0.20537560675845917 0.47618707452322506
Ni 5.591462523254918 7.28055122694957 7.702821541413344 -1.0963181308619894 -1.1849551125751077 1.4055531927102762
Ni 0.9827577486396202 1.1789742355874417 0.7448799279058278 -0.37581480665104955 -0.8327252923328496 -1.7308339951675158
Ni 4.768511106125312 0.1530408555417761 4.409184196363688 -0.6359734226876596 -0.33148358883384205 -1.1257570049483967
Ni 4.371089419725919 7.11626808440541 5.076942910319305 0.185916469592583 0.41045630798431887 -0.04855014099456155
P 6.056241135754367 6.156694818688996 5.769317569853122 0.7144357778606212 -1.062140456539016 1.6544812301383895
P 4.2345420295346905 2.5289607912194367 4.165292929456999 -0.003721157605329075 -0.03654823143767899 0.4241554027379663
P 9.339037338407815 6.973131126205497 3.0577149879297396 -0.5861120190808422 -1.1630313159188228 1.021587474817318
P 3.5175262947141674 8.781734862102834 6.164796822857864 0.2915870097492204 0.298194487763409 -2.366244346262854
P 8.882644602710378 4.779251729687488 12.293507384298685 2.709755041464559 -2.8552290867713794 -0.07559274693465044
P 5.448074267969929 1.0521808952169753 1.7663876870643056 -0.2961951979451931 -2.7039284074804524 1.9971699436594315
P 1.6868642591267489 2.7673114227651516 11.407098799537435 -1.0205826877018875 -1.163997536486834 -0.7250618901158997
P 1.2163151209699794 2.1252008338964385 7.523662542162575 0.48679158951194873 0.3741739286135169 -0.41798012716518984
Ni 3.8682625670859396 2.698865542629762 1.8697387323168764 -1.217017283216975 0.22443519449307153 1.5634796048478363
Ni 7.27058310924152 8.301515439820326 3.8515466572786026 1.7334963724910275 -1.7791781907988584 -0.6561732946743023
Ni 2.3262105800596156 6.290571013938851 0.5703168731221324 -0.437357246140221 2.1677811503535116 0.16156735132425723
Ni 5.079384214964329 1.9221900183520935 6.431818590350963 -0.24765379870137993 -0.18517367788928754 -1.1665303302110166
Ni 2.3596982434709743 5.499794930998534 6.445562679444779 -0.4246325994847009 1.323563026889714 -0.41860644789527907
Ni 2.998402360741978 2.627432019371792 13.050954958648191 0.5855615458940109 -0.01969670709797898 0.5497807887499757
Ni 5.3339481621472284 6.208015267841366 11.782103855218024 -0.3455675777307339 -1.4130006501272567 0.7168091631888042
Ni 8.66431397227579 1.773059159308125 11.128825437742504 0.7516905484470215 -0.11308740144599878 0.032082225246525396
Ni 7.8961360123935 6.362330292677477 12.037574333367088 -2.7918490798528373 3.7799942158513096 -1.633761995313167
Ni 6.371888889209846 8.586867933574869 6.004544671704325 -1.7872414274229673 0.96607838600642 -0.009369614140358059
Ni 0.905087404022019 6.852108311492352 12.170799017655634 0.558811017273044 0.6877958066755896 -0.19326236843469297
Ni 3.665270366140489 3.280823055170623 10.667279250341101 -1.07488541490951 0.9305794217688619 0.011267345383703177
Ni 3.98827088615933 4.889747988725745 4.6606627737798085 -0.1833620786018455 -0.7995400638301327 -1.0799723425141143
Ni 8.23884008534226 3.3102620433224095 5.137357521761626 1.4003076280406206 0.9613447279761765 -0.06721455017328425
Ni 7.870727084902391 0.6408857482614492 2.2914673619528174 -1.185453649478081 0.4128425488283084 -1.6750186879701088
Ni 1.1130785555006104 0.3329621226172778 11.721648291658136 -0.10778115874173697 1.820840346424335 2.8017467985825233
Ni 3.5668456744853705 8.328785827200894 12.002632869782063 0.2968030067325211 1.0524198868171424 1.491606472856618
Ni 4.6375760175008 4.526158335817261 7.063914525014389 0.7903658535300324 0.9461297107986351 -1.0349191589292177
Ni 9.27677150510543 3.4835825736298913 0.36626736295946943 -1.803184838126101 -2.29879402592968 0.27609508476120836
Ni 8.180250635321551 7.14235644475617 6.1630796261098375 0.6743430236047935 -1.6811062889250854 -0.7457551567991931
Ni 5.516427075110846 0.43561325895141206 8.434958845645882 0.07418223974036901 0.026868028035437596 0.3091047069180096
Ni 4.447297587600351 7.237858644384839 0.4287388875796418 1.1380689895465301 0.5255442848001143 -0.12150776429921009
Ni 0.6390959545777348 1.624105138953655 5.52196584901193 -1.8574700818322267 -0.15421759582740538 1.0795565951329344
Ni 5.6540820339363025 7.765898971227535 2.566227218206396 -2.056909268501593 0.0187346002950258 -1.1158474591441685
P 6.97425730943862 0.7470187453188156 10.138697238670574 -0.24610188083322776 0.8854308502566816 -0.6144522607864321
P 8.332164376900261 9.229034366240265 5.321297680738468 2.3353183461079587 1.2705687340808698 1.2268134433717903
P 8.246565143883512 1.4197726868877947 13.571199491473834 -0.11824220617406088 1.2611770084533247 -0.4346290485757805
P 6.703247364132356 6.520572997880344 9.845467046663844 0.290790481989854 -1.923393166887597 -1.197910387184195
P 0.24838390034989621 5.261500143249503 5.897243608566323 -1.1931127086852356 -0.7360672400874678 -0.1486053918469505
P 3.905342848083953 0.25327116328966953 10.113619651039789 0.8321290535097475 0.8422360600367624 -0.10085229283238759
P 1.7439180047386522 8.492389536885403 13.521001502634805 0.5639712213177449 0.059439019992923434 0.38150028707160105
P 6.399187198488755 3.005773741904234 8.084283070720518 1.623146938801482 0.2705175906734309 -1.8078027965140866
