# total energy = -340885.3637593966 ev
CRYSTAL
PRIMVEC
9.12099018586719 0.00000000000000 0.00000000000000

0.00000000000000 9.12099018586719 0.00000000000000

0.00000000000000 0.00000000000000 13.34949110083733

PRIMCOORD
 96 1
Ni 7.116305780315272 2.1739149773291135 11.473273142666178 -2.065986805322829 -0.18171785813020316 1.9533835426021005
Ni 4.431761303817765 0.9596923164386247 6.357641905709514 -0.17314605730079213 -0.48456655683617195 -0.964738584149074
Ni 2.813205160179797 2.009135173599902 4.436195929112414 0.11227930372240663 -0.5491665522047445 1.8281348232032193
Ni 3.34079970058235 4.729753165194776 5.142330198623671 0.9889169811674903 0.005541498643519488 -0.8976867848058991
Ni 4.122696560688996 3.098217852913684 2.849355291592415 0.1771443798269078 0.013944635105550177 -0.8487018702667641
Ni 5.075575497664224 5.286981801817643 2.3756220208113468 0.31836864871843884 -1.0071728420538848 1.3588509035577307
Ni 5.6204725559276385 3.3222293651238823 0.3742141498639074 -0.5702339143980051 0.4692445817671209 0.8604816365105117
Ni 5.557355305744634 8.414496274324941 12.62003422587913 1.5201742571919818 0.22968615847936572 -0.17722125581143028
Ni 2.498777274983455 5.573444731947354 11.67157988110965 1.6146622983692385 -0.2665352089869152 1.0305236009646832
Ni 1.0069481651666798 7.608027467398496 11.740423288758679 -0.49547266222571446 0.32050343567325446 -0.3151740530405411
Ni 0.34807795327439917 0.5528131654070307 5.588030106913776 1.0053928673353265 0.7662455634430609 0.3854919247294974
Ni 8.937119875226086 2.886547040052851 1.4583112960924252 0.024009475540719943 -0.8225174985619125 2.0490584049986067
Ni 1.2917145911729744 0.9642436904041333 2.748633112106015 -0.22745521226631793 1.4632996554921252 0.7471134705993004
Ni 2.0826138683216184 6.672989186688868 0.6593445033676444 -0.015727438037585816 0.9394145035619886 -0.9201690250688154
Ni 7.61209542889873 4.184518630304661 4.010159962971087 0.2807680647568455 0.3022146646663957 -0.1661670548797977
Ni 7.851913616624412 4.190155402069559 13.09147174349964 0.3408195215227872 -1.0818590180138659 -0.30319296941926493
Ni 7.866124118905498 9.069675221600306 7.406551184961007 0.5113880479043903 0.39289413073083945 0.14148600719334986
Ni 7.05833276844198 1.3423543271579508 0.6313202618665926 -0.21829899968834662 -0.8685898674399427 -0.5487664885528485
Ni 1.7843666192271044 6.898004007789258 9.253413002859197 1.343555153740925 0.8468668739405545 0.055095398312247044
Ni 0.2884120856736568 5.480109642189742 1.5336825962206408 -0.9539175822741701 -1.1066318540831714 0.5284948827880059
Ni 6.545541594664719 2.1852706097681076 7.1165338050630425 0.7259751459587884 0.729081295687938 0.07739277625786671
Ni 3.479292811388525 4.726697633574644 0.5530904435003202 0.7398184795997839 -0.17868781305462775 0.15385147073723826
Ni 5.578871720944303 5.768013688725365 5.224856915336939 0.38425522410891894 0.7101050116957512 -0.6440950233535294
Ni 5.449900923605044 2.95385994559484 9.649318690929059 -1.0027690565592344 0.8968277792397135 2.3636395616501553
P 0.4694318119391167 5.599685819920837 12.710611128287706 -0.3280514232238415 1.988393740128698 -0.5046471296361308
P 4.170672967620007 6.751302006063329 12.639484736863993 -0.7319560461325717 -1.7302770942227814 0.32685071804752097
P 2.7059788027879774 8.784051422542392 1.4122430002507613 -0.8967113082665072 0.7304578643204903 1.5341309764823903
P 6.518351923740509 7.975484787936454 5.938453978793243 -0.9645629778031583 -3.1010010950690146 1.0970622081168655
P 4.937574920313235 1.4827081199059367 12.870483839444885 1.6814783275525234 -0.8180913444697587 -0.6223972266651217
P 3.826182299677541 6.591110060259269 8.235314427526514 1.215095897824546 -1.149937458849342 0.774759257341027
P 4.845115445587064 1.1522911393958943 4.063959209861177 0.576044350432195 0.5829539330678347 0.282008879142482
P 0.15577191409326738 5.899948807785647 3.6639809997961237 0.47622872639443786 0.2743500770456436 0.2738433126125542
Ni 1.1333742063208148 7.749895344471681 2.736926321555453 -0.3598955643176318 -0.6457397580458041 -0.43237316266206827
Ni 1.8062478740232064 6.763460285614477 5.058482762571313 0.3994391309382088 0.4677718538763363 -0.8900518939684606
Ni 6.1918022429526625 6.342444512320074 9.724890652835315 0.9798746684595641 -1.3425328831239975 0.13007082337787276
Ni 9.079498527734279 2.8494975790350243 10.533642443536442 0.6595406684846382 1.193245634718674 -0.4072270024137438
Ni 2.227099469499214 5.4937728850761784 7.192692246620564 0.00040314897568962825 1.1834857271184327 0.18619543428558255
Ni 1.0531642210448995 0.24497793171824297 8.711904392347659 -1.570578934896779 -0.09660817284405297 0.5475729824653794
Ni 1.8780939115508828 1.6575757384765357 11.843601750828068 -1.1554331918565908 -0.21221885493253773 -1.8205330995965614
Ni 4.307861776868933 7.301197366797882 1.371927312745863 1.1083866319907492 1.0510327766616285 0.6209440391583628
Ni 5.896273048851579 8.226074864746836 8.467128034506445 -1.1255227774504035 0.4498083274193802 -0.6743286254270903
Ni 6.918115790542658 0.6261295065083343 5.204512547340813 -0.875014540019364 2.86095313373935 -1.547001147576839
Ni 0.5602631899662037 7.5619755893386715 7.055646636913239 0.5206720443094774 0.30071648285431435 -0.290860415995841
Ni 5.641952487167663 4.535092998517657 8.159301921807568 -2.231070911551093 2.0865664292463935 -1.953456561931881
Ni 8.5661874575321 7.465466395092087 9.45848751581651 -0.737915091929484 0.33911230902369344 -0.05063633409962892
Ni 4.772466760947234 0.7620413771697415 10.778485384604004 0.44129386219046585 -0.8211715260569794 -0.0053386386040940315
Ni 8.502513826964535 7.861791648697849 4.6601472427892014 -0.7580206044301074 -1.0790282334332901 -0.18764682202012845
Ni 7.272812846195353 6.333122860631197 7.213450707558642 -0.6202634681515704 0.842279511680188 1.1836703323254132
Ni 2.390574971671176 5.327634053850252 2.917357743971664 -0.8044958651735111 -0.5426940571065235 -0.6553970786299099
Ni 3.5481198012557136 4.811066790249903 9.608950101682678 0.9391967311242276 0.41899237047978805 -0.3607658827377271
Ni 1.0228734135510043 3.434672928744702 4.026740098431008 -0.4157928897058839 0.4515409938397707 -0.6391865303083186
Ni 0.9217125144498924 0.6018795306323874 0.4286372724638996 -0.848121829393578 -1.5364984482733022 0.07845181365000037
Ni 0.8051626811712136 3.824522279513769 8.05380125570688 1.8886750466801214 -1.1813008036519719 0.8200561815056134
Ni 5.42995331867004 3.1918174513787108 5.01285409844335 -0.2524777024525845 -0.10627474939953954 0.3167640232354803
Ni 4.004698314212476 7.376418170592569 6.295406655250888 0.44177954357763277 0.12809647326032134 -1.0008191319217152
Ni 8.485503180780821 7.457293988131976 0.2410422245717161 0.14053135658956442 0.4481615358445765 0.8547660741829731
P 0.11316047342781123 5.7858087400414115 8.227290692701951 -0.4620454929155204 0.7736981630663643 -0.09592425940315093
P 8.812700451852336 2.074423219381685 8.429469291362574 -1.1546983705730953 -2.3370592400584655 -0.5654292939205101
P 1.9974967904736718 3.5290386903622384 10.220116624242282 -0.3214837973086528 0.6515915888408907 1.4048654226146322
P 3.894845111726335 6.58241775687424 3.6374954692930306 0.7895374440914661 0.4304114109500071 1.8922447663092512
P 6.9102443762496035 4.213131175654961 10.794598525380493 0.8135294361306892 0.6899455060287407 -0.2980191385278093
P 6.919265035271423 8.25559950908822 10.702886971827008 -0.5375197119944356 0.29054211342447384 -0.013964689710208207
P 2.3654922494163695 8.946377679985588 6.187488926823827 -0.19163640279549576 -1.1284936871532694 -0.6334280305579866
P 7.062145342224712 4.205132067503156 1.8751232051369224 -0.3749028363597414 0.5037019921140422 -0.2814028701273669
Ni 3.1033985751830406 1.8258032763920444 0.44540712451396763 -0.9911798090597381 0.12426835776348276 2.137016101256513
Ni 2.0733469425722064 1.6700897366342062 7.220071634134919 -1.481100431118972 -1.035399955220378 -0.6224023688714442
Ni 6.934259942684842 1.1344869670899373 9.363680298287289 0.6821902875633542 -0.6058748035300662 -0.2754343112487579
Ni 2.9686633122201314 1.8165181086628106 9.625383389205037 0.45740902258477356 -1.106604857499978 -0.8467894837353996
Ni 6.569657491988977 2.170549332052014 2.9269958940104472 0.26099782410845374 0.1288433787286749 0.07398426479695001
Ni 4.109325189479707 7.111407808733151 10.404259377453213 -0.7052931921294048 1.5841888123707297 0.3638596911717024
Ni 7.679326245531522 6.084439070712181 11.753786451077048 -0.4373729298695049 1.1021514497143148 -1.2048652212354733
Ni 7.723608651548643 4.061458234427625 8.707846463936328 0.539735745809148 -0.005925107235183344 0.5523894300174165
Ni 3.1304605522484987 8.669437063322794 12.614307156314114 -0.16801593516307836 0.45955615083476337 -0.7312006560237859
Ni 0.6484686349979604 5.341251691787134 10.494394823950103 -2.079373768152696 -1.3906981299753145 -1.0975941693609355
Ni 8.723396839635315 3.1125560490535227 5.964899376940728 -0.0444803418005621 -0.8988417243459487 0.6289463406375491
Ni 3.817946045788054 3.116195324027947 11.998589259789004 -0.1959975079776689 0.9364459078519679 -1.9172891108723882
Ni 1.355132834023036 3.7774397295940196 13.166816592757113 0.6412953491212052 -1.2171964891073168 -0.22721532834136995
Ni 3.2964352056560307 8.71193175531739 8.290233731977658 0.9723027696495771 0.7581283336525653 0.31568570256963696
Ni 5.715723053566527 7.921123688067856 3.5771291096671356 -0.38799849320143504 0.6660396459454206 0.3595844608351162
Ni 3.206903568691238 8.656950428134856 4.073943957516573 0.2666539939529666 0.3545217016002281 -0.1243981984731277
Ni 3.473309442007014 3.259549922456599 7.708703129836351 2.6903956631013406 1.3099649764903052 0.7809931540658809
Ni 5.191512400420895 5.137014485703634 11.686852066616359 -0.7860944798481881 -0.9672274120091987 -0.9028778420885353
Ni 8.01807981082007 9.130384530446849 2.575490272727555 0.43946529362215925 -0.0945633744998823 -0.07323298845322226
Ni 4.696908480525845 0.7425078651766894 1.9354622017930847 0.2740258609370054 -0.711036265260769 -0.35943353707954867
Ni 6.1188069606962205 5.788672730873415 0.3554486252213479 0.7743856760516922 1.5388548643206206 0.3560407093479159
Ni 8.75946123374277 0.5201208012696117 10.805011047462706 0.5970582336797007 -1.1170869879782244 0.7196995973627218
Ni 8.87690309983473 5.616860643922945 5.727318568040175 0.3105404109232716 -1.1244832804422957 0.23307127290151472
Ni 7.358194432750714 6.531942198707659 2.6241762926736296 0.46601913285128777 -0.7228700246709033 -0.407807300397246
P 8.456507553854264 1.7045214735476224 4.040223657816202 1.1195318499742914 1.0828257528025094 -1.0399988874449702
P 2.1532376932012425 3.2859187042888336 1.918802713720938 -0.5370602558595137 0.22676358551593204 0.3638206104036509
P 4.935787206290711 1.4334638953773184 8.38911347150207 -0.7641555136832517 -1.5569968253369701 -0.21762999864578003
P 8.884136044834026 2.071157904993605 12.777144189192319 -0.2284286319231808 -0.14367247332170743 -1.1064693603633784
P 6.612890984166352 8.180022986687012 1.1529925435200377 -0.1591497430217001 -0.0994333009976739 1.4298753143954084
P 2.0080315338206907 3.548311342043841 6.241821751623703 -1.4762238197529607 -0.20173955266776866 -2.4342870487643884
P 6.849726608191189 4.359231192046776 6.3748358837904355 0.2586084979406707 -0.9359504562727881 -1.0743022887125304
P 2.344377157772778 8.812499790074298 10.436952653689623 -0.02674564352496039 0.815740584849395 0.20775362007233253
