# total energy = -340859.8719506342 ev
CRYSTAL
PRIMVEC
9.41180815957600 0.00000000000000 0.00000000000000
0.00000000000000 9.41180815957600 0.00000000000000
0.00000000000000 0.00000000000000 13.77513260168653
PRIMCOORD
 96 1
Ni 5.324372864029673 1.2974930605845425 9.992095161205693 -1.663450523516535 -0.7123884084132892 0.35391003615815825
Ni 7.097962244520708 2.722007885199094 10.864584844104648 1.8345340418613438 -0.40883702721334103 -0.10227642687342386
Ni 7.343977500150554 0.6260988961202639 6.250315029475725 1.4495080010246713 -0.2764730369259174 0.7864752602263746
Ni 5.2807208974046596 3.6279603111205954 9.43832130551879 -0.22234488762294613 -0.0826473397885867 -2.1155160224012084
Ni 3.995990248795865 2.9402583065159194 13.57883739931258 0.5069503238480108 -0.25445950876930373 2.383743788599198
Ni 2.5801342877636793 2.9903479499782573 9.058610372634742 0.19918387612545052 -1.1941246948895177 -0.38560711015112303
Ni 4.119444937502269 3.6195555663607553 7.146263644417122 -1.684306541029938 1.1852533605418167 -0.08831919336238338
Ni 3.040898772044438 6.258268948620787 1.8335943639360044 -2.226956375162087 0.61009706914153 -3.7559140349736544
Ni 4.8248034943683775 8.601639788256213 8.905471781914834 -0.745715047589877 -0.21888289721627466 -0.3557501746906906
Ni 1.6441111345099406 0.5192212252699695 8.07754512867869 -0.15665088785924633 0.5428292971328071 1.4432761611823466
Ni 6.823033913972353 5.631310754408056 5.875024822922806 1.7843013709580369 0.8096005333899282 -0.269382191517407
Ni 6.571578633178802 8.898337631267625 13.340596297290379 0.7254233872203765 -1.0034002623853302 1.2468824462075234
Ni 7.234094638928684 3.0048986055199287 5.673329772303134 -0.027147506949069374 0.49737656411664666 -0.26873067397633715
Ni 9.003495764752161 4.798205724277328 7.104428156782756 0.07652142939650693 -0.46426564049529073 -0.6163229954465836
Ni 5.014526724904605 2.7543656819340656 2.566376106475959 0.20586025970436161 1.5204347099422202 -0.47506813042743345
Ni 6.766619535371591 5.466208814232122 8.940997593303962 0.3039092787599992 -0.03283350159025313 -0.11369186779921711
Ni 0.6839410460312914 7.2326075732264945 10.564768869022762 2.530470989586829 0.6610923292424744 -0.31565484933170157
Ni 0.032036854073929144 8.371172839841659 8.680413799696787 0.30668709861545246 0.4338996266089237 -0.8313376679567037
Ni -0.08255849953456085 4.061364668842727 9.418746626737699 0.5456490259697893 0.697643903114263 0.6302732869790887
Ni 7.740600511264114 5.2030075967529275 0.1274208246994572 1.098830869981514 -0.37808354808056827 0.3514512902050206
Ni 8.708181457552278 8.074484408638488 3.131707662683675 1.2596952817014757 0.29463890920166674 -0.7558256536613176
Ni 0.6293327934321128 6.885358908148903 6.612573646337183 -0.7053790669749916 0.17891895522882734 -2.1379165015835953
Ni 9.246075710373786 3.2347537863987728 4.370160450168021 0.4400934141244614 -0.06805710067923763 0.2570779202287573
Ni 8.475305086227849 7.2829889827443255 12.147587484720265 -0.8631273016634747 0.07123344152469023 1.984606505172124
P 9.021858202631721 7.599809271776494 0.9047448909240908 -0.3855618587354844 -1.5568394738234994 0.2585653034075612
P 5.399206151359445 1.1668006913402698 1.1611169003431059 0.04417926562037553 -0.7316840234181077 -0.6393513380209569
P 8.081449146737349 7.698972083411066 6.880045001215638 1.139983432960424 -0.07485098367261947 2.316195766345895
P 5.4029991100808505 4.5445010213140105 0.7197492116676705 0.4122380824750901 0.5499988182980527 0.3472444512125245
P 3.7599232744774977 0.9808045368677565 7.70130432949336 -0.1441532696128679 0.31719545434594404 0.5845673003015417
P 4.650270922334257 5.461258203096986 10.243064792693973 -0.7671963573921046 1.3674818397598514 0.9224022852747082
P 3.6414380205227124 7.794200759200606 6.614143535951899 -0.11091070550965415 -0.14080157953181557 1.3976061699490576
P 6.139576634884684 4.291652792900689 7.25726368727728 0.06292209344551744 -1.8728794744087618 0.768792755344947
Ni 4.5414704190601825 8.75181460056081 4.722473609260474 0.4331493787064605 -1.1045592878248591 1.6631317067245357
Ni 6.9887382098757564 5.003966676057415 11.764307594150965 0.49784938998800715 -0.6659149474420984 -1.0388961412990945
Ni 6.4734228850260935 3.0856707438502142 13.225504941387552 0.07275270638269406 -0.6667184171800001 0.11873560087071164
Ni 4.287850422371041 8.245675788746805 0.6006173664866802 -0.2100570713945286 0.9741243962393481 2.0359298380364486
Ni 7.635517672245513 0.9996752123923689 0.9523752288928716 -2.15479296562396 -3.1328719756356818 2.3517366395649817
Ni 0.5577239916059479 5.23808540606975 11.584074289864848 0.12336641477450366 -0.5095335111941548 0.6525925193015794
Ni 0.563299546808332 9.314603086181616 0.21239721777131126 -0.7082617878394254 -1.120128860128342 1.5275309546673692
Ni 1.4968445709520308 8.985867447915453 2.8181306827715957 0.0503087755568811 0.547741903943076 -0.15514447851704893
Ni 3.296165835175878 4.618402539627854 12.185785308469214 -0.6133785681062791 1.14801761611881 -1.0966590591411758
Ni 1.2317892272492215 1.785740024931071 13.033699818868259 0.341322943521767 2.6329461627346205 -0.14426305571785478
Ni 0.03534792821335988 5.563715147616152 2.435678090146742 -0.315785718482611 -0.012233051731082158 -0.4177561840798418
Ni 8.494712234822238 1.0798920540363943 12.720687547450684 -0.2537573404959565 1.5074647800451133 -1.400150790747782
Ni 2.0769884309705366 9.024662921487748 12.382879867220343 1.3692589862649323 0.9351793824347184 -1.9306012546002622
Ni 4.464679475616137 6.04814091781655 8.163915410551141 -0.5106311151337077 0.05424102073175174 -0.4065608295846546
Ni 6.367765925704747 8.373601086368017 3.137258747184631 -1.8155572436485248 1.801419775805878 -1.5100978467925863
Ni 6.90264839988891 7.010008896502002 1.2214503558957117 1.2843488185840979 1.6109665946852063 0.024489500500932015
Ni 1.733542136422592 6.783645496480831 3.7142581220695843 -0.4228066020195557 -0.6055989241608603 1.4593699814204157
Ni 2.24750216088545 4.682487541945603 5.196214153564067 -2.288378487023311 -1.4737157086191264 0.9204420762245438
Ni 7.2319769820743005 8.055613733113876 8.82198057218352 -1.452813925469453 0.32559601970481344 0.40966672220348804
Ni 1.834304955458253 1.5368165205545385 4.16900281379895 -0.3308796367012559 0.5571259162611374 -0.39759822107472814
Ni 3.3178882885977257 4.472190098593015 3.0194398492533576 0.027179131517953193 -1.1952760348851414 1.2895025948708954
Ni 2.173092404926555 9.283854708655976 5.9378674665526505 2.6259851580357547 -1.1174232882717208 -0.00026739472877373305
Ni 0.20850543506336752 9.408570579666769 5.154820079736238 -2.4595633068326737 0.05785984843126164 -0.8432935547669992
Ni 3.1599581463019675 1.849712085549919 11.75609767382173 -1.2957922845343488 0.48975735700849204 -2.499259339870715
P 9.126366921347579 6.12124243242985 4.69754078804738 0.14799758305962252 -0.38751024071110685 -0.763062537729389
P 3.5242327724887983 7.871594058372121 2.9992458734899623 0.38295964522594694 1.5801933180580914 0.2917037378327428
P 5.721777055227295 1.347733292978747 5.0398388419898374 -0.7004381780299485 0.382447995696851 -1.37537306958247
P 7.203845087239854 0.8618035158213259 9.18622319822233 1.624240686086293 0.9294262820010252 -0.6606477855058881
P 5.580750520533634 5.066442259165832 4.329716968972604 -0.858507029282644 -1.340366214489982 -1.5573495806906985
P 4.975975958346594 3.029698720236813 11.399583083530182 0.04405379578610477 -0.4590319029001772 2.1835003608609815
P 8.189110821214177 6.455314565969059 10.113537605310022 1.5094167615651617 -0.28123369153935435 0.4023861293816748
P 3.602266074620749 6.646976629003077 13.225297881606235 -1.3989212892160552 -0.6895606118854963 -0.5340762335305254
Ni 3.8899191699118845 6.041317356841317 5.398846620284613 1.6357144910538475 0.8251464515443272 -0.27221529009082795
Ni 7.403488363662834 8.084395042717002 5.074924180753254 -0.094290837564786 -0.5553518550798501 -1.8898068462917195
Ni 5.726868843486056 6.73620057113441 13.09823658798161 -0.3060674627535826 -1.6663653831704852 0.20947060276343926
Ni 7.847179827793147 2.873961529261371 8.117369312891805 -0.5343410571561378 -1.3401175888142856 -0.14979581261062588
Ni 3.334547189185538 7.361530522521328 10.90695680480879 0.5683127861158923 -0.3284095778942086 0.16154009763074761
Ni 7.31298441561063 2.0331670517971725 3.2004317452837583 -3.7817945022848423 1.2691492280255239 0.5113355973999
Ni 5.161868582928448 6.205223997370556 2.50674383063736 -1.037993169868851 -0.08673796491819256 -0.41203213711187103
Ni 0.9262442844906105 4.4429946694272555 0.21271721925152912 0.8318490603754835 0.09724194977330994 0.4661708279378036
Ni 6.960436902492958 4.243389040237242 2.277235945482635 -0.05321695034261158 -0.2422344274580215 -0.12708962926236178
Ni 6.268273700781716 7.005754759176753 10.957016330484754 -0.6846212656023499 -0.47285955281188885 -1.904884052339816
Ni 3.778586890220793 2.818243624470496 4.742364524798486 1.1913707862934644 -0.44938512383903245 -0.06963318691710588
Ni 7.187525011748742 6.245741831851082 3.3404286281557773 2.404626288475162 -0.5353201332399555 2.6563663414307737
Ni 7.241784086262154 9.339318494624326 11.26206621212985 1.327406054784888 0.2708690604755787 -2.616248133253649
Ni 5.875067176059893 7.626002334113151 6.80010769027639 -1.323699038246946 0.3093628456754027 0.22404721502603347
Ni 2.2569422045518777 2.2128572947477454 6.503212199291904 -0.5121688919344728 1.1726523839483545 -0.1259334041707315
Ni 1.9776656185958565 6.958441599145718 8.2437830741094 2.2046985922051516 1.0426820907040881 0.6153248931993726
Ni 9.471102633624636 1.485851578925723 10.161281826158527 -0.4480522639602219 0.35444842516013153 -0.07516465825829635
Ni 1.4768256548219307 7.021086594802486 13.215669601774973 -1.086346107250942 -1.1284903447191597 0.6969931569041415
Ni 5.640628444567342 1.9110206044363651 7.164543258384155 -0.20441144307297698 -0.2175307540637544 1.1496127285200717
Ni 2.549207085881447 0.839037292865473 1.1264955637260055 0.7825301595356975 1.439239786329444 -0.8394250729505286
Ni 2.264151649665021 5.282189139490366 9.725464280803225 0.6178618006886133 -0.5971261108031587 0.5641365432510155
Ni 4.699607621137258 0.6333958710500553 12.80492229003309 -0.28574777735962403 0.8901066584657961 0.5563111336693257
Ni 4.0709741250575044 0.756234086316628 3.0303227231232377 -0.3591324608993621 -0.7790946514915873 -0.4502554422591278
Ni 8.529244159261042 2.8251048326786967 0.9698040153948553 1.9542654309864216 3.2665204890624837 -0.09154207117505524
P 1.4838468637702402 9.268362872290135 10.214109364638375 0.4059167682427526 -0.4977519451781944 0.35588310072412904
P 5.2551490144119555 8.747334579837759 11.228661822318402 -2.7741112962534413 1.039922011460448 -0.43542454789388235
P 8.837518526409747 3.6944829717729446 12.518978379118648 -1.8264420088818287 -1.6796515587564298 0.8876427703063359
P 1.4802421412136686 3.356279054415628 10.944825215269278 0.4619223370740948 -0.6468016236514151 -0.08529351916218213
P 2.455860771740247 3.267271583873853 1.4073090979678962 -0.41450296724986674 -0.45132219296074527 -0.3531093946337338
P 9.019966429175138 1.1975208334411847 3.2383820384759487 4.353267945516903 -2.1932181023693778 0.005251992427558697
P 1.8301731716401457 4.434571101050933 7.561555918358922 -0.37639613307581626 0.5915005370862652 -0.31943102854468214
P 0.024712584900236714 1.8323378875357372 6.511822121471413 -0.6043154294627463 0.25990870480933304 -0.24887070182761659
