# total energy = -340860.59946017934 ev
CRYSTAL
PRIMVEC
9.34406284713697 0.00000000000000 0.00000000000000

0.00000000000000 9.34406284713697 0.00000000000000

0.00000000000000 0.00000000000000 13.67598048913454

PRIMCOORD
 96 1
Ni 3.1033782276081654 8.906293625086859 4.6949094915334335 -0.2431343135644716 -1.342336450842475 -2.0922686218374933
Ni 0.9109022415403057 4.561575319310998 6.7776927191131415 -1.5269059194888606 -0.06667950360542065 0.31418546387502666
Ni 8.850294655674757 0.10396391347788009 1.523655056065022 -1.330166648249161 -2.060033930173504 -1.251486263528122
Ni 7.640303908789824 4.509136437892557 0.23649729950331624 0.6271792214347973 0.30990534844243406 0.8631386145173846
Ni 7.169213629817597 6.398347122465746 7.505514865962105 0.16250426131622983 -0.056811866782721515 0.8566571205580988
Ni 4.49284973612628 6.486769990402794 5.705003633590038 0.7754357145827613 0.29678706589292114 -0.5473104728326122
Ni 6.467717445995773 4.3952136220954 11.861944085865145 -0.637249975407238 -0.20139013974814995 -0.8947421003552785
Ni 6.918101281414319 4.681870786057436 2.6021150348817876 1.1497988763889486 0.42953980697833116 0.8432693863972832
Ni 8.044537417172432 6.654981812087539 9.828434905574081 -0.5465787368729103 0.26434077243875764 -3.1861963980904355
Ni 4.143026706449942 0.7839575395805092 1.1519482309000897 -0.31178482485333403 -1.1773965835015592 -0.7805943759655654
Ni 1.2866494395358394 2.372214643839166 7.248160683491202 2.0268990952927477 1.7043598601363874 3.104453315283673
Ni 3.191903880237943 1.8960598827342234 12.811111199696374 0.6185817095737733 0.1877923464590572 -1.0395543437083838
Ni 7.7512926888126765 8.238015585142897 13.12046228940698 -1.476521810609354 0.37521239718036026 0.37037718057524605
Ni 5.735740928747907 3.0033406893925854 0.23593104928700162 -1.1900240424575825 -0.25283842822611297 0.02780133848298438
Ni 9.100070803072539 1.2919475232429412 10.864499936264759 -0.5106812516453527 -0.1978286476491367 -0.6257136926328644
Ni 7.27935210010968 4.542177044573884 8.750958856588635 0.7340345259281552 -1.1798663851982905 1.0156811366352119
Ni 1.257664156185874 3.3629749851931865 10.560879560377021 0.6490012024058952 -0.8071896099555905 -1.1205757178577733
Ni 6.98334152910918 2.2464902765039683 2.1656874919234315 1.4360526468507138 -0.6261682636717797 0.298240510509996
Ni 6.740554740817062 7.293405570824814 4.235888938706644 0.8832397561426336 -1.3950854604097327 1.2363321814955028
Ni 1.2327528842932216 7.147348522454954 8.524812910049565 -0.27305964036899427 0.7773537575410806 -1.0106548870652141
Ni 4.976218113848299 4.9795165680786475 8.03235462786499 0.9138592808007036 2.0074006202485037 0.21634239018260806
Ni 0.45875705025088065 5.928125841350239 1.987038351895067 -0.5651703838321686 -2.4788416954463117 -0.11373017723632026
Ni 6.0072793988156015 0.891341380107418 12.155443907144132 0.809964087376934 -0.19465719189969058 -0.06298174303885928
Ni 5.876079410576768 1.0666528208409383 5.445515267135531 -1.0710904666434522 0.7706115537212406 -1.7611714698087926
P 0.7511337151602132 5.967137304272904 12.58399440501415 0.46989301398439715 0.19183334929765028 1.5953916230650846
P 6.6102798148128015 0.15771002930659236 1.4353349728207048 0.09968269800431866 0.07573287205694054 -0.6743643637610321
P 7.076623309793481 8.418692386836941 10.586289805232564 -0.14444560404230608 0.5305908460850862 1.3764799294934038
P 3.075103093044337 2.852275223267863 9.628451400960083 -0.23807901052875127 -1.7567985375520774 -1.5647327605286472
P 0.12121679135582206 5.24229965113831 8.725836408872738 -1.3666418603570591 -1.0156597964789733 -2.1082179460778985
P 5.199774820536861 6.660663002376635 3.055556247705913 -2.1964949733484365 -2.009965552762203 -0.4010915789399673
P 0.396348053637593 1.3192789074462452 5.971657961940445 -2.0715187908846517 -2.7628316095745644 -2.8770032452236776
P 3.18457813486516 5.360950562801063 6.854702748531927 -0.7984740844594636 -0.9925440363971164 0.6846888856154918
Ni 0.42718533026930017 7.511981891947441 3.5910252517666614 0.25816241154218766 0.9112418977825145 0.5940009349106157
Ni 2.294967275220803 3.8403351304219675 2.9113016690840237 -0.31864144276385126 0.32942182120880686 -1.1832674404600396
Ni 3.6842892787313093 7.5929855738819505 8.739156370644295 -1.0110153557284265 -0.4663040110815582 0.38108145436662755
Ni 8.024830788357127 6.192151684785642 11.878614828619714 -0.855487782840346 -0.4279907173236565 3.0515700941313963
Ni 8.454237202395701 7.913243988303844 6.50128786104781 2.0292231154402347 -0.04778626624534351 -1.0723132833069597
Ni 4.091494199140123 0.6583069903428178 10.859603647265603 -0.36751888519084447 0.017342605043505616 -1.0975676869983744
Ni 2.917347277829165 6.398291058087894 4.0026452419313925 -0.6152691002607726 -0.21948813490044133 -1.1805793521049153
Ni 5.379395743114678 2.9965195234204787 9.374022844606802 1.0731594333573389 -1.6180949781998712 -0.762494581041061
Ni 8.49831314745108 2.2109174287562836 8.365309755057977 0.7945282124378381 1.2098053388495682 0.8048504202994525
Ni 4.90010137684997 4.7466438306035235 1.5550688613823167 -0.4746598392454213 1.1546292078980567 -0.5312431349571044
Ni 8.456872228154788 5.6233411952157555 5.105421275829271 -1.5432661060144388 -0.10013521216070496 0.8974124480985899
Ni 5.090187649960333 7.588874186172736 1.0702344001794428 -0.12022658359394132 1.1123299329092136 -0.1891779139526742
Ni 3.1386146890887328 1.1211193639250605 6.279668178614068 0.5729299731729295 0.49911951494968243 0.9009322883263904
Ni 0.550894183220685 2.228334762142594 12.970450833585893 1.4265979291957172 0.5242854726923487 0.31565382089043703
Ni 0.8840006842338743 5.943571577448721 10.454343226361988 2.053543180242838 -1.6122503464936362 2.072700984118211
Ni 7.579754380708659 2.9169454831212187 6.266635079575856 0.6056302916194279 0.4803342639223792 -0.9121438407714937
Ni 5.9318074021625815 7.8451070810865815 8.835503938390856 1.0065244098366086 1.8939854031494412 -1.155299494492204
Ni 1.9733072513525869 0.15106266290582984 12.179732864442617 0.46118443046680574 -1.4289404612859649 -0.34048322122929103
Ni 9.214619671089052 3.0157776372129605 3.745071473980565 -0.40382851825515614 1.51938672829368 0.5463974741000397
Ni 2.669617480223014 3.8566124881252684 5.281718515206705 -0.008498010168682138 1.9723703681172484 -0.011041345415826145
Ni 2.1268021738509364 4.088541475239868 12.827686633008595 0.07293242649366795 1.3422886283236752 -0.07309260622061606
Ni 5.276667114762157 7.992378857643255 12.00700505712182 0.20301687671829552 -1.0502892136273847 0.26585129554601317
Ni 7.379156036750872 0.4632151026964862 7.213997854846517 1.022340808043575 1.3668161811513944 -0.2815046858125539
Ni 1.6610193226487857 7.507365924837549 0.8760124447961293 -0.7613653525326243 2.6189678461776573 -1.1218561272320937
P 6.992601495517889 3.119982627515608 4.102220249029686 -0.5381102943905829 0.05741736157720434 1.177769650570262
P 3.358134760571884 3.138483872207076 0.7226193725842126 -0.04163721592481216 1.7597452788852272 2.4549844292127396
P 5.0413836090393565 2.769505513430986 11.939596052410346 -0.7355203664450624 -0.36952254588443456 -1.6384316328746944
P 3.8754501190838533 8.259161199656427 6.685175282780234 -0.5636955990588549 1.5896516352575139 0.11795141440651945
P 9.398819184524857 0.24373147305893944 12.971475877294303 -0.9256007376073478 -0.9554998391596253 0.5172231665289286
P 7.990425948481378 3.2157032086365125 10.375788623333355 -0.8712278192834221 -1.39022890364838 -1.496514965901829
P 4.059378654693369 2.316514684442279 4.52680419216661 0.24444120530135321 -0.35883318449138846 0.035250595672178
P 0.8604956938190329 5.246373662595623 4.223880883376844 3.007803490568407 -0.2003917803906226 -1.0977756892441224
Ni 0.46885237588959844 0.10344251476384782 8.443797080833187 -1.5574732507527564 -0.052511953855786976 0.3106121447014715
Ni 6.138442010802534 8.191285926202479 6.348431138050687 -2.098074172775677 -0.701650710280811 0.07016206283738238
Ni 7.608066891524389 1.7766053816555785 13.612004853419956 1.3884126763752476 -0.912740593815228 -0.2281936330942393
Ni 5.614641872585576 6.206616294271698 10.18619851996699 -0.27709678655284536 -1.2719368180729902 1.2808042957659491
Ni 5.040860341512729 8.794585352214893 2.9285741694942145 0.35557868210983273 1.6054387228884415 2.143550559940921
Ni 4.015162548693357 5.9817327306406165 13.138938305128413 0.9303523933597203 -0.10433228096118806 -0.20398438283788742
Ni 4.810846887308104 4.605697984681254 4.179133100193527 0.729947243232659 -0.4383196100534903 -0.38946864998905834
Ni 1.5848371772096281 6.560083508508477 6.079014704684725 0.21652468139674322 -1.5642702190699318 -1.7667343086085507
Ni 6.924156234222435 0.8894660266682375 9.34053091968376 -0.9168091074576469 -0.2068521913039857 2.3201508943389006
Ni 0.21273067532516127 7.934585828139859 11.126066422325012 0.05873222373388594 2.7400413511529265 0.8278669357992839
Ni 2.539239769526023 0.9556453526921348 8.85958732630388 -0.19533699157553455 0.6194281167344687 0.11818255658071905
Ni 9.17266482832911 0.7295274383419912 3.6150544441144277 0.39935582719578316 -0.7546935969394034 1.6627470696916073
Ni 2.912301483822401 5.9175016417471085 1.5530720351244551 0.13071282783724583 -1.0625556896995634 0.6998110859689108
Ni 1.9241014157236642 1.9061701588737021 4.43748616299651 -0.8662511920044372 -1.8134880198243222 -1.3238964989697328
Ni 1.3706619097484565 8.567001354383896 6.420161771888322 0.3187985371670058 3.87082794810543 0.606660018435523
Ni 3.8056593127199294 3.2432308181623015 7.20882778480218 -0.754938623070674 -1.3726690403877455 1.3906698478405404
Ni 1.0870882865683313 1.642144315438299 1.463562452663358 1.7415619231079813 1.2722409795769702 1.5138948519411735
Ni 4.681328830404858 2.5610955328256906 2.4243134013653 -0.5214696005101084 0.6175769224583428 1.6282264102069184
Ni 4.034990650327344 4.306332895072554 10.595520805046048 0.3206127075576091 2.673230464175964 2.6307861789688243
Ni 9.036568551091118 3.9879900135606365 11.942262847983553 -1.1384831942658133 1.8976625948907124 1.7342851869409102
Ni 7.655674892384503 7.0839210229773375 2.124481108607825 -0.44128280644687223 0.3963201256932529 -1.4020148405397144
Ni 3.318151515099768 6.714176451037258 11.056715721327235 -0.7580123768999913 0.42984962490926615 -0.7388445457222889
Ni 4.583440426673641 0.44462041737526414 8.115778422110152 2.2755882772371776 0.5523130682535262 -0.43683479797784763
Ni 2.3537507753996008 4.824068736418421 8.8031603988075 0.5226201691747838 -0.08209738082238764 -0.08533568525402724
P 5.742281772830749 2.315113074995956 7.1617010031853034 0.10279630393263586 -0.22854433156543866 2.012292401123166
P 6.2966183088516035 6.277565764444582 13.87592324013114 2.2521387879649857 -2.4611802736108066 -2.0274914774611084
P 6.394478680393895 5.506858106163316 5.8662709476713975 -0.34419152331881364 -1.1670304097758868 -1.0059065737469515
P 2.2182057978771645 8.623514247259651 10.153649410998174 -0.2818610407107081 -0.9952892032424215 0.07835719705366505
P 7.504908436274997 9.134961534223013 4.756259805811598 1.1718823385515496 0.8623454291921276 0.3446694913964967
P 2.067859824601555 9.122505898276687 2.636291879620934 -0.696514160385194 -0.2203006034994077 0.23266221038855414
P 9.148510425537472 3.5540050086640735 1.6724900943574954 -0.05561527537145906 0.19649270244653255 -1.234478416116216
P 3.5501178784662706 8.346883262870314 13.518173641832695 -1.546758949659046 0.21677382129307182 -1.4427002340742185
