# total energy = -340892.0178701157 ev
CRYSTAL
PRIMVEC
9.09763875850280 0.00000000000000 0.00000000000000

0.00000000000000 9.09763875850280 0.00000000000000

0.00000000000000 0.00000000000000 13.31531392648755

PRIMCOORD
 96 1
Ni 6.2875965927670885 2.043029476690039 11.575188904623625 -0.8266379484881893 -0.38777789255019673 -0.10002002673907935
Ni 4.880082682006962 0.4598874663355561 5.867752384085824 -1.184015631479974 -0.7330690766910922 0.038231275567056744
Ni 2.8812495351327914 1.7188169189197393 4.686471279582834 -0.5674321832831518 -0.9703525879017416 1.2318705461797235
Ni 3.2364577486632116 4.081228107119842 4.904562608781054 -1.4539382688818832 1.3815884543645625 -0.1297512352549249
Ni 5.137391203246611 4.499683106339831 2.4322819647787064 0.3033562344700066 0.7426304951272823 0.9168507593288597
Ni 7.3042395454767854 6.054114787827925 2.543305001194506 1.298171840510119 -0.19528556951230885 0.1377843899720466
Ni 5.294434646079367 4.505696645658128 12.027643599971208 -0.4010352717807351 -0.6742833740114517 -1.7231057732853228
Ni 5.756494628586194 7.942593574746046 12.313549639354788 -0.5361459715753606 -0.30860051358808144 -0.03739489570869044
Ni 1.8443461405746093 6.580549663248931 0.5601634619091397 0.32615986262808344 -0.03956413544586735 -0.6968718008349288
Ni 2.983315946043502 1.736257092706693 0.5291878209546172 -0.5399332065319347 -0.7138971317483318 -0.8121001598833305
Ni 0.6539501116495288 0.18182541121859902 4.52901753323532 0.06424672579421192 0.26153621311042696 0.45836855828456535
Ni 8.741994007967655 1.9405081838339204 1.4020089294567954 0.402074768788843 0.8902033319446604 -0.8349976333067943
Ni 7.080492214169359 0.7374063924096956 4.762514804160628 -0.3977334611010118 0.6066895861218777 -0.4587966469609195
Ni 1.0094194274166133 7.472236545554972 2.7325686419844217 -0.5679502605701509 -0.044515308803555594 0.24019657109238635
Ni 7.6236303546257576 4.013996555588498 4.052383133197613 0.4108401736862989 -0.6401362958160975 -0.24537605841079674
Ni 7.677542962795547 3.754167988371287 12.612425272765845 0.6065949695255425 0.497545228484027 0.47234944594468975
Ni 8.185309483176997 8.891240774256113 6.815790041789043 -1.106294782458727 0.5886283577447927 0.16374379015028573
Ni 6.695589307242686 0.6212859489136507 0.41459214173958087 0.7670078955303824 0.2279609482581429 -0.4955971036187207
Ni 1.7259585654626495 6.467220375369912 9.095504602077812 1.2718175188863066 0.31289219898489984 1.461642065284044
Ni 0.2879712034157311 4.8419271844261145 1.4636991091291762 -1.4595525297448668 0.2234779727861248 -0.34660218964283535
Ni 6.025921204851519 2.1826964292081987 6.8390117651021365 1.0645904607414052 -0.26715510195910114 1.0145886749019817
Ni 3.316990048278294 4.495707438136963 0.5256915983222092 0.35595046362695476 -0.14887844300267908 0.13008882110000175
Ni 6.246538948374536 5.981652093924386 4.625061307188824 -1.2837528368713118 -1.4353299097520762 1.116202271380426
Ni 5.14781709743537 2.893140149185764 9.311891943508531 0.04928701916058609 -0.6425101953649128 0.027071145185179186
P 0.33068734738124134 5.732340397285013 12.532214119804221 -0.6667166174077873 -1.0213681597176603 0.055872128577271515
P 4.141609136553338 6.22578723402501 12.674980637898393 -0.7159375592171283 0.5748904393334099 0.4363408890605646
P 2.518590355336583 8.513015534288034 1.5011286151251515 0.8493631579998469 0.19236813875519773 0.4502523569353343
P 6.422287136802481 7.924343711096265 5.556959753468958 0.11073098539868026 -0.3406398014118133 2.6378086330332446
P 4.6394501328859805 0.8912410979995413 12.638177049459298 1.1889356944894103 0.8297860071988677 -0.022239013903858473
P 3.9649056960400366 6.325588332847588 8.228944488672232 0.6507636936229566 -1.6936404168363541 0.5604362115812929
P 4.877089558806175 1.1634242588540418 3.773546869009571 0.21107599957734613 0.6904895514576689 0.34165230183672773
P 0.1850923733505213 5.596230621579946 3.819883873260531 0.03283453003151765 0.11099812301713786 -1.393750286538077
Ni 1.7694634747214977 1.2161996621603108 2.5765395858899263 -1.0282499744391584 -0.2678403009515839 -0.2820140213488046
Ni 1.9968589592310986 6.41262544428201 4.853725002562224 0.08349477539054652 0.8442744306230299 1.1719944386493817
Ni 5.797634151728918 5.657657879487882 9.391956624483734 -0.15315752999400722 1.463183698739551 -0.4806631080167077
Ni 8.376278021498303 2.289238878461727 10.506927768276777 1.0198764056634821 -0.26535970062157527 -1.1375069463954732
Ni 2.5382503530171294 5.029629670379388 7.115717362257885 -0.8307841094460788 0.8533331983911884 -1.1636926036519055
Ni 0.5041429308043279 9.125022801279245 9.00916800883932 -0.3248984794171566 -0.5354152640569231 1.0912399450081336
Ni 1.5706254787446288 1.131964623509605 11.559543694993252 -0.32889577350200777 0.2528011472302743 -0.6456153166527978
Ni 4.0213383501873885 6.73609199566184 1.866660829288558 0.6626524746407426 0.9619617927348852 -0.5267030809949058
Ni 5.95127507761002 8.075682934333601 7.858498639734526 -1.0294100561855304 -0.2521791973755592 -0.08392594939069417
Ni 5.248628034176753 3.3147611267457937 4.863285711290816 1.8229296248531959 -0.7775249930116221 -0.668363666092907
Ni 0.8094105653122637 7.419069943775653 7.074226670253306 0.3689430192318807 -0.90686228065758 -0.45303737587963916
Ni 5.061635164058315 4.515831415401824 7.360425653609727 -0.5396951223791996 0.2788363949517714 -0.8222999832344676
Ni 8.392380842365757 7.040498993529062 9.329001873003119 -0.46668530568037697 0.6460166658562745 -0.22716647738130558
Ni 4.597419041130254 0.1597490806440442 10.409819570571015 -0.4181919860656798 0.20241729546108364 -0.033242821213529845
Ni 8.348202707827703 7.329794813169823 4.931845518102752 1.2072920855094111 -0.47364733882050686 -0.984051425545073
Ni 7.478031741539474 6.222966965963479 6.984069068673383 -0.919390752141894 -0.22719835906050548 0.7189452356952005
Ni 2.3802880486546485 5.331180009629448 2.7761499714100983 -0.5332491096435397 -1.2013186415347956 -0.6369974930767996
Ni 2.447401330880187 5.241349923050221 11.55128758768409 -1.1994491924262247 -0.6034227424451478 -0.1687345584966578
Ni 1.1118406462447425 3.3907809974624255 3.6549336724526884 -1.2438061212750449 0.18914937470758392 0.9226956481454109
Ni 3.679330810712716 2.7577672822322588 2.744379196815002 0.1142351418971968 0.20925591564947188 -0.6768236239348021
Ni 0.97496666887139 3.2650698230293926 8.25922325048639 -0.7388502021492437 0.2381016362365706 -0.04924151063463132
Ni 3.5042740428417924 2.4771597077487963 6.917492547143428 0.13737147080434406 0.7526963640037165 0.006588451850795106
Ni 4.299243925915125 7.142401646939426 6.086443247688091 -0.10428085889796235 -1.0594647094790657 -1.1791063671038144
Ni 0.7601513994440007 7.549693843219095 11.4500117615945 0.7296369110810917 -0.32315655702538537 -0.12419045333769581
P 0.1056345048904932 5.3946906268473525 8.24209967453344 -0.10811283104954283 0.11427370844461611 -1.013047812777423
P 8.528945500016231 1.602703753534821 8.031571212559578 -1.179441124735414 0.2817594821358373 0.7849950761364223
P 1.7511135370437276 3.1908148942609444 10.399766679577493 -0.004876354255694828 0.20887050728559511 0.8031169825481137
P 4.0339658729919226 5.999756395351635 4.014540594395207 0.9133980248935689 0.03970143235468001 0.11768376256742959
P 6.748828690133271 4.0593300902678875 10.387423003106894 0.3287584765931951 -1.0055301642441394 1.963286403538109
P 6.438799351420802 7.80241715444903 10.079453369843234 -0.5529527587200541 -0.10988406401735269 0.5469512897209806
P 2.3719819043314936 8.477689402407625 5.824690529841803 0.1743652744198739 -0.23315971885026296 -1.0050226284801014
P 7.021648685711344 3.9966655534684428 1.4490127906397245 0.1928255380075905 0.16426752386423968 -0.19803125057824603
Ni 5.1212701871013415 2.879038808878107 0.45371107928080245 0.8257462899118553 -0.5979239241141058 0.1644906956186393
Ni 1.4146009714695877 0.9007381232557755 6.989860625602322 0.3265820377671666 1.292365518240987 -0.6360757525934787
Ni 6.709299449077292 0.8151320704216091 9.249749611182414 0.44407965246571907 0.41044319535819634 -0.386538877936773
Ni 2.744302776648173 1.650748384608844 9.079193445279362 -0.7588145610863125 -0.9312201406766543 1.0750983022512646
Ni 6.50576707142381 2.083987047054601 2.428313574686965 -0.33640827982896904 0.26032470930082907 0.9884348993247493
Ni 3.9187806667756364 6.833627782396284 10.600760815975596 -0.0058441174856028386 0.8180571487977137 -1.0960520216847964
Ni 8.156679213533 7.477531371399525 0.29610085354406795 0.21448245415573383 -0.6462706908486096 -0.34260155312387447
Ni 7.218730837378936 3.7444335147395496 8.289674867439802 2.0212172144166223 -0.3411195692617093 0.39042047237936633
Ni 3.1373025822031138 8.409120497956781 12.601666404993049 0.08575760328279425 -0.5557210654938106 -0.33021397809279907
Ni -0.15811514469613766 4.614431625888524 10.3167589124155 1.3089463054178039 0.17166870142431725 0.0543358944384032
Ni 8.612516411026641 2.272280879536906 5.955846641161374 0.039321166197125834 1.0393224302032358 -0.3651339298984356
Ni 3.7175681870437365 2.557273515974104 11.341838105684738 -0.02229300707024548 0.4114703510711301 0.655101144656046
Ni 1.1800638404170767 3.2798170956995287 12.62303766855222 -0.7033368397339823 0.7190568215724003 0.3418050253645081
Ni 3.1220640370319366 8.193369991249632 7.883318818203783 -0.509383872990168 1.971536045141411 1.269637223405536
Ni 5.70359185833521 8.087609938942206 3.566054289139364 -0.6096504685224146 -0.11165349721294963 -0.12353353647998724
Ni 3.215897084730757 8.587943688335686 3.685452611934021 -0.13916892902439904 -0.6538263917086804 0.5767382911754261
Ni 3.2337739451853027 4.264099746812881 9.133307111269021 0.16972134788995932 0.23966718095147754 1.4898617222513697
Ni 7.431988591025248 6.14137934023505 11.349174441700281 -0.4251563331986549 0.1854385015149 1.1506406555639537
Ni 0.8568838646628537 9.059801827946606 0.2913073076033555 -0.4627466327476031 0.13688938896160296 0.11224433671941314
Ni 4.77772514665119 0.21764463512782886 1.7925742068399109 -1.4007015210449296 0.3361141456273179 -1.3148544433721225
Ni 6.000702549798084 5.814546662459199 0.4949306616459194 0.31963080326031407 0.07654714042811979 -0.47664036001055976
Ni 7.980257799825852 8.912511054023405 11.319029415178075 -0.4370248025014667 -0.02330936414990179 -0.16129121484473513
Ni 0.14427672615292686 4.987871507790908 5.982943048885454 -0.5134852967530512 -0.09710593841607792 0.010343033797220897
Ni 8.023580756306536 8.658186558345632 2.6472173230396834 0.027881814011932626 0.8243229272017676 -0.44517982750843327
P 8.454071931802028 1.8929548252609385 3.5426060346174575 0.6671650177991155 -0.8420473410647239 0.5102590765062696
P 1.7520869844069014 3.295910818928074 1.5810604705722948 0.9390563488916214 -0.7293584606087244 -0.6197842145223068
P 4.561374195776103 0.9337634622563077 8.253950258975216 1.7217505448090091 0.2895800066215206 -1.0223899161139554
P 8.582157589990093 1.4700419829759495 12.536833900841787 -0.3305366515395404 0.4965260431908932 0.4971050556228148
P 6.30678351322441 7.687368412816366 1.4609034046926967 0.2733648303142389 0.9719240461539197 -0.012397859443720584
P 1.4963341594205481 3.3685827585265016 6.038015606016035 1.8756485525134663 -2.0569622332267152 -0.4499931897366766
P 6.913659711871417 4.130528212363192 6.196374567434911 -0.32861680880900823 0.6469438056562343 -1.718377771682034
P 2.230086030280834 8.682568230619516 10.19393805786359 1.4146883222423248 -1.0452966455088 0.051776104131026957
