# total energy = -340869.35464130394 ev
CRYSTAL
PRIMVEC
9.24085445077286 0.00000000000000 0.00000000000000
0.00000000000000 9.24085445077286 0.00000000000000
0.00000000000000 0.00000000000000 13.52492456858923
PRIMCOORD
 96 1
Ni 1.3464848901769384 6.896911658661437 6.472758291273177 0.17203482651448437 -0.07628180258187507 -0.34649985973701614
Ni 5.172485065627135 0.10676421095778778 8.799870634028657 0.2739055333090573 0.1729228855463925 -0.4016173695364503
Ni 5.809383230480438 5.315422601014252 6.424014632645044 1.0573258087591921 -0.5595365825851588 0.42948504248099584
Ni 5.582418606311639 5.593941951710381 10.683405333511232 0.29943813036252304 -0.6322653777084529 2.561012866929428
Ni 3.7191204538127893 6.101237134031726 5.769165184093588 -2.2059046966981106 0.05548029245549154 -0.4611093542544962
Ni 1.3776080876933472 8.594567496587358 8.669692870354918 -1.9377525209330626 -0.45718430816847716 -2.718562869564176
Ni 7.523515511747141 1.4397158699106227 9.882242665471487 -0.10699105874027379 0.7619654480104684 1.7448344232116657
Ni 7.622974827325854 0.1996902424972792 8.01019065162843 1.2230629751904227 -0.6878030057644412 0.12488182297776557
Ni 8.471331462715971 5.217081428814245 6.560494658998769 -0.8041803908156215 1.3787813239330706 1.2533744816897705
Ni 8.138743873104014 0.7389634013642113 12.464787008366388 -0.16418576278371078 0.20320688124191458 0.6130348116136152
Ni 6.4321706107115455 9.03777735385636 3.261887600038101 0.2903649644166612 0.05117292332938929 1.0805505836150873
Ni 8.377555272574487 6.347127027949221 0.9556512713887122 0.729239418532357 -0.09412705829341209 -1.753732239921928
Ni 8.575771598799834 7.7840336781315225 12.182197061320503 0.3947021304738557 -1.4978326562719881 -0.27814811063549516
Ni 3.8646361875689914 1.506804472633048 11.742731598242015 -0.3959216047032536 -0.8315027327796581 0.21179642268313847
Ni 2.7101577694811096 2.063649116083546 1.5383388881688984 -0.7462351817594052 0.8387609570039685 0.7230245479708967
Ni 0.5075271277660204 0.059319816454003305 6.343135902947043 -0.31318016253896386 1.6764500210999966 -0.1816957466430161
Ni 1.939904835221839 8.997533433077272 12.31307805401176 -0.04030512737694994 0.9313191281483638 0.33293446234775564
Ni 5.479068891043373 7.426227796945254 5.131098975247981 1.8920894716783092 1.043031503623707 -1.1564850301598726
Ni 1.2975453254361722 2.0910574901434242 13.075572366942415 0.2072615109272624 -1.3804232304118678 0.9462479815440542
Ni 8.619822751579147 9.150414127765952 2.417066515529748 -0.23773422559482285 1.0959766883621704 -0.018473119103523023
Ni 3.5319931528308186 4.094095842417551 11.421771775683174 -0.5596080592530426 0.2475257577639479 0.27952647904026057
Ni 3.0429948621610423 4.485917308537874 3.799597206345717 -0.3453446630866504 0.08618492062819996 2.2978319191267262
Ni 8.799354070269404 2.842348191236522 11.825923313788694 -1.4197809062738838 0.8746622988862678 -0.7008999481577154
Ni 2.438809321775697 4.577290876543294 7.378508949066696 -1.1802687628430317 -0.16386077534412424 -0.6782804109859867
P 2.2128149873156935 3.8878399728907564 0.12061994799938618 1.597127631919585 0.9899809036556304 0.05539596027180136
P 5.639314546664528 3.3806002356956264 3.5938163167335135 -0.07008544396317606 -1.3118740205875599 -0.4121102986479741
P 5.005706125966758 5.992731022025292 1.788766041581808 0.14181407995672995 0.7620279258172876 0.5188725292068934
P 0.22479209930653482 3.690529250393618 7.409413138334549 0.37570810586985615 -0.8441404761483269 5.043164600585579
P 2.3194359650307543 5.577216005301622 9.886584942939706 -0.3674335245658898 -1.3048227701677335 -0.1418271925828525
P 0.8911778304528498 3.5039009555475986 3.5276388622519192 1.1913317055254127 0.9947317880770546 -0.5396964079307801
P 4.1767552847525495 0.5734717127175039 1.408999269986471 1.5441040285347019 -0.24132348560797792 0.1771361522967917
P 4.0290679502195195 3.9302185310291917 5.8093878509076236 -1.4999702714402812 0.5652408320587878 0.49157024184751463
Ni 6.994236336880801 1.9205452453177783 2.658770302417868 -0.2049500891852664 0.37918835110897275 -1.1990229035220834
Ni 1.3960251104517212 7.530150445184428 10.614685719992591 0.541309518054171 -1.4688468105625994 0.7951388494386434
Ni 1.7869502136982052 5.161275909276955 1.9796839410261398 -0.5225708039940871 -0.38584288031101294 -0.7654060982609011
Ni 4.289198000720384 7.864142644660545 10.746810531681982 -2.056493778230729 -0.6511280189409109 -0.6131895920239246
Ni 0.7841659645979601 3.12318699637939 5.632455060466063 1.2742464400427733 -1.4052379754627025 -1.8436668574005473
Ni 2.972320807943259 1.8764109248491414 5.382906712303691 0.24715526179840658 1.6929094522076007 -0.7308067630194768
Ni 5.876573482600928 7.351533971076747 12.373534495553209 0.27329875296299383 1.1320037571890569 -0.7287125994946095
Ni 6.7903553669269625 5.446226894614242 8.72449575719312 1.8959587248257281 -1.1814998070366556 -0.8508579973778185
Ni 5.807664431567715 2.8058837798945535 5.8749701943678225 -0.5051060715504204 0.947999159907206 -1.0035570996781686
Ni 9.326332272397742 4.192473978035036 0.14841274160103438 -0.9776246960831229 0.3029947373655298 1.029299498749595
Ni 4.94686036534191 5.1661920438015185 13.171558969449078 0.46296337674409943 0.41298447372281133 0.1617835811001214
Ni 4.151472307197652 3.8888657077257682 1.9064871335654885 0.6931496147883354 1.2509589302697424 0.6366000005280649
Ni 4.123010475739654 7.616367616451676 0.48152798399748825 1.695345829563235 1.4271363181976906 2.0575206768333465
Ni 5.07053071936866 2.4905950696622634 9.986019308211622 -0.15225430145344748 0.06797482537807649 -2.4192188415773566
Ni 2.2503605786188907 8.944139776530417 1.849208621841703 -0.10870392766632246 0.6466172755547509 0.5656223837679226
Ni 4.290186772137917 4.73463490389243 8.891799577381683 -0.5213035072458893 -0.6769601495126664 -0.3582356601167056
Ni 0.6645357121015452 1.6717260005651584 8.376445445964713 -0.019276588841424868 -0.5790139745834803 -0.8908597345817367
Ni 5.7460833780495 5.471084792868143 4.01698368496055 -2.9057996006300795 -1.6200217629089388 -1.255464788559896
Ni 2.629900949282175 2.994055297420276 9.23588648617102 -0.9755351605439457 -0.022055951358774917 1.802187507209838
Ni 0.3162784057352612 3.4649599952346097 9.753337367444425 -0.5778724047798693 1.460446502314046 -0.22644939670962289
Ni 7.005889054240716 8.266757428684421 0.6032134025056755 1.4954353596844052 -0.6588629256913234 1.6514434717533302
Ni 3.0195877780431495 6.891043716136817 8.203393814358334 0.49169751145399837 0.11861938700782151 0.4021737562605526
Ni 7.727969414671887 2.102913506299467 6.671493953514089 2.976899601900699 0.18001347384458674 -0.4082664994218517
Ni 0.3574556528056643 6.025064771464103 8.816952353330642 0.059725955105722955 -0.42165577624456413 -0.6009449703286167
P 8.70965309690486 7.581926952216624 7.180220544177267 -0.44407579581097717 -0.48914312046326075 0.3686594265531909
P 7.42505420844033 2.6064106974749572 0.46206027609730466 0.14073755906309957 -0.36890856644951947 -0.8484648145552935
P 4.346056977655794 8.078844655081044 6.661715281420305 -1.302144709114938 0.08570078190292983 1.728485035319365
P 5.654977794820796 0.17067395977711183 11.188426341572248 0.730831188499509 1.2923464920775938 0.31691237588788645
P 7.621394641228673 5.674078640802511 4.759082508212327 1.0375807649217805 0.8170875857955928 -1.3523465267803096
P 2.572256499725359 0.9285302878997251 7.154766610816535 -1.1574792757523422 -1.0261951487926586 1.8666041829230113
P 6.2269219943110246 1.999998111186568 8.094207575470305 -1.0049663213208693 -0.4272998619042189 0.12461417113867569
P 5.069042941815175 6.70882330882504 8.965226482116133 -0.6064569012857814 1.0960270819841318 0.3071617242590258
Ni 6.591954223614226 4.452751882205811 1.5268423412478285 0.1879800369898311 -0.43096574079158034 -0.32849750962232455
Ni 0.6611387740353243 7.304932342491459 2.434459651623983 0.32059676671800913 -1.591768938710833 1.675243402386405
Ni 6.1678267306182 2.809829624710322 11.883823735011548 1.6549949365500143 -0.18872257158281047 1.3203442628421003
Ni 4.644675186605541 2.7953492059133467 0.004691581763385023 -1.2520598766434048 -0.06340803194300047 0.3950764830941389
Ni 5.858147218988184 0.7622272522393774 -0.04841560829801684 -0.7553841952485248 0.6059933313858015 -0.2250489168176705
Ni 8.819656227319152 7.808263198288298 4.595566514229814 1.450954503663211 -1.5541647552048137 -0.917083444164956
Ni 1.109687996959012 5.289585172197185 11.76606198326864 1.0727498566237461 -0.03976905236782183 0.18454401472508863
Ni 1.325286370253351 1.3444056979438055 3.6195539443233895 0.21849208953575922 -0.5253185419425533 0.8596264875990679
Ni 4.611140126098699 1.4077979589184386 3.618728736028195 -0.7107213051235115 0.3634706832633998 -1.7961940086305646
Ni 1.8782036505968205 7.141091994520577 0.43272980432857494 -1.2786047170114687 -1.9666789741594257 -1.0479237987190018
Ni 6.435996324420511 7.467174022656421 7.594393788846489 0.05929992331189787 0.22075337476611015 -1.855825604250268
Ni 4.3813293187841 8.016228625873447 3.1123012699321424 -1.2913131657170729 -0.695978342486382 -0.7805326694896945
Ni 2.974640262389998 0.45902095909518265 9.609797328352418 0.38285577265823095 1.4728564459426248 0.665110706373248
Ni 4.073211511542525 2.544672549432461 7.6275028459669 1.0667368176604468 -0.7760486655764118 -1.0602553237011612
Ni 8.58845929184913 4.842632768908544 2.6955581436627685 0.19914171003360542 -0.021819924088568875 0.07899534485829621
Ni 2.50274679315813 8.74735578273234 5.177192356842948 1.0518593863279821 -0.51959732318806 -0.17884824989189196
Ni 7.26315443988704 8.765754323781975 5.7673927882255205 -0.8485108373018806 1.7580645487486948 0.1639620768086789
Ni 7.018983344882269 7.878891048234235 9.850323830393865 -0.36856583839812007 -0.24733112525463857 1.6783472381227096
Ni 5.089326617156183 0.6180523664521865 5.7215027054266825 0.10319688180516422 -0.784628693935939 0.5989557078127298
Ni 9.25369915705363 2.395830108103246 1.9779660661988534 -0.6876813925849125 -0.32748809452120375 -1.6814839839794782
Ni 7.112722571606275 6.845726566308887 2.8448053344133664 0.13178626340708272 0.5316678811993488 -0.3510540547666019
Ni 8.173766711164344 5.417663413758179 10.859473179983809 1.069630337158158 1.5396228528348967 0.044183893606065845
Ni 0.6329587886355948 5.531704797531932 4.588208945980834 1.3287255449272601 -0.07151754842401231 -0.5421068171444857
Ni 7.873060069127093 3.2470421674935315 4.410910217706242 -0.07498056727194828 0.3582832255251894 0.6279256126825186
P 1.7694203129593016 1.86400045743093 11.03848885900025 0.27832294565046256 0.022395594086380782 -1.053876930978643
P 0.3747240373659117 8.65633336719296 0.6064458533641196 -0.8771601256074572 0.4283139049910301 -1.9185458660976247
P 8.917526115946314 8.814056269571248 10.097195103045399 -0.06330338804433613 0.6707517067091093 0.3555609414980199
P 8.500116724076902 0.8303526788220582 4.414629661589958 -0.30371387491974144 0.5662551322559151 0.4068925018924605
P 7.058173808263233 3.848048853975775 10.220515228691546 -0.449368154558168 -1.8991510065107806 -0.6037323032657668
P 7.238721620934135 5.782399935721557 12.71164349565093 0.06556698726753225 -0.07096244725149069 1.112431234373768
P 2.4257981988234696 6.997553803599445 3.822224362354826 -0.3495173064071013 -0.7748109365145689 0.06446964043829542
P 3.306349970836854 6.538384990834349 12.47856881857303 -0.3003549857498376 -0.5630780200795141 -2.7049331945958834
