# total energy = -340866.74197987467 ev
CRYSTAL
PRIMVEC
9.25749706239075 0.00000000000000 0.00000000000000

0.00000000000000 9.25749706239075 0.00000000000000

0.00000000000000 0.00000000000000 13.54928271295374

PRIMCOORD
 96 1
Ni 1.5354484512063644 3.227330086595082 4.255666738787774 -0.7966357456991441 1.3829765929613407 0.11461695071664776
Ni 4.2615776506176015 2.0151997178581635 10.663623765399553 0.5953654193583102 0.13464918677717455 0.7463822488602307
Ni 5.653340491000537 2.987375764544745 8.993566679171085 -0.8341648529928538 -0.6154516485852239 0.6543138728680602
Ni 8.965784004946345 1.753184780474263 3.167917322395443 0.7966637707236021 1.5639076935241902 -0.5160024067479501
Ni 5.8424896695550315 5.701775715266253 10.474895802958224 -0.9549485946418457 -1.5853036427014633 -0.3680639590610371
Ni 0.9652792114270325 9.708429671196349 8.973052991584998 0.4345771122919226 -0.8184127323649196 -1.2152067123707975
Ni 8.429478689166245 2.249793949149738 11.914426402073703 -1.2001446758313525 -0.3444496620762068 -0.17899274588955627
Ni 1.3914573429821766 0.40263168795425547 11.303976867129512 -0.6222010514939155 -1.1886374465227012 1.5079219221871902
Ni 7.714688831367224 1.927873748726187 7.692523606317644 1.0642544175582251 -0.6818110498470645 0.08306308716976663
Ni 5.698267123906026 0.7104286509657692 3.586562628647641 -0.16738524355761497 0.9900909468709336 0.1848923992034429
Ni 2.5098555546681824 4.599291140910669 2.1173330534299364 0.13707090884478976 -0.1833646497050068 -0.22600202475955916
Ni 9.050027227579758 6.95813840463421 2.655550968088723 -2.1503346727422903 1.1416641630969564 -0.43663450904158346
Ni 3.4319948301093133 4.313290028818727 5.280589226089564 3.8183177940218567 0.464482127381471 -3.717000645737908
Ni 1.7947509419714087 8.717433133123643 2.1021572386098315 0.38205590246475496 0.6699502938537365 0.6338188382385019
Ni 4.2772783655171915 5.3469080830457445 8.412817046078816 0.41700902150117214 -0.020351567073158498 -0.024407996530719255
Ni 8.792279996309484 5.3009075804891035 4.218379392400646 0.22825379690821337 -0.06819876846342449 0.8134476750501604
Ni 3.6011663301535983 0.42820552339654155 12.30143421235341 -0.5558568197407265 0.5661492028056702 0.50347367815332
Ni 6.443245679398188 4.319048191948176 4.374453385699683 -0.6092915425210991 0.2632645086554433 0.40699200358480236
Ni 1.436096993480893 2.2776775300916983 7.174670333543361 -0.15025295475270253 -1.0348191430162437 0.47032213110201576
Ni 3.30506528884264 1.8653300990436223 5.761981846958165 -0.2105486663189664 0.2127248480346788 0.1382703284695296
Ni 7.402174247888239 4.471676544866537 2.246782485378018 2.0893864151936916 0.22791415418060745 -0.5431882231341226
Ni 8.715877873628873 2.1577836865394637 0.7896450527321557 0.8333798951977133 0.8160100364606979 -0.4535953052656382
Ni 0.41857587502475296 5.935953359193157 8.410202728928082 1.3980897944536956 -0.5238152179241494 2.4943495612739235
Ni 0.7269458771001139 8.039543658337456 4.51830655721868 0.042843577528087505 0.8878993664018322 0.3532564617345593
P 8.15354047630535 -0.11913380304913532 12.423201773296963 -0.4450178480092723 1.0145035713873432 -0.2879494129966331
P 4.09448908739667 3.8645328620984305 13.659302578997035 2.180821528477238 2.32904228329126 1.3666547158728655
P 0.05739185260613684 3.693509862655609 8.09531730046927 0.2188538437505521 0.7450966972795877 -0.5382635321389956
P 0.42114020169172606 3.5836418883464494 2.2554271360697853 0.11946579416851684 0.9652304361838279 0.43539780842100495
P 4.96997057799468 0.2501227567471002 5.890794363113151 -1.2446263031834952 -1.6807589328879957 -0.5846382627487932
P 1.8834840506462731 1.1824323183843923 4.13503784997432 -2.7634191066469187 1.873048138776142 -0.5182361811744752
P 6.740818662730982 6.053347678557366 8.407411593584788 -0.3276721855075518 0.29319986276229504 0.20841362225383464
P 4.687255877335141 8.571516465524978 2.3281734731879857 -0.07960675319004999 0.3563111894004831 -0.5862107494422355
Ni 4.1860642476482885 2.5967464214415026 3.6953909860445218 0.11243871211840635 0.21215612001540235 -0.6948416577787775
Ni 5.0096759825962955 4.363521207501024 2.2243719366581316 -0.8858874781781259 0.49458460319380637 -0.36737413208286407
Ni 4.395255907191941 1.573431961367342 1.202831213007769 0.003978782142089922 0.22398036634384008 1.1475010814937077
Ni 7.02777329701317 4.143479761481948 13.302306648217908 -0.49483065776634133 -0.9011683155965963 1.2894645425441082
Ni 4.845892345801753 5.949200837389685 12.905109110998357 0.4126725989093474 -0.7300110065910589 -0.02324405812960513
Ni 1.3590098160228234 2.637349803251409 11.123405685288436 0.48785756888261783 1.4591159564280807 -0.8696172802631927
Ni 2.982506321126594 6.8066209513549705 10.900547182934485 -2.3216472763787697 -2.1252185944009527 -0.5883717616492964
Ni 4.267354328741035 1.090866415629767 8.102688119574845 0.7655698775322751 0.19925972366870845 -0.37426468855511025
Ni 9.136964381838041 7.1124516220052385 12.7876499891552 -1.282751392189991 -0.6077054289809019 -1.231641717998369
Ni 8.289394244672971 5.8658463344675695 6.7688827648642995 1.8724189898325752 -0.8220230754239972 -1.322437140815387
Ni 2.505124973704921 6.320120969395505 4.121921828235087 0.3679544300663663 -0.12485919726994628 -0.08415580601331313
Ni 7.99777383190647 7.333816890094269 9.9874608138025 -0.7332886489010662 -1.484726200797017 -0.9052895368538214
Ni 5.624679280311192 1.992629940190003 12.872780080000512 0.6751495786664888 1.2964240045810769 -0.8342065048640664
Ni 1.7481857320982146 4.597485928997096 6.307258603073873 -3.8560523324581526 1.3265825304423282 2.585232915819057
Ni 7.008425128298462 0.7051305854368569 1.5133054441495666 -2.0801440706598173 0.6637621627651537 -0.4919039710378496
Ni 7.673567029725727 4.1145037958948505 9.368990583463845 0.049661628891185444 0.8840152008560774 0.2647745175420666
Ni 1.4871891193835092 7.000371105914828 6.48243729291671 0.4692944611684498 -0.44556575009294236 0.7536163047148247
Ni 3.5450936708689182 4.357003929618176 10.62606517435054 0.8428459257066194 0.3432762105933959 1.1870932419640332
Ni 1.2341354390885257 5.116424180418922 10.759634192460364 -1.0514937754584472 0.4442359755379252 0.8148800366213127
Ni 8.846862198578341 8.822274286565776 0.9991727594166427 0.8753187015233442 -0.0568216369747344 -0.9165620244438474
Ni 8.841085520454907 3.5602296784519547 5.890632356915779 0.16363348982466655 0.405559899123966 0.783721094520005
Ni 8.721349054351547 8.114705276421047 7.359618459962576 -3.220980081428524 -1.8326841331367985 1.2538097694549761
Ni 6.166603896765848 0.3818745281972621 11.090548051212307 -0.3065557152439108 0.403118379562009 0.060884494190198375
Ni 3.249103719521872 8.904647494806667 9.976445318130907 0.6526686239551533 -0.08913937527083358 -1.2033361861854568
P 7.858791029555324 7.477983890761319 4.983805907250245 0.4319016223422884 -1.2757042555352223 -0.012820548803435984
P 6.39653234957311 2.7689080930144243 1.5271805806421994 -0.34119001748832856 -1.0212169788517769 -1.0585769075574736
P 1.8228659603381865 0.8323350743642131 0.3348945824587956 0.0646223639660758 -0.17314888551426952 0.11997153016034177
P 4.8159443430304245 5.7815290518582145 4.190020901862961 -1.0477512776968794 -0.18050018367301818 -0.09679354938198169
P 4.561826050581282 7.78503655101462 11.580612169513955 0.931055590074332 1.6999761292463946 2.3139216255997375
P 2.5951171019707906 1.628236343564024 9.464838078577587 -0.5561234431385519 2.069620031200042 -0.2657520509639875
P 6.430507363536256 0.5104232056879558 8.793674175356582 0.32270764241342487 0.21697102490554246 1.1455375300094335
P 7.155461953033243 6.876283616224908 0.7282169314372091 0.8370421745406488 -0.31699670807157665 -1.045563011796309
Ni 6.2789251077780674 5.989137679416119 6.166806635949987 -2.09379765688751 0.4896696823906921 -1.1031410673210937
Ni 7.237511148879391 0.2462318307610756 5.519300266293783 -1.3192206907606183 -0.10263998086042969 1.2175708417275999
Ni 6.0202058393235625 8.13328507288536 7.315948995148692 -0.20932482121419432 0.2569570783801768 -0.042485422857720376
Ni 2.362420657562716 2.163884377057642 2.2328943883895955 -1.2248828020079807 -0.7912845086895598 -1.073279503874971
Ni 8.071926382817859 9.11266345223225 3.3505482973173892 -0.920094720187454 -2.7079161884836074 0.2441480995409666
Ni 8.443152012224438 0.36149692581696885 10.212704047381767 -1.6611974658163002 0.6146137260649609 0.6283254192240986
Ni 1.8843357403696002 8.03586843203136 13.251117318596869 1.0484390477925234 -0.4360927776055006 0.01810262313798173
Ni 2.110292726967001 3.7967402116210143 8.910686160094995 0.3976182756793862 0.1191426065011432 -0.5179016806531919
Ni 2.481185086481844 2.830405645536816 13.211173996322541 -2.0998004114381645 -1.517035197342368 -0.3432222174270089
Ni 7.7536906661973966 5.233448199903425 11.576736981272818 2.176539613272432 0.27074641885478534 -0.589280646616811
Ni 5.656645417426924 7.737017914113575 4.400969634335825 -1.1318512907715925 1.5558663112769529 2.2735941296252844
Ni 3.823355515474977 6.785643463169552 1.4239622664228841 -0.5295330942445332 0.03532412922259078 0.4129693042141597
Ni 2.81426982827857 8.952008849421233 6.699537632141211 1.001774296746133 -0.6708581503799866 0.7021245645934359
Ni 6.588625412171277 7.4745030718920695 12.087314787160551 1.621507603425846 -0.45336364887080627 0.789719221084969
Ni 2.4325369397852956 5.433632314873197 13.106857742959894 -0.4739399303602612 -0.4553536827176416 -0.23549376630007832
Ni 3.058815868837278 8.977179983744337 4.17991264089665 4.317975440863196 -3.412475844881097 0.3759222787631913
Ni 5.64897095241999 2.21267138620908 5.824307945461402 -0.7693841090720427 -1.0459458490570244 -1.2885872821454776
Ni 5.266543751652265 8.883299706741541 0.06160031073901043 0.6988883170443254 -1.509941266610064 0.9213584173912261
Ni 4.0906564836417 6.7712850853339015 6.206886043430108 -1.5037374517921973 0.10913715854899915 0.09203160921696409
Ni 9.52429805601189 5.389140784326363 0.8665581892467628 -0.8194530007039759 -1.3968662064592396 -0.27593799035805383
Ni 6.693633200559278 6.720220731922263 2.7842959045156617 -0.21147014969197128 -0.8784443916365194 -0.7802166809111725
Ni 6.410548200020031 3.7470089377763225 7.0275659290805335 1.1453295277636855 3.6212393942751824 0.5927380090377921
Ni 9.297581954661087 1.1485776518821513 5.409456361476805 -0.29155024297401405 2.3887736377136215 -2.524656439787581
Ni 5.382716081413441 7.80094093084805 9.657766167404493 0.3493175316914694 0.058021570820106526 -2.00724146896282
P 4.086444322510029 3.6146822757629145 7.049732079879813 0.8285356797315345 -1.0677485467544126 2.21732502271991
P 0.7386630910437524 7.593128638356307 10.657012061047379 0.7104719081168668 -0.4570426403842903 0.24634150764785964
P 1.626977323973019 6.589208634481817 2.0496950031522982 3.0555635315615053 -0.31282277919954515 -0.8437062168243857
P 7.437519371406302 2.5383408729146675 4.748305367003087 0.6552736656781681 -1.9305991977177335 -0.7564650870175295
P 6.002385157612648 3.4872250571676586 11.184620884152551 0.3873099517748426 0.31678356361950605 -0.06795142833930878
P 0.30934666800808897 4.022863833164283 12.633893147353431 0.15166320483666784 0.6509398141895048 -0.8014159406966068
P 3.1573526668273932 7.2270594347746515 8.367942255156485 -0.18324483629769087 0.33746988832426394 -0.7237444568560567
P 0.7658440279639684 0.16455756354313186 6.8910974629126 3.091876507059927 0.0138567033774342 0.987604433003654
