# total energy = -381163.64535840444 ev
CRYSTAL
PRIMVEC
9.26975587024040 0.00000000000000 0.00000000000000
0.00000000000000 9.26975587024040 0.00000000000000
0.00000000000000 0.00000000000000 13.56722471738126
PRIMCOORD
 96 1
Ni 2.1267230198416165 3.1805459509290888 9.490871107560201 -0.9141495583476127 0.6431899950407568 0.14063034406127395
Ni 3.995932220450888 0.3968345426857099 3.585599986181873 -0.6881151376882213 -0.18923319267064184 -1.716879846980269
Ni 5.27361975681054 1.4584292371297116 8.012518384049061 -0.8445166285408231 0.02253803320151602 -0.4699994576552744
Ni 5.707092082762409 4.736557908543282 10.604807478760698 -1.131688282831167 -0.8390172959891486 -0.3876010006527002
Ni 2.0420437995864877 0.2682305840420833 12.634898855074393 1.1571967115149167 1.5900090185969327 1.9677521526189463
Ni 1.6589804062834839 4.1200820613788505 2.2074959649554744 -0.7312083693332697 -0.5748575292129454 -1.8933611393018808
Ni 4.930907610992 4.770967242488224 6.068849869077521 -2.2131436376487112 1.7368092389143444 -1.4986975753754448
Ni 1.382445047919937 3.4973862079975397 11.80283444071592 0.6707293381116062 0.3716123385339277 1.6663131897763108
Ni 7.457991388668209 2.072049999473281 0.614263156428263 -0.11084077150366717 -0.16508873421395437 0.17914495519670437
Ni 1.259101675756309 7.561571641227685 4.458936134786861 1.9501483234942543 -1.058483319402403 0.38554077568956185
Ni 0.21991012740016652 0.05836794507481595 6.679171525292049 -0.30800273210308243 -0.30366630951125767 0.08271341713983174
Ni 3.3451211973888104 5.94453688044551 8.268369209070812 0.10235150308573342 0.15435694961874707 -0.04353134762373148
Ni 0.24124076272902004 5.311041761426845 3.7897061067278552 -0.7381295219331352 0.14262731988664468 0.34783966159436225
Ni 8.500162236574432 9.049302576794885 13.30507903311437 0.2194832498044349 -0.3230334011839598 2.0484102298916462
Ni 8.882660174766812 5.5469755888963075 1.6779537426839435 0.13730025124677644 0.8888355050628564 0.6762651803281708
Ni 6.412066289617668 6.00506838655016 4.614009881436894 0.3061615651292856 -0.9821302972629602 -0.6135624019823112
Ni 9.137244751131 3.387576679465273 7.4747946752096945 0.8579832955686901 -0.8639407987037055 1.0086054607353532
Ni 0.9393877943551715 7.157252697618714 6.625051909351652 -1.478489475858686 -0.9946479701139967 1.3877984398300163
Ni 2.8419310372236044 2.815419535315595 3.830434633277933 0.5364699305736825 -1.2069760969308891 0.9305819928720231
Ni 0.8351327035653103 4.871933423880545 5.93248619776005 1.9122029545987327 1.4682796252052197 0.35444765382918314
Ni 4.8294779418040825 6.788854058168321 10.785889379572724 -0.5723825853098916 0.9225084718352694 -1.9627387585647555
Ni 5.873715945278658 1.517774214477641 2.455532385743502 0.4952867714671535 -1.0042368993540125 0.3309485422659784
Ni 3.664473558309384 2.2405556224396443 1.7723680605977408 1.6401288180714593 -0.08449622007186738 -0.2637082810610813
Ni 7.7816541860878115 3.394612424202399 2.9533266209923954 0.4106319143302347 -0.17703613638381768 0.19087895580418093
P 3.830939834975131 1.4421886247720777 9.746531902585758 -0.3814030993721044 0.04295259230212603 -0.060488030082728086
Ni 4.155103199213976 6.825608640358971 3.784088634645249 0.7262335418264976 0.0835204864221594 0.3315041576591323
P 5.811098744093831 5.068062919464345 7.910899611840542 -1.4091378247377409 0.12094032183151429 1.2952361549205629
Ni 1.7553024399639485 6.523942973718286 10.58038630681082 -0.8456967648918532 0.04853985658191641 -1.100071941477467
P 5.047168889638942 2.254024577779622 4.841694553120364 -0.3706119222938714 0.35447824995680244 -0.37243277755269405
P 2.8372961592676584 3.500871636220411 0.3898080677044961 -0.39902209800544824 1.4993953727734175 -2.023779318716844
P 8.553166700878629 0.47706335312753956 9.749828227788027 0.19164283055339898 -2.0247442537332745 0.4669668414765377
Ni 8.140199075003864 4.94154929077885 11.819494973016361 -1.0181421965811948 1.5223545526727522 -0.15274615348820147
Ni 1.5216026236692521 1.0915508376488703 10.451077846717888 2.3519076179252076 0.033025562996401185 -1.4035400189349894
Ni 8.930751668437704 3.9818700007325485 0.24308544415548644 0.2452081653743648 -0.8039037401154671 -1.1502159093217095
Ni 2.0719480321582497 5.972364687693007 0.47134484070549365 -0.08787130719168737 -0.4589853659329579 0.14059177751385465
Ni 5.98585218254481 1.807963923299404 10.226974081743183 0.5061414547934702 1.320505471010313 0.19600959216252692
Ni 8.218704637821672 7.687074866518783 8.211332400944945 -0.6945326111787908 0.012945761527390609 -1.1016873655937027
Ni 5.266945532553977 2.191518613665738 13.264512727292749 -0.34474945270481266 -1.0585329416934155 -0.11980492267549045
Ni 0.9167074825655467 8.284102765780066 9.03597544872036 -0.2199254795481761 0.3493794952776563 1.1202281047103677
Ni 8.667333014689484 9.19860126551181 4.315110309960318 0.6863878705844695 -0.6911107299814355 2.090133834882678
Ni 0.5178558409934092 2.00564146812049 0.9851219890976706 -1.0029426060226212 1.4271982817838775 -1.7844960034673463
Ni 3.056470268048421 6.344943987059662 5.7186662999939974 -0.5133701113314255 -0.300845809343327 0.7454959896005354
Ni 5.564597394884814 3.646842482564966 1.5167610301564713 0.623661695199842 -1.1190307419681567 -0.2896823365273398
Ni 5.0534630539031165 8.311337308649204 8.345593691621598 -0.5203941080577424 -0.5005932712817314 0.5915730421954134
Ni 0.6454493962426396 2.1372534625575255 3.342896455969956 -0.7143136504604601 -0.4963344960053775 1.062724354066944
Ni 5.537715102740328 4.422971335799905 12.72115949568809 0.7853894833613636 -0.5409709037678296 -0.4973161431923564
Ni 0.09211449147205691 6.769971565375799 13.156191921559932 -1.2196590917151962 -0.5852830954216436 -1.046116570306934
Ni 4.409446761924455 9.255916166315036 0.3770983053737017 0.12904443899588744 0.2257364298029983 1.1923028111894307
Ni 2.8691841196045655 7.748153288222236 2.18467567985158 -0.4927699185825707 0.41242063079954133 -1.1484500756705385
Ni 3.5255848054815138 2.73315972135347 6.376107052484259 1.5053186802363883 -0.30260958611196914 0.9064066811774002
Ni 0.28229651166278746 7.6136398601847795 2.5926153901197355 -0.5039542173341642 0.27015275113484444 -2.4663358496698167
Ni 7.279585666387946 7.766275661029984 3.335176603246533 -1.1150182783746538 -0.596147034719341 -1.0095953354524483
Ni 1.4654186330872778 2.5850382916373555 5.599682494035731 -2.337859624472574 -1.1831669103264333 0.6232636884304751
Ni 8.37649442295389 0.57146469338306 2.2936073624989906 -0.5409613906861329 0.3657075430137186 -1.5323677139343803
Ni 5.341279705211435 7.536904820746141 6.188635508922165 -0.09547225946739686 -0.6944819604465137 -0.6226872471017147
Ni 7.833333075296607 5.3116999140965895 7.209446985256209 0.2208816728138583 1.6316920001580157 -1.427207023534626
P 6.656157502289595 5.16095514345741 2.329383985440935 0.38404876452506764 1.7077850837678523 2.5971098697623014
Ni 6.722176703894086 6.3470482216516615 9.321389379296315 -1.0030045696088081 0.5643861973679763 -0.11931564174389772
P 0.35289033780979706 4.672123835199724 10.447699020688006 0.8623122619613472 0.5986201788501819 -0.5007141131303119
Ni 3.3449172627587487 8.53807553825407 10.0494332276895 -1.297210247927798 0.08688606046028262 -1.3907215270140822
P 8.417967310903691 3.7247640507603257 5.460265365120883 -1.487220942194413 -0.8510266617451988 -1.5305939098634092
P 1.0988554053074409 8.294447813377737 0.6831884265111322 1.6375299469960314 0.148810308768905 0.33450000706266264
P 2.3812612474262447 5.057328542118375 3.921471052137437 0.8135443485290247 1.244178417012799 1.699426941611144
Ni 0.4188483590252698 8.668871794170858 11.446274206540604 -0.4881550455183787 -1.2022087574492328 -0.82140061134865
Ni 4.418253030040752 4.338041832135155 3.50151032240274 1.8883803982578382 1.0109837311595429 0.20953308057025852
Ni 6.877945682237511 0.6649195915599765 12.104868116666305 -0.27288969045003325 0.6651361602945448 -0.007479853316812925
Ni 7.778808371022862 1.7485077088805319 8.210423037889989 -1.5330243736817728 -1.2081564903922355 -0.5390256071160007
Ni 3.712361117350215 0.050915988297246376 5.7704119314453575 -0.6794937145677975 0.28973221592866877 1.126663575923066
Ni 1.9919963874181859 0.8749666986698904 1.8688448992019338 1.1557422384565772 -3.634289542590922 1.190976121958207
Ni 9.214118836908316 1.7160357539211761 11.931790650084197 -1.7278561434861146 -0.5411961324047583 3.034918087397012
Ni 0.6602485615559743 5.470592800182321 8.601743002783714 0.3356842571787509 1.1336816591121122 -1.3217632546768139
Ni 1.4614975263365477 1.4369419429259473 7.869071692239314 0.6842212019504538 0.6431187754831892 0.8696599605756701
Ni 6.414763788588029 3.3459091266413212 6.721800351804064 1.5620950657954837 -2.5552163148523093 -0.10959867156644996
Ni 4.329560005475774 5.349427820657988 0.6848412239902225 -1.8405074858359594 0.9509538716601558 0.6717647213546559
Ni 4.27043750226973 3.64225395338858 8.994662927547832 1.2391441970230013 0.19384498041104037 -0.5994071935278515
Ni 5.047363554513092 7.20903355414254 12.893693754573762 -0.44512737700394306 0.15436106338380512 2.1468567414960185
Ni 6.80712474707066 9.232139242401033 7.079160565914575 0.36755565196605083 -0.8673688505486481 -0.7189195246635877
Ni 8.606671732002066 6.979690523126432 10.506770540236532 1.5154022897246353 -1.4344629337660908 -1.2067254143726638
Ni 9.000784674352044 2.529354867874624 9.905891984369452 0.830744257347079 2.1848879852371277 -0.39238325253269196
Ni 3.6140738954164298 2.6834089413743483 11.67268428678619 0.06158871934607457 -0.06134009367037822 -0.43305527633075747
Ni 6.069863980374283 0.3341635769165939 4.8096351022990875 0.22017616210640145 -0.08646362821088334 -0.3669812675198196
Ni 3.259088592770545 5.165970081405744 11.528288371971064 0.8873116122191622 -1.0106574581683756 0.9753538977710752
Ni 4.617645479705538 0.31370244469227576 11.601360930848914 -0.4233624745230257 -0.25082911110556805 0.5787445229721775
Ni 5.425310042552731 7.256290769781362 1.679147687245395 -0.33325456469133574 -0.0632797338952523 0.6878431149737573
Ni 6.653015055035464 8.566366833297163 10.14434996637372 0.22159438261016676 1.0340472978472255 -0.7424006385046633
Ni 7.33885648568858 4.063990768355995 9.290849241469 1.2362414215539097 -0.9760200706001642 -0.8097200896869282
Ni 2.5663319242071583 8.416474880201877 7.665305771735297 2.0628102073670602 0.013603963936679795 -1.1576674805037481
Ni 6.938226904932542 7.047749071031539 11.914357020140704 0.6173429520706658 0.3525455517104638 0.4092584310214758
P 6.906719004588022 8.709723608474564 1.1786976669277445 -1.0271744819867923 0.6948930798420032 0.16041986798337535
Ni 2.9383550382191 7.518328229898711 12.167846838331695 -0.24789779639138598 0.022915728255908922 1.2705062562740508
P 7.399184057163169 3.0836862714057345 12.229279364710983 -1.441175569899576 -2.2085542185058156 0.5588804370583988
Ni 7.009464979115427 5.808651528533091 0.396497123570517 -0.2487141216450942 0.7325427718739771 -0.946475524173828
P 2.148562564770033 4.162889794179965 7.521140673842378 0.8712504449912414 -0.3744513506446196 -0.1274490694843095
P 1.4624615809513843 0.3290874585792421 4.858626689269025 1.2726829522103953 1.99258489539191 0.37148686869965697
P 7.922081718397057 7.258237418522859 5.676011518165428 0.0060698603431637395 0.7618523194713718 0.6535615680830681
Ni 7.9703956862098355 1.5111834180242862 5.732830487027367 -0.04682313100112581 2.6050419801251845 -0.006872815860433324
