# total energy = -340856.9731881707 ev
CRYSTAL
PRIMVEC
9.48456817821694 0.00000000000000 0.00000000000000

0.00000000000000 9.48456817821694 0.00000000000000

0.00000000000000 0.00000000000000 13.88162424366281

PRIMCOORD
 96 1
Ni 1.2483588389940694 0.27657948718968284 12.434423234845012 0.03637828151871799 -0.19489990403811597 -0.20517994580788532
Ni 9.21679966761578 2.2538273763029912 12.42853711194971 -1.2871070980555253 -2.6209072292922153 0.40734784426232423
Ni -0.10746584608043004 0.5955217973118001 2.1545533515965105 1.5928925107923146 -0.015583199150237679 2.5881020098367364
Ni 8.385429860352255 7.523055000325687 9.167272202022836 0.12125476774813956 -0.6174463104177496 -0.11229318767947756
Ni 7.58821398242483 9.266005606353822 10.669846865340276 1.5399360131999413 -1.424366211651721 -0.32050703521768026
Ni 8.022493381603226 4.217104496765348 6.371110588788769 -0.31504626921342516 -0.7513311082250738 -0.3101398330507433
Ni 3.6605500470451537 4.014049380642995 11.413609614983223 -0.8384375122262786 -1.109960147125456 0.27339774043470333
Ni 4.662376510245477 0.2354885448248606 2.2325952223980217 1.6048530255883007 -1.8102504867236309 -0.29574114112691
Ni 1.841950526719672 0.635247910342697 7.931626477964094 1.3705951885778525 -1.759830382399866 1.6193172806427465
Ni 7.751927110519928 4.435164199449686 12.639010108697935 -0.048131051179271946 -0.3135154343911955 0.09241470358799568
Ni 7.612579837594073 2.393098772684916 7.939497720939942 0.08141038205769205 0.9994736736374141 -0.5332820197640041
Ni 1.1075224888936064 8.253490035027482 0.6172405095547154 -0.4340045276179042 0.3384065412059204 0.1559867719126862
Ni 0.40358733715906125 1.872652073306998 6.634930486659969 -2.258164168223459 -0.2531258775595447 0.26280479541020546
Ni 2.2379691786218023 3.6259313738774868 9.487978641791305 0.3559898015053224 0.23720663522612695 -0.6127872143791834
Ni 0.2792256816592114 5.726203594403894 6.768776710150961 0.29410180575127415 1.9791966470104623 -0.4046756967467999
Ni 4.708101612530771 6.8370077438224355 5.056117917372934 -1.3669272528079621 -0.11695074105614699 1.2470865917985297
Ni 3.383410970343993 1.4705158750505811 10.082293053597835 -1.1585730230371531 0.8981387847416531 1.3943802068125921
Ni 0.2938651123535386 5.499323243487793 9.056981851594644 -0.05112767191375065 -0.6263145594416568 0.8450987262965381
Ni 0.017260965287078763 6.50549363882806 12.98084532058027 0.8249880715895921 -2.658474903133344 1.7149903432670401
Ni 4.3817376279555855 9.498889688808315 8.701931791130251 0.30724811332524504 -0.021805011690233415 -0.41603045963798674
Ni 4.196418653976668 2.036194479178254 0.7524231086756589 0.22963447930582384 -0.8392888044829804 -1.8977399850958672
Ni 5.630940593500866 7.033935829022511 0.2499012943441995 -0.5101744872122633 -0.4008097860334903 0.13247891859873315
Ni 7.110808252590713 8.111202546024375 1.5358076411016006 1.6410837257855606 0.6614407137208287 0.25147471510936686
Ni 6.931075689158579 1.0449148555840801 1.8901359259418684 0.20074839239909298 -0.3536806937561715 -0.9772346597335556
P 1.2539926723808077 7.741968314129229 8.759596067602795 -1.599097611161762 -0.755766261178292 -1.3465481749309778
P 1.7208136243368106 0.8784293882651727 0.8220863121137955 -0.65427736320317 0.26945778195034886 -2.0458008172932574
P 3.5873196975855484 3.280911244063725 2.2063590104209254 0.12467484917328206 1.2345876880005706 1.792369749788468
P 8.082701419210995 5.75525482616076 11.033045118165859 0.5825286726049581 0.8259303808982034 -2.0318281571632495
P 3.7091963962717194 7.6269679272366355 1.1445104071454608 -0.02354513430979171 0.7397837697071067 0.4790235155307557
P 6.368640807283876 1.277590277542768 9.899499820074958 -0.8341283433279635 1.7243933817484949 0.35273221379997316
P 5.966571001003398 5.008857263529874 13.504751990361358 -0.8095354844799477 -0.6747783113699992 0.3975069469125025
P 8.575680809686565 2.771248498491735 2.1589257374404265 -0.09699640942140714 -0.03347576315994234 -0.49198341812553337
Ni 4.021570643059971 2.931755842605826 4.380346241831285 1.072191927237747 0.8430467288635158 -0.16560809705253413
Ni 0.06809255897880354 4.32611063668754 0.2895344586087833 -0.31788425288285255 -0.9310357925799901 0.6288689504323943
Ni 5.829063734267826 7.812021333311802 7.901850625212703 0.24396503699588307 -2.9981587683897915 -1.2732403673757622
Ni 6.12135915061883 9.020269934271331 5.6455591581456135 -0.11285368816863792 -0.5281974061522452 2.514860536743082
Ni 1.5959113484614655 5.927854994463557 1.4424813889823647 -0.1585167374233915 1.4594237174764866 0.8191917766227892
Ni 3.8947050616104595 0.48281003667546957 4.558808821609406 0.947717367000729 -0.754780500226255 2.187033056604588
Ni 2.812335647029361 7.328792078731124 13.038162461864339 -1.6347495560374166 2.857131446000415 -0.9726210722209442
Ni 5.6020600839678405 3.000566383381559 8.627373602151886 -2.0633809922688657 0.10718466280831863 1.1624610452376496
Ni 4.4965198697843825 8.925509615471835 11.373117148858642 0.35376039795417136 -1.0641029795820252 -1.3672643244324068
Ni 2.1014198532533355 2.587949737494931 12.53289960738344 0.7008073884439092 -0.7118217372765417 0.09601090557968626
Ni 2.606767120389356 0.7501629361233698 2.7461599192415673 -2.331900064455029 0.6256581568045806 -0.549663289335505
Ni 6.3173292944518 5.140654820334779 2.429506235375712 0.762292492332584 -0.6125306182836869 -0.27638253409464014
Ni 3.483643884874379 6.072665378552308 10.350541296264097 -0.9678110524268105 0.44842867346303417 -0.528289194535103
Ni 5.304396402133849 1.6883289789671503 6.3081434903523785 0.4639985028768332 0.7177100777365187 0.3800275591808165
Ni 5.407047881501976 7.240282090237789 2.9444177408740004 -0.6964367701800394 0.7305038870670774 -1.1232931167889366
Ni 7.131750178715155 6.706481119128343 4.601661048250183 -0.5920124437256772 0.4471264097118428 -1.1622905810980564
Ni 5.553413734741274 5.006998288203611 10.514969560785726 0.8482210739756038 1.1087103338787552 -0.9442211809220126
Ni 9.591079689682214 6.773736190753529 4.495480361132554 0.07391561634254366 -0.11118838465107302 0.16790229240334953
Ni 5.804071897611166 3.1793220363106065 11.915875345978922 -0.27429736943083727 -0.9076001872648692 0.6493043354686108
Ni 2.646820451015947 5.935423679720488 7.5910830642421505 -0.7004492337735421 -0.6709833631039412 0.6485959965476766
Ni 2.342716747515971 3.9517737072131593 0.6557820000435188 1.1618792045922506 -0.2811719850634835 -1.748883396470059
Ni 2.7201171924514904 8.393008030177176 10.047116687832288 -0.31614695847677166 0.4055305885479274 0.23862202751641484
Ni 6.965229618494679 5.0572759831246525 8.459017778025126 0.19131681467254794 1.6817925163588325 -1.5961166741565673
Ni 4.935000932582853 4.29288619501457 6.544325357097391 0.061212824063894576 0.053771794404817067 -0.1302723978657176
P 1.7914167484628691 5.309271470081296 12.453371504777715 1.6519396946634584 -0.4270229540937484 0.4819090646086669
P 0.8960868084942812 1.5615961814695147 10.199412292979646 1.9978147763322818 -1.207223694165321 2.2357222942801758
P 0.9344585252160431 3.757681507842436 7.133322720088086 1.239141111699208 1.4364714795556874 1.2387405338266797
P 2.0591755874207904 2.109225652710045 4.441106281296137 -0.9703011658385161 -0.4648230556606575 0.40284969928165454
P 4.00744812132116 4.710510692800521 8.532145694150426 1.084174810631236 -1.3312179723318105 1.485391859405474
P 8.167787478659525 6.310405559818266 2.5723760768534762 -0.03488164236853348 -0.34995259417230695 0.3393797037524671
P 7.643565921221134 6.376617328964426 6.560997330712221 -0.09502360196575248 0.5574077091676143 2.3852959635776663
P 5.0877309309442085 7.4339759377528845 9.837074290470861 -0.04012952103103412 0.07678933834591291 0.5935761886683713
Ni 0.030762247822468964 2.919425904217342 8.996041605337961 -0.1084460460192455 1.2882376121155426 -0.663540790782967
Ni 8.556190022464769 9.273337177410975 4.308578412755915 -0.30975751001066004 -1.168256568873504 0.6013270362583837
Ni 9.141226629862363 0.37375362854292504 8.768799892381397 -0.04693625954022239 0.3220517539969808 0.6834411292513196
Ni 9.303659341278655 2.078239569082985 4.299735950017773 1.0214000413968602 0.14018348633184244 -0.35420905545581577
Ni 8.79337061421925 8.452561632593556 6.8656985619956385 -0.22042890154715586 -0.4383273233629741 -0.7889262928700284
Ni 6.786568811245544 0.24843687704636724 8.12701047549521 0.9010431028726417 -0.07174431972283773 -0.5722823122866014
Ni 6.310832365377868 7.429793243268792 11.833029541489898 0.5375454230260484 -0.5457657540533117 -0.21637658585465316
Ni 2.826135693456472 2.2509535522016755 6.561954323622527 0.11557288687201386 0.8700219719007791 -0.4286502052845263
Ni 0.9648935554428177 6.880456549789855 10.993788491250523 0.5730574998897292 0.2528569401688742 -1.2759706218227316
Ni 4.0447509272303215 5.569101210198623 2.08077194873662 -1.291747167930698 -0.6405458725496904 -0.3292544423930071
Ni 1.9063697125155066 7.661501239292383 6.395069555991193 0.039270001244216236 0.5816843223267918 0.11801363510302257
Ni 1.323239503284133 0.15407301318890035 5.5256912909599665 0.3235190825711267 0.2341349382793387 -1.955723246478871
Ni 6.877042105313044 1.6386772655335236 4.040357675336824 -0.46780399266585243 0.8594670792030681 2.067008304608808
Ni 4.831979555063073 9.422529431911634 -0.3333711834070411 0.1146956264733831 -2.0954537044336945 3.3797770690964954
Ni 6.571022519078857 0.8775055913428355 12.331240619669384 0.06566160386386756 0.10229082505112708 0.17818799060007376
Ni 7.519052512633426 3.6395986363527215 10.07238168004709 0.3677595404467408 -0.7243090711102752 1.8980420897173185
Ni 0.3247041851767358 4.031918306738307 11.613519648359713 1.076372798088314 3.050597702915798 -3.019522835887864
Ni 1.226307218414665 3.717988590799508 2.663966653030333 -0.5905728830656732 -0.35997603984658005 0.775911111557283
Ni 2.742339535254735 7.902342874291444 3.6007128560458397 -0.16130766990496737 -0.7140686243291896 -0.27263515123706594
Ni 7.2848121369562 2.393980837508092 0.017281831336659274 -0.13557272703270845 1.889155842971282 0.8923309198106244
Ni 8.170756148440754 4.14817065660573 3.88643831214938 0.23867524935185347 1.004562143903915 -1.006701301734105
Ni 1.3351046978410515 4.475871965267667 4.998467867752377 -0.0727961580261198 -0.9358494119185496 0.08985079951556138
Ni 8.715796332619702 0.6519900697606604 0.15890540058038702 -0.5752174836555255 -2.1461982819764134 -3.0925208255121452
Ni 3.8792167620809255 5.541216580304666 13.215374975581227 1.55733286852015 -2.5998933460447096 0.45575066104574413
P 6.301328828250743 3.7553293349806323 4.876586426782211 -0.7741311368387248 -0.5751529489661772 -0.008500067051211167
P 2.7258174178141665 5.650839217146282 3.872015129605251 0.47190875886284533 0.860922323592356 0.09340432119477461
P 7.71797235711164 1.1318978286308405 6.272967124586833 0.44345178907373306 -1.1008970084819234 -1.446469985529296
P 3.853238530353188 8.89124187131984 6.694857781055199 0.30043186173436 0.18291727775494304 -0.9018483723827565
P 8.288099223627158 8.009385708639469 12.818458135090335 -2.2956295121587686 4.0091890365165535 0.24895451979067446
P 6.38694602350678 8.944962464421668 3.6903884979452855 0.21700007837126498 0.6756504295623074 -3.292297855136904
P 4.299525392608369 1.314855145179964 12.174878031767422 -1.2954541844686398 4.133311355620475 -0.4412573525255755
P 0.7072452659634536 7.909038979293189 2.7860833112866796 -0.18951524268743491 0.8988728346942003 -0.23764989341113266
