# total energy = -340897.48738099413 ev
CRYSTAL
PRIMVEC
8.99207240345606 0.00000000000000 0.00000000000000

0.00000000000000 8.99207240345606 0.00000000000000

0.00000000000000 0.00000000000000 13.16080689506903

PRIMCOORD
 96 1
Ni 6.387140883111793 1.905519030731884 11.267018919528423 -0.20111991680589883 0.6511491019868334 1.1597832412951703
Ni 4.844793667968525 0.4151423965873283 5.894146023857714 -1.7892977957313636 -1.1157371588185494 0.7953363101614302
Ni 2.6583173385819334 1.409705156815356 4.850072913609114 0.876648218968045 -0.069373505497816 -0.30512232523149385
Ni 3.6327882124884994 4.287536964104562 4.844295507163742 -1.307333452404729 0.6659848814480852 0.04796161548094321
Ni 4.991148636536424 4.614389799719859 2.4368551870169686 -0.11869806276455688 0.5959346615982188 0.9142871123667415
Ni 7.217145123631047 6.127503787853159 2.504567289763958 0.14384293746130067 -0.22848236797925164 0.169636758595953
Ni 4.934228818950113 4.47979646170534 11.369304641017532 -0.5168662974101421 0.09909751492480998 -0.08919671087133026
Ni 5.547227378930591 7.667486087984545 12.437554736028268 -0.6970078121921609 0.8218639241383137 -0.1522689567414668
Ni 1.7857805961379942 6.651444863888167 0.21409584594621195 0.18406501820614105 -0.49395031204391704 0.6583998700119758
Ni 2.706083226578535 1.6932521722891565 0.3353224685038512 0.3619545037291895 -1.0967927565055628 1.216233610973415
Ni 0.5528451931992169 -0.13756162107695888 4.418253819755502 -0.1344499262821749 -0.2060276385201613 1.10349330845419
Ni 8.626823304229537 2.217193248324165 1.3922425524310564 0.09501357466342346 0.7561560404175429 -0.023909716738062047
Ni 6.875095685848156 0.7357214633669273 4.876894466831301 0.759825261739014 -0.3532184094077723 -1.2109615639411984
Ni 0.7348852006440953 7.3737690387524335 2.4237339551335646 -0.0927854566638531 -0.7924247929415902 0.4179965822254221
Ni 7.677449304080222 3.930866416780543 3.8257409988627216 -0.4767555454321854 -0.5707905582324234 -0.5682099419894407
Ni 7.580568717243742 3.8135018892708215 12.66392026461216 0.13392593545790482 -0.1674502924675955 -0.4164001842725797
Ni 8.077614505063798 8.818156618384599 6.759864077885272 -0.7181191402494794 0.18982248951520855 0.36781456205439234
Ni 6.699759268294367 0.7141162112793081 0.4323154562439377 -0.10035735547384006 0.4781495975662345 -1.1626646766080233
Ni 1.92852075164591 6.29609615119056 9.237530684190903 -0.29134044095605305 0.5889173497401212 -0.781169531742745
Ni 0.15781896152852956 5.05458770653191 1.3599852915104602 -0.4692389253401661 -0.9923794857947941 -0.4380614712960971
Ni 6.3273076341040015 2.025518235422141 7.008498473491676 0.8130447831847868 0.5342983768436605 -0.07656822347404232
Ni 3.2534666350697066 4.396098252843825 0.39684173106573895 -0.0011788507994495827 -0.19110598421332248 0.09057842171020529
Ni 5.924372874855564 5.642165678152753 4.716832882474016 -0.23446738191809297 -0.44147923872839456 -0.08972455835034225
Ni 5.249949469072226 2.8283933938469406 9.28484427095139 0.09460091260603706 -0.02858295384401529 -0.27060526529123075
P 0.08482221789757899 5.585992202566388 12.292641196648217 -0.35154590680135583 -0.6680538481619721 0.7769832615755393
P 3.831486033847855 6.089997854337755 12.356575729826801 -0.037939198247934666 1.0743477972384854 0.5737136454164894
P 2.4047409000457596 8.399863399667375 1.5470132014537787 0.06504042534010089 0.7224823023141815 -1.4604375034529817
P 6.300691100129992 7.694857956030791 5.716185719610136 0.5558251951718427 -0.42017610637524405 0.20352801202675913
P 4.650735755910044 1.0531335222865108 12.430460890199855 0.13867604854838053 0.10423997835769791 1.3194024677541212
P 3.9188530082030844 6.065494457351546 8.15668629273287 0.1779293376220484 0.4077178260072333 0.39422159129301143
P 4.799680441297037 1.0321100572759585 3.7986299009128435 -1.0125932417385077 -0.880553210449406 -0.4582034934616108
P 0.2799951469198362 5.4739419897791795 3.569842807261653 -0.044384696762962264 0.4256057620312477 0.4041972144484845
Ni 1.5901670555735998 1.119602920643227 2.6977017159984085 0.05469250644687355 0.2924591279415286 -1.5013625238021175
Ni 1.8943868452387003 6.361414564294346 4.875275893819368 -0.4636501183984789 0.8993451463449287 -0.5391194523813876
Ni 5.777307532576871 5.438405320094962 9.163382955307023 0.31340307718304733 0.6784763290468767 -0.14143664201265319
Ni 8.570631844498596 2.384778499565252 10.151272698689741 0.45035957193715986 0.8905879689775887 0.18558145485066746
Ni 2.3573886473744303 5.180746480739802 6.910673719064903 -0.648483125118896 -0.6037963237344827 0.48053660974117235
Ni 0.4612024884707979 9.266690176208105 9.279500282390327 0.2728020158322334 -0.355657100756252 -0.2502344149443626
Ni 1.5093373177721223 1.1400688771718914 11.457219232575131 -0.875066476303222 0.19082753374095524 -1.0040705489794772
Ni 3.9930286125110594 6.698734172053476 1.576440657225179 0.2863802687373003 1.1001241348716408 -0.5962851029591021
Ni 5.8527330349329505 7.712149711041609 7.89587842966227 -0.8200099016487103 0.4466990923664372 0.2597606092672429
Ni 5.318523012344456 2.8526540048813587 4.716608979874032 0.832733519862966 -0.009107875838539153 0.4413823081392141
Ni 0.9142869340795229 7.597986361266599 7.33312217438665 0.65766042074279 -0.9017131323564729 -0.2546271446954195
Ni 5.090879710288364 4.4897596778010165 6.987611687979911 -0.5752460229006158 0.483260950650871 0.23753753620298448
Ni 8.1787843103819 7.2160480908118485 9.003044415123249 -0.40480939411118677 -0.4022719724013136 0.26046457731280304
Ni 4.6140840692620495 0.3804168118235341 10.378046467355533 -0.13378838143877606 -0.5334499128004362 -0.5569091722646409
Ni 8.17084431055114 6.890139422786845 4.875631080674764 0.2769139811180779 0.30381183395018646 -0.12495124276312028
Ni 7.08029477547211 5.837689297994262 6.932902121762115 0.998949682813144 1.1366209442460942 -0.1410193519695765
Ni 2.291980313547759 5.171727432234419 2.6352805485859827 0.46493849819259925 0.5316254579971877 -0.09260059434655665
Ni 2.0264354267955693 5.092956878987011 11.384874414185099 1.2467700889993754 0.23492143873637605 0.07092696602786494
Ni 1.1855327946626322 3.306753655451457 3.7403936439434933 -0.5726198981316782 -0.19760727566695 0.918626877392676
Ni 3.774188549225426 2.712647439349152 2.6851334965607485 -0.9424975133626865 -0.7603595369759293 -0.00971722728776391
Ni 1.100009195126549 3.390442872240683 8.102476685734317 -0.327316601940346 -0.28818981114221337 -0.22928326661399223
Ni 3.6870283925328327 2.760835954743314 7.184576737009269 -0.6095350259904728 -1.0297754099447491 -0.5132397564011484
Ni 4.007829563497959 6.736473899448382 6.077371186430219 0.8856468229222295 1.1114511298486858 -0.621483970822233
Ni 0.7395242107377411 7.326776468972644 11.19187127220606 -0.35616026564491565 0.4368944475711895 -0.1828563426100206
P 0.17899349335352888 5.547173426496861 7.8187956883834175 0.5281251581534131 0.38197002761916793 0.4656694628213529
P 8.377437171379812 1.7171261242151683 7.9311624221151815 0.612936338362538 -0.037970822816818475 0.2655319645333814
P 1.6934679820240808 3.2583493303223716 10.25137334661274 -0.914486115751425 -0.5644329914455117 0.49764730127953005
P 3.9408116487316422 6.181015610042122 3.7932472464409375 -0.16287372884050658 -0.7524107144424977 -0.09777416812769611
P 6.784878224577468 3.966870674223764 10.453181525776694 1.194877256784826 -0.5067857732456885 -0.7237256878029794
P 6.330400906971252 7.792421940361199 10.124266807985638 -0.6994477890922212 -1.0440656013151761 0.1737214701882879
P 2.25068871759889 8.43086806491818 5.829579347997249 0.7292928974781118 -0.45725501350541253 -0.28401253983607216
P 6.817411542117322 3.943886937454315 1.6237146788675982 1.2320605507033429 -0.2894419383817596 -0.05988279239856138
Ni 5.2291777820857535 3.0115439222194507 0.36392175441747887 -0.07434679034269132 -1.0851243190286988 0.05994706997759353
Ni 1.5648273958645595 1.0806852317785263 7.087423690382447 -0.23222435152018714 0.266015074817387 0.3105213847598781
Ni 6.8864256969316875 0.7469237870239617 9.226488419420605 -0.6431257174617246 -0.33412693999396004 -0.9699633228831231
Ni 2.8552527137727397 1.6335448122934046 9.2325688587021 -0.5832670934328793 -0.7830294677696192 -0.130859123607123
Ni 6.442019500288611 1.8227380132437982 2.6560612276447446 0.2298496806404235 1.4133060971828177 -0.748814255340491
Ni 4.092444963732901 6.927249705121554 10.288078985694465 0.4335908371192533 -0.004781994769675635 -0.09922427031066136
Ni 7.906675210859093 7.13152261129979 0.2278042601500558 0.23911747909559466 0.14938649298734918 0.15778500146368957
Ni 7.668466223863994 3.9577347287786315 8.261841384489243 -0.6207586626204341 -1.1946098620560521 -0.11570504157450397
Ni 2.9701624055476965 8.336577194900793 12.165783738423508 1.2344172238609774 0.131878823120889 0.9635885297050307
Ni -0.06171888656669278 4.971303132995668 10.146652571947902 -0.11110328113643446 -0.6018165743002927 -0.39766506975692156
Ni 8.761920198292215 2.1974196813617164 5.819919164737695 -0.10485550045450975 0.3705057357333103 -0.4587544808690745
Ni 3.433973494189393 2.7088258086265324 11.471353871005451 0.3422354280337074 0.0663948824854663 -0.2688867399382272
Ni 1.0101873850365546 3.2452748572148677 12.659485374559464 -0.23612600056743852 0.40102087360303196 0.07278381673094561
Ni 3.37215299720584 8.378489243837569 7.896444930216447 -0.763398323802253 -0.5133631693528901 0.7277504926916563
Ni 5.523371411149157 7.71978398041456 3.5074998708781373 0.5984227181273952 0.8927602940385593 0.5820864428612168
Ni 3.189200294423677 8.285340367000824 3.62147258872063 -0.5827114780397255 0.19508425213478015 0.4809991511998878
Ni 3.312202851258298 4.204324327146628 9.223487764897925 0.5574030811819238 0.4605267422781488 -0.04092656301103274
Ni 6.9948161362974695 5.983216995911618 11.340798872655704 0.4930679094389637 0.5430036179271422 -0.3517935040357877
Ni 0.510096881539608 8.927293399750328 0.2399489529829266 0.511253579209055 0.3979468626633985 0.2628161082641151
Ni 4.562883209651235 0.43825292157604534 1.6320719108525457 -0.7681448373483029 -0.7205539749432172 -0.3113654779277283
Ni 5.854801211559309 5.434844459468709 0.27066677112772886 -0.2299558672009846 0.7625370042432222 0.5727199140446524
Ni 7.818067330528048 8.763448850581263 11.331336514986496 0.4504593307398178 -0.11913849273608514 0.5554580416404111
Ni 0.16165408035958195 4.623831475622802 5.7415073951746 -0.25571934931833384 0.19517398363510904 0.4314637634739215
Ni 7.987954552274997 8.896801282619966 2.3563770392419725 -0.04747439143187953 -0.3656250106022413 0.3896985066116772
P 8.486528992384098 1.6648282317851548 3.615471279675274 0.20293820096156018 0.06727368554599382 0.11293390658727002
P 1.8271351365928832 3.28212436945321 1.6599725127493556 -0.2083313469526735 -1.0462762358132496 -0.8914107219892002
P 4.773999082841033 0.9985426514229253 8.096251474088977 0.21939274697315767 0.24019348576859276 0.5604020159092478
P 8.363373570320572 1.652239330581231 12.298892485303194 0.6142823108674712 -0.11907190116420782 0.9007816216811391
P 6.2320905806408975 7.844504023056288 1.4717333706687739 -0.19820582848289733 -0.671816657638514 -0.602369361479969
P 1.9764484969437044 3.1178661849588734 5.914755853542996 -0.8841432417935096 0.783477096829999 0.3276048226047261
P 6.814381213756091 3.893198625963946 5.936747764739021 1.5665003939520312 0.14649400193090253 -0.5190681901574674
P 2.306853201112966 8.440318732893411 10.120542291643737 0.5134960953863286 0.2923817377363738 -1.0053933815559586
