# total energy = -381169.74507064733 ev
CRYSTAL
PRIMVEC
9.26429393217724 0.00000000000000 0.00000000000000

0.00000000000000 9.26429393217724 0.00000000000000

0.00000000000000 0.00000000000000 13.55923061891972

PRIMCOORD
 96 1
Ni 9.221474179058644 4.101339897974415 11.94394624180492 -0.4729716529097209 0.8923304055899923 -1.3457920134912436
Ni 0.4268124978261093 6.02344924266577 9.845289104078672 0.3347229217067461 -0.32928683829283933 1.0169923992474679
Ni 8.097270661721101 6.215553637756843 12.111687397206055 1.0406095244457756 -1.7000236946548786 -0.11884204454158888
Ni 1.8889617016726512 0.881643925653831 9.856977863496418 -0.3253247683212978 0.05161926683818852 0.0032627299116718004
Ni 8.611800272010598 0.355696999753309 11.078976192032885 -0.4070048591006087 -1.2858431437414373 -0.47001771248771956
Ni 7.614684336263492 2.5609565127416096 9.682063365448727 0.18146126203470683 -0.8330019430330041 -0.06503682579567507
Ni 8.860574351938284 1.6533799760374832 3.776218773296269 0.03444609749301165 -0.6221755975726188 0.09666345156202062
Ni 1.9077218965057636 4.7667292676033695 0.8717422484994456 -0.001746036156829251 -2.094558960533567 -3.017911011316054
Ni 1.467612357867819 0.49124566082082377 12.601731479128185 -0.4990634649007663 2.568192415397003 0.14477187703347325
Ni 7.616889238174743 0.22632854904291483 5.642931347111537 0.9591412925669546 0.13322813805993183 -0.3328928104765428
Ni 6.071771798838371 4.132699532300384 5.349522826351032 -0.5759229943629823 -0.6959310341882144 2.513885574424322
Ni 1.1789925505439753 5.962490189825337 2.65939889807329 0.4811387621015455 -0.9411695385798823 2.4416841125594075
Ni 0.3796451990834796 0.7075808162012802 1.350137407466931 -1.0044973521042508 -0.686456776149192 0.6142627704834452
Ni 7.556532364427716 1.330482281858076 13.018406986738793 1.4308153097111744 -0.9601154835547657 1.1969331108725902
Ni 5.594336420702841 7.401809394596699 8.845025161317102 -0.5163428208065043 1.2043833965030482 1.6462084486066357
Ni 4.098921917307036 7.5175204234685875 6.304716906473784 -1.1861000248128282 0.689789954287483 0.1661367158624945
Ni 3.2825338239324533 7.91158642219514 3.958061110206284 -0.83573708257598 -2.4433782124323793 -1.9308737915353584
Ni 1.569825310753611 7.929336809010074 11.228032193380239 -1.885849147195552 0.3638141826457476 0.3641530540424051
Ni 1.5744018718635164 9.017687509555447 6.774422157908696 0.0442294021320206 -0.1780990304306933 1.5663453564314056
Ni 6.290464716976865 1.4203644597696101 1.5876507383478788 1.0458625453145989 0.6414550146275211 2.1765090171448125
Ni 6.015954429026271 0.8369696483579128 8.964793950849188 -0.7104654803589635 0.06415956539704433 -0.19113452345841278
Ni 5.080029153463219 7.765432924078014 1.965993377730847 0.933780702314979 -0.5309829393171822 0.4931021051110088
Ni 0.3877773961326184 3.69585102506059 2.2554423393448455 -0.9808110642309043 -0.6253581090656585 0.6069886054195354
Ni 4.956545382139488 6.081740178907719 10.437271915791749 -0.4852167888256611 -1.2885831683804194 1.4021266835272304
P 4.853498642816669 6.495168551560791 13.414160013356264 -0.4128363781807213 0.4871831685234126 -0.41459629829462147
Ni 1.7284578125449117 5.679882909141834 11.929410564919412 0.41997376055645086 0.49135761161607633 0.5042347246890607
P 2.086680258773039 6.747268512942843 7.50123750078282 0.9009636557849581 0.06746728961403865 -0.019934534140397926
Ni 2.7124091868807314 1.9579899543647603 6.934421143027347 -2.166122017483534 -0.91326047087444 0.1316584795799668
P 0.9125097731232042 1.4764134369253288 5.614117540706624 -0.5936859747733583 0.9084622781548484 -0.624589349220434
P 9.145479177470484 5.617117319021174 0.6469867765343889 -0.3032634176458841 -0.36311098593113594 -0.2659770224906
P 7.744653113208546 7.631360065004037 10.584402796898948 0.7610362513279796 -0.5351291002750719 -2.407139541815319
Ni 5.54682912237978 7.888833316758042 4.401610481111653 0.9096496135947302 -0.9538347927523767 0.8192856218881761
Ni 0.6506832297385428 8.03106801862114 8.735628675061633 0.05841057872840908 0.938067502615791 1.0907241817139797
Ni 0.3110060467286501 5.542993704769454 6.950271423195235 0.49770643665223957 -2.2172707724432072 0.2500881191744854
Ni 0.16661183799365104 2.6097052264264673 13.490647875371643 1.8326663925249858 -0.8139282142310047 1.197750721677879
Ni 3.804428547749023 5.06828202899488 5.6987681719404994 0.6655976733119956 0.2762251825811694 -1.4642874733266908
Ni 4.423616884472924 0.45584586799277155 3.2292122548551885 1.2224217420619978 1.1896957125838865 0.5101436339743279
Ni 4.99747503190378 0.6971010471172224 5.905763066367503 0.2428080405733044 -0.2791672959286289 0.016258627950707483
Ni 0.7349151148951558 8.718108042731567 4.094114675282888 -0.6246929646778338 0.1090055180671413 -0.016376127365178246
Ni 7.363223611149828 2.3360379892066456 6.985390507922821 -2.892491570667264 -0.0030616696444592433 1.1191502982651564
Ni 4.297807775419263 8.081437983711329 11.866699634131846 -0.5001615830609515 -0.5136171943452251 -0.306742120223104
Ni 3.791412215037654 0.09419378022033927 8.101884280005985 0.07485046945198723 -0.382781981997502 0.12192325457007389
Ni 4.938266930581102 0.12563957247813354 0.37485741207619444 -0.36135749357513897 -0.005090270038713814 -1.4460606659060191
Ni 0.29779609027801557 2.4901217227692753 7.538213149976854 0.6095990464591888 -0.2800214163988081 -0.8779833928397007
Ni 6.674895850208881 8.052922487564999 12.2917139325421 -0.4530173212749811 0.1406758525872287 1.9867127528818493
Ni 2.8527632371136464 5.021302795415268 9.602999103342933 1.0426098427052561 1.1122425154017297 0.8271879074543882
Ni 2.7767033854692746 7.403078602839729 9.539393241779624 2.370197674483647 -0.24574501171444132 -1.3383342716616176
Ni 3.671661954093056 2.653553128720355 4.702775068595258 2.0924478277278347 -0.40545088434992754 -0.27686487304769736
Ni 3.842727138089807 4.0055656292412225 12.624117718532991 -0.1175544360784169 1.486199957129066 0.658962170273349
Ni 7.865403917877577 6.757051607137297 8.496674746503377 -0.8087749521648394 0.3535061158515202 0.015456443764386284
Ni 1.6845543244885564 6.686633710383475 5.234038772675891 0.2125379288348533 -0.19298494640359024 0.37720165969624714
Ni 8.574539282569225 7.103471343134616 2.2711842272759193 -0.6280333419049765 1.2795136019789837 -0.11413641153580342
Ni 0.8368992397254527 3.7448220817953217 9.384980625789055 -0.9541818916791502 -0.02275323453611565 -0.29478931873660197
Ni 2.7330129761690487 0.37614607533608874 1.441779801189967 0.14811919623915135 0.11379394059472016 -0.22578785186622405
Ni 7.318986608518662 8.892990115751154 3.2427714751799996 -0.14647446154687677 0.936380344721355 -0.6866035861397014
Ni 4.594135475138735 2.856033532805542 6.792781208822661 2.9097081916558665 1.535062487157724 1.1586393574987142
P 4.639178471325694 5.593363669859643 3.555433977630211 0.09920370148537108 1.5264431209198293 0.15790198665752808
Ni 4.817655090318244 4.6858056617430055 1.0609422875015384 0.620842223473176 -0.3056738268595897 1.1306968654521752
P 7.568927989458187 2.9739124064137012 2.6713174119759064 -0.4791973221044586 0.1269055382760137 0.5358119852747095
Ni 5.47856054177474 3.611036415827433 3.258418867314877 -0.3705800406146714 -0.7874234830722567 -1.6297168787095155
P 7.872342873892393 4.616351251538639 7.8693162291259835 -1.107207009860351 -1.621949576059271 0.6428194990752155
P 7.3947036812944775 8.850624500456426 0.9339260409729355 0.06437013874595365 -0.4084158805155224 0.5054421147336006
P 4.01299559282451 0.313607460412175 10.300323419939405 0.3879043908257319 0.11714228824166278 -0.999003418869215
Ni 8.378655055630297 3.434218105415194 5.38620109171586 1.0955776531515389 1.4310364245830451 -0.9748813290100308
Ni 3.7532711176905313 1.8621045141066301 11.906427704997444 0.3514806007810592 -1.5775854481215992 -0.34627848775482944
Ni 5.714642539272124 4.161252085621693 8.891248428527142 -0.5104485668092564 -1.0331510112852014 -0.9597488442439664
Ni 6.005634005794623 0.779587539332325 11.48291885432071 -1.3586369877747118 1.4630649137734997 -1.6099430385166984
Ni 3.7824999644552073 2.3759115094840357 2.114805728152716 1.0419156448517088 -0.5070320849285397 -1.7501226681937987
Ni 6.5434262576771784 1.9187741989432465 4.42719753400527 -0.4368617945610412 -0.3873400336818297 -0.11547261384872372
Ni 6.352174177610624 8.370539534309898 7.142433256907522 0.5812714031590893 1.968699089913248 -1.0411414856898458
Ni 2.4082346303594577 7.894530857411061 13.329184205411948 0.6063296316792977 -1.238709423478428 1.3318262953397708
Ni 6.9269402258284645 5.394616776153588 3.7705101154907563 0.713033755306772 0.6151354028963857 -1.4825649314796403
Ni 4.566592729835603 5.758082812641241 7.76834098588449 -1.5031939205839013 -0.6834742964821003 0.7638318117952458
Ni 3.6960085180542506 2.5432431831016538 9.089646984788393 0.3798342122230878 0.03948468835818361 0.8138441391576307
Ni 9.065935951378089 7.6670461245088015 6.626206428003989 -1.4528514635756073 1.4917913351739147 -0.15692419612529104
Ni 2.7710984877537026 0.39246049662058796 5.088616227335225 1.2678125114919714 1.2420099486065708 -0.7587310002335708
Ni 6.906725536877427 6.4574165545509485 0.7337126095670876 -0.4319340182421207 0.15585513143082835 -0.23928280102886532
Ni 6.137427848607392 4.750155446094017 12.455061959849477 0.3039758703318765 0.8621487398002894 -0.7898830003563427
Ni 7.990916569531407 7.141501268956802 4.7592224103820016 0.3341518796946245 0.18375108651014807 -0.552716474339532
Ni 3.1969965997872056 6.446864523975682 1.5007359137227871 0.8744782078999198 1.0381883165987926 0.6844950244371308
Ni 2.576427883295337 4.245492308642676 7.58087059052454 -0.4686506569368639 0.09491355875044945 -0.9098848695339878
Ni 8.248176742529283 0.47814594946575173 8.130548004852232 0.42264359407913016 -0.7017445555461979 0.1881870107943146
Ni 3.015972300014852 4.268690100179523 2.959926102147257 -0.6343351157532883 1.4789363335881174 0.7711777106373557
Ni 7.4474175127020885 4.859242504938412 10.187714076613258 0.5906718705373827 0.8943448649168597 0.48613801508834986
Ni 7.519206524930132 3.9579842165682027 0.7724141966857677 0.4147739615230663 0.31269036738673894 -0.30771656832123134
Ni 9.13448246079547 7.854888944477289 13.37718436416223 0.4140743643528804 0.7166983486425528 0.20936647308540718
Ni 5.731271946543944 2.60596245175359 13.324262086145364 -1.600802766778327 0.3875827458202551 -0.7459773001123282
Ni 6.251387925961523 6.320027078316353 6.365177540310751 0.8579305879538837 -1.1230462908854528 -0.8201315148282392
P 0.11646884810020862 5.244229495795112 4.5953453919018 -0.42220393543855034 0.5962596490378054 -0.4235943880281737
Ni 2.279924161994714 3.5136594242763985 11.1427451051661 -1.4836805331413223 -1.5237072100459048 0.13255708013483625
P 2.586961385283114 2.4980797510960127 0.3024402807322572 -0.7071330735516208 -0.14612633417883863 -0.8273439734162784
Ni 1.7916032387091065 3.862033926253859 5.2174566133021685 -1.5410220471752685 0.10483827406332913 0.30793665475183746
P 5.637165250684806 3.2527305909556032 10.870408220528022 0.040999068120181004 -0.33086523852355276 0.4713860535901559
P 1.569825310753611 7.992797221161591 2.224039162838277 0.3727089140322162 0.7403908071634862 -0.4627803141990159
P 0.2531181072645993 2.197240340322848 10.816347360809926 0.8579622125227675 1.0389123392490107 0.4687925818313668
Ni 1.8930101980391054 2.080019231570566 3.4655490204305535 -0.7930179464408988 -0.9426175838803185 -0.6810708292469303
