# total energy = -381169.1679250868 ev
CRYSTAL
PRIMVEC
9.21843663719740 0.00000000000000 0.00000000000000

0.00000000000000 9.21843663719740 0.00000000000000

0.00000000000000 0.00000000000000 13.49211383239060

PRIMCOORD
 96 1
Ni 2.3347995894865865 5.825093362543544 4.032051165593048 -0.4239132048201732 -0.055479521124543164 0.9714175388311462
Ni 9.077431625568256 8.736782729189624 13.039750847563583 0.0576796140996555 -0.47199617637032903 -0.03028065326141237
Ni 4.147937056894577 8.85840156635909 4.03178106539377 0.2928540493871021 0.1680223629209816 -2.057277450474289
Ni 2.6215667225622896 0.6437925824924271 5.57666847379733 0.7004842007765356 0.08671019700405067 3.858215915768375
Ni 5.602320617979205 6.64880678597094 7.033169509823051 -0.7947112749829216 1.7090431245446693 -0.8738611431412111
Ni 9.041341445357654 0.6604290954492782 4.583486994962627 -0.9878281189786857 0.914893892712805 0.21470408324823667
Ni 5.433826029501717 6.834023618867849 4.46487797741992 0.23408505887800976 0.5593733175344172 0.25148474241169594
Ni 2.681947483834177 5.561234045003816 12.689076901126452 -1.9703399679507811 -0.26867230993457597 -0.19705937358327996
Ni 6.092759894496293 2.3258300504457403 7.989881930693219 1.1656738957479924 -1.0848458685563318 0.95310999877121
Ni 4.764355491204276 8.640533030191184 6.220053601381633 1.4660522785365977 2.551569462128341 -0.0748214159862647
Ni 5.955027229738543 4.072143069233897 9.804489738776455 -0.46981639511019085 -1.284953284937316 0.2707345917802434
Ni 8.672557879757374 1.7048484899025163 6.971240051162817 -1.9584056784070405 0.06734567643450982 -1.484680435160746
Ni 6.97760999101608 3.874877739393117 11.952974579539037 0.643808345351046 -0.6968671728492386 -0.6994300484804082
Ni 6.891122616626333 6.08023203883698 10.940701718018214 0.5149073739115584 -1.1788860235628922 -0.5706105810111334
Ni 1.860123839958037 7.563579928458444 0.4479892967337423 -0.8771673246963088 -0.46470761312871584 -3.489382425531165
Ni 5.342489757336548 0.6775034841558109 1.277123161020356 -0.04719105586350582 -0.2746565525424689 -0.6123701814464227
Ni 7.890963494230932 6.7338653026512 1.353285886154452 2.5463573217997824 -0.22168977053745048 -0.002701972312195347
Ni 3.65098034553486 2.5622092077791327 1.2800094535935205 -0.479244116181994 -0.3740034644739236 -0.9849130022144198
Ni 0.06215991958111954 5.062332243471829 2.7664501287732617 -1.9698776836023817 -0.530336563982435 -0.5232616594135246
Ni 3.910801987740681 3.9169967772940715 8.20902076745704 0.09736690538694845 1.5205676359756586 0.38422925596698987
Ni 2.066709009439409 0.8454560285473774 12.744677902899182 2.063787740788981 -1.4800498783672704 -0.13100490515636792
Ni 3.1145041954617714 9.080565894092292 1.5041409957473972 0.15912146088692597 3.6634255407249294 -0.16501262956038035
Ni 6.136436848222431 5.88820278111871 0.28719763407591653 0.8833796241546077 -2.223134944533468 0.16974474492872701
Ni 4.061357498136476 3.0348661196407285 12.317395980828804 1.797904049343136 0.3892652757290006 0.39349576887058035
P 3.651054093029543 7.368628426263351 2.3364967037079842 0.013100284827383889 -3.0153046840414586 2.310874611243298
Ni 6.1841791325929805 3.1394861592857124 3.328882631443793 2.896417130973915 1.5556097151814565 0.112414029528058
P 7.740048464798556 3.3190613088393546 5.553191880708611 2.2935574601210886 -2.3525213402498064 1.0463394849510173
Ni 0.7453723816690953 3.8167462767090687 4.680428076723721 -0.02808184583788067 -0.554905768681367 -0.7628910451485312
P 6.83438313790443 8.724559081945879 4.897407955580692 0.15357867669182582 -1.5100757353053995 0.2331394071352888
P 3.05756191112949 3.1511935740666734 4.817305270543145 -0.4465101162840826 0.01945630895239875 -0.6672750610144186
P 0.9283058077618744 5.373500578850843 0.7617037643666944 -0.7751238397692973 1.6763078390951778 -0.45472941887008134
Ni 2.7644524935110297 6.2659374488861665 10.283918514337339 0.6443197377698259 -0.21978586864651825 -0.10238955541252044
Ni 4.490374330019276 1.9400845610683193 3.220905237103355 -1.9115306111220562 -1.131519875574103 1.6077758556620505
Ni 8.599842849999717 6.301778731302211 12.560780228313421 0.4997730893732812 0.19954408767834667 0.9621775082901171
Ni 2.1769983877381653 4.283862908032588 2.2572172250798386 0.7537371465634051 -0.6286550346493753 0.897156366223726
Ni 5.133461702093794 7.671435639432655 10.668902560832155 -0.974016152796258 1.0433382362308485 1.0891938611123824
Ni 4.219204792069074 7.309906983621836 0.2206755501842845 0.6697821437069885 0.6044642963357848 -1.0629637237712597
Ni 7.891433634509537 8.245255677125957 10.733205766977505 -0.1764650943716961 0.12593700371515731 -0.8703559582014301
Ni 0.7073011593825661 6.388173921323604 8.268736879433096 -1.1333116773672032 -0.6222195634366768 0.3107784950760067
Ni 1.3010348643277068 7.535445259236796 11.524249050260236 -2.32322850482296 -0.11027152926375848 -0.6093900157721763
Ni 1.6655134199258537 4.151956295354813 9.057998238875543 0.4137730310623777 2.0075618284167165 0.46221492861384916
Ni 0.17480184296027065 9.003730223069212 2.066668448317333 -0.012555982288139667 1.4169424083838242 -0.6578316562133316
Ni 4.699918617724813 0.4901756292235952 12.368126882421393 -0.41330277629417855 -0.07843715836198105 0.06684482553869134
Ni 1.3123090125774042 8.143447260715773 4.617231082998618 -0.022898501864728308 -0.39526545917649347 -0.08149857089612415
Ni 8.884213189498217 2.306388367159876 2.5784106105173525 1.3906616203104243 0.26473672232559564 0.5608337041300276
Ni 4.1699691209311895 4.934398777070111 0.8667386336692713 -0.3369914060259486 -1.057595774591127 0.9663848615032453
Ni 6.826777927515223 9.018028018600921 7.15216938908758 -0.5176368570275796 0.37836122722198706 0.22707237500560248
Ni 7.282463697162843 1.9647346611661856 1.0211317793196442 -1.277613042522161 -0.5287553355382443 -0.44868269845536923
Ni 5.803236448806804 7.640959487254814 2.102826844960516 0.23077116401342837 0.03522488464056514 0.47273125476414074
Ni 6.332807989690176 4.5871402614804975 7.4206895482912865 0.7550260405781577 -1.0988210997895012 0.158687715783617
Ni 1.30030660781771 7.026873317464472 2.399127685411393 -0.12015279293321242 -0.6311130092715648 1.9376509623581921
Ni 8.28798313185805 3.9450023884000247 0.6056033642144049 0.36388077421762494 1.8307149252255697 -0.1411507353411182
Ni 1.6340508950066246 3.5251025905474376 0.18544637197411 0.6328814140258971 -1.1617395936905928 -0.819641462565698
Ni 1.3819358659951995 2.671005199310554 6.5844759245150835 2.6030007813254397 -0.24108077346955256 -0.8777987876327206
Ni 1.8066661247495377 8.883512588298727 9.203213508812588 0.87173535504746 -1.0262671396811744 -1.5559796969263653
Ni 6.6484749222448665 7.755646059924057 12.682749366082632 -0.672730427702035 1.2643829169851322 0.25134795972351553
P 3.023306199849134 1.9190019960257534 7.814186821203598 -0.32892071320267224 -1.3165053487119842 -0.15960277139871867
Ni 2.1826124157709255 1.096145887224049 3.589766237573053 -1.1981122187823559 1.4520729335383702 -3.0665251727793312
P 5.8953839434134885 3.5762556965470864 0.18832160242307208 -0.8402020603258691 -0.27627943285787254 1.370772594695981
Ni 4.079987958980825 8.354595556430668 8.39469852219572 0.899147942732458 0.8252968610792626 0.8287215704900953
P 6.033761898749717 9.055722206820882 9.428721363585993 0.9484884408387988 1.1642482190450594 -1.2539210982218598
P 1.5966056045812194 7.876545859020362 6.832892516668146 -0.7140573114752798 0.7778198985442216 0.33335792303841943
P 8.949129421693122 6.357411997603865 10.104891861775403 -0.21049698714542456 -0.5149734512628035 1.5712718471987457
Ni 2.023363919439346 2.8374993869947596 11.462859791998556 -1.9671777681727154 0.1773138155252366 -1.4528712610699495
Ni 9.16570737670407 4.337735452898681 7.22181560122273 -2.118198711439694 -0.2417469462986417 -1.43327354144368
Ni 4.975153486319426 5.956004384043096 9.126268138391167 -0.5008897194762277 0.6677342600390243 0.17438275792137065
Ni 6.628627627738244 5.522009596269179 2.8920614709361403 0.004778652335565964 -0.6171606608565307 -1.0796946633726954
Ni 0.025790420734405777 6.0763787322397835 4.778664348860188 -0.020757287152009415 -0.17073641941803497 1.161412035147845
Ni 8.826625614587458 8.417041247553685 7.8961654581371485 2.401936657458141 0.27569553532994456 -0.22791106885681395
Ni 3.5932084018873915 2.156579550147749 9.844777073278214 0.04132354133913529 -0.7847150830021582 0.4692134714188693
Ni 0.14089182306124232 1.8390412749154716 13.154298221836612 -1.601088930560178 1.0021671613091774 -0.1778457767693066
Ni 3.2763246356704285 7.291497765261537 5.598876609977499 -1.1440432048520943 -1.7190899672577102 0.2573959656898083
Ni 1.791584762086819 5.26180077971627 6.4634240212109955 0.8761982759148201 -0.44043845616870597 -1.8745501772429651
Ni 5.826328633079488 1.7217735399323155 10.578194986059161 0.4375989298373818 -0.03434993823477955 -0.5600389761428741
Ni 7.910036440043379 6.486248870815452 6.681712918098595 0.7961073839994998 -0.36760913091180564 -1.9326599369015034
Ni 4.809193967971674 5.690153884146921 11.873600151011487 -0.16078393619101342 -1.0684427446079598 -0.33616685324212425
Ni 0.4751532645566231 0.4860042865555755 10.729900957372013 -0.07035798089827237 1.5047072719046344 1.6536934441297715
Ni 6.409754281955282 1.546881356291058 5.34490130041269 -0.12645610944342092 1.1792143534365884 1.0723706189074564
Ni 8.236922210226753 3.9728328492061054 9.191731945734094 -0.31508560709179284 0.5622614377154898 0.6716857884876045
Ni 4.189724231069457 4.71213304653172 3.557331167567688 1.633624184183722 -0.90856975026699 -0.23317180303512097
Ni 0.13850424792087304 4.488558297962702 11.45673414072143 0.5650266591654527 -0.8995117538297799 -0.7533743639073477
Ni 4.506230041376169 2.6803803495721583 6.465853079317124 -0.4628494768740545 -0.8302176954196475 -2.77242053881458
Ni 1.0106909777598672 2.088399991313111 8.777861927415545 -0.30417795904035355 -1.657237452727288 1.0131303451889004
Ni 4.296870122407341 5.142320619892618 6.025686548081904 -0.7451378349301683 -1.182966621390169 -0.6974934935793278
Ni 8.390989945056837 7.709572312620715 3.492217660824506 -2.4325700660732816 -0.3419142972488628 1.624766476682776
Ni 7.1885923548679385 6.866306584665429 8.67139543487243 -0.028690940176789297 0.11285317394800563 2.2330696871486766
Ni 2.8746128136940907 6.441742257774128 7.966810026981573 2.4505436198325667 0.14626131709480616 -0.0886377530440667
Ni 6.729431234533372 4.910403185987559 5.0605678346615335 -1.2317394199184981 1.959596870501664 0.19962250632476589
P 3.7935434711943605 4.295791565297599 10.392395547954255 -0.8348071145625429 0.018323738009852316 0.6541902028060024
Ni 7.271825621054788 0.8755680524702198 12.202052133613199 -0.08197885296665237 0.5997614915434767 0.1561346103444601
P 7.458628025087386 8.766973109825567 0.9456714990724059 -1.2086226313953765 1.9575384453107383 0.5330333940883077
Ni 8.064113393310299 1.0256525007437256 9.034872868230252 -1.9966752634112 -0.1119867121826523 1.0709025190023622
P 8.728421606979914 2.4352805509924744 10.519045807948483 0.36719184086872897 0.2754461383232998 1.9649182827145775
P 1.4792733405402154 1.296370335288993 1.3920355853920665 0.11898988297336283 2.306627920151802 -0.2755919198725447
P 3.18430619917944 8.171157881842992 11.852727766328767 1.7125814767152312 0.2147493346638753 0.3948016321661975
Ni 6.761658889709938 0.8079305377215041 3.1810631531007454 0.701526783108437 -0.7734227979177907 -1.164605345274162
