# total energy = -340895.69990192336 ev
CRYSTAL
PRIMVEC
9.01867058636272 0.00000000000000 0.00000000000000

0.00000000000000 9.01867058636272 0.00000000000000

0.00000000000000 0.00000000000000 13.19973602434169

PRIMCOORD
 96 1
Ni 6.510307545732148 1.7501992374734558 11.434640429362105 -0.2882864846210777 0.34011478214627877 -0.157288007222613
Ni 4.6677300681449125 0.37467795294883893 5.992403187524015 -0.4314213402717602 -0.21742122506908362 -0.2759215352978216
Ni 2.6811514815176762 1.5991545469115516 4.8721012544569655 0.4759502759220707 0.08013331511748135 -0.894485504259782
Ni 3.6100745247393244 4.277257717860209 4.940977741577238 -1.069174480567662 0.8885097462923214 -0.3498682619886168
Ni 4.770155106998002 4.65798990419657 2.235336060798704 1.649049774710173 0.3062415264376016 0.18983225970722145
Ni 7.14037891047578 6.0201157576911175 2.827317071435086 -0.5262857909518291 0.3428177828997386 -1.640848212735987
Ni 4.6913680030602904 4.533396973690675 11.229239310899219 1.5541668120873426 -1.2567716802967777 -0.11283594755682502
Ni 5.565087765237671 8.022747577492476 12.533307474192414 0.2432178744172134 -0.6860744531091088 0.046665779487655115
Ni 1.721619071221326 6.5123818399063325 0.18581527212342633 0.39931237555235743 0.03758515734262559 0.9603278566758879
Ni 2.547756328776983 1.5395591734202054 0.5298504889173702 0.9426921458719958 -0.22226724030747524 -0.7607477735532834
Ni 0.4641143028034064 -0.09251532390268266 4.728343649515674 0.9248031814067169 1.3167616876971644 0.2519935637273144
Ni 8.539445237611453 2.530900433944155 1.340327727324968 0.19417793827042687 -0.5120683618008665 0.8373332234185062
Ni 7.0133509389828 0.6134391329348026 4.946296953333472 -0.5371790408255651 0.44463166831444717 -1.3430640730371193
Ni 0.8800111865943835 7.68410552555141 2.5840465562878525 -0.3960457889859437 -0.5938176152552161 -0.30513106698224224
Ni 7.679361704961755 3.9693693317190064 3.8795478846416667 -0.4663721453153323 -1.0710758113554328 0.1941925935584462
Ni 7.589896495362155 3.706069251652443 12.472905831574232 0.7149065468494527 0.4784447602091502 -0.23698243503046285
Ni 7.8096363977708485 8.654334078850294 6.932065663365744 0.6729733969507764 0.3052573081474614 0.9676673277600947
Ni 6.858779948324782 0.8001445478190636 0.5571319666430545 0.06314886474434286 0.21875974137484902 -0.47469660602062763
Ni 2.003795228272966 6.601432190671096 9.080679092209934 -0.6648119441859066 -1.3063656891748212 -0.2115866206651775
Ni 0.03996533566730498 4.9545508404126615 1.384559795921867 -0.14778855237261 -0.09257899708000185 0.024830428780118527
Ni 6.434361322946037 1.9491150301074045 6.829992352655234 -0.21527872480478408 -0.4935433064134854 1.71680605631954
Ni 3.1492385085981613 4.151907219047222 0.22586357955769867 0.20785646419878398 0.4100657574141196 0.6068510514004064
Ni 5.89518913638329 5.649322146050197 4.934351724491267 -0.16740426972100847 -0.6744646367843222 -0.7274116212949988
Ni 4.918241673694114 2.76147175941022 9.531806509748883 0.6900393512941277 -0.7268171822441095 -0.8069903494605909
P 0.2505792455766203 5.366343327339851 12.23331673765266 -0.3312740439261972 0.3446522650053161 0.5329549754418886
P 4.147839798731756 5.971685498059077 12.613997517568182 -0.3529211898823277 1.3022177284447185 0.9078213021367398
P 2.444952505770346 8.505913821352248 1.385444527480508 -0.3402142838386205 0.0078002127707091475 -1.2041386274820938
P 6.145790928635716 7.663606087908277 5.85853094712326 0.5622172147411156 0.14193903557036844 -0.5111569057301907
P 4.788426933071469 1.106861408685368 12.69856829478374 -0.3082480153446691 0.5990878625152198 0.036982490761620176
P 4.063767753985036 6.166335459630462 8.1093502611317 -0.3868204137329338 -0.2072617680375785 -0.08978112261989053
P 4.653020616848849 1.0001344640884264 3.7409769170028673 0.4025061998993068 0.005092584031558971 -0.2584015241361872
P 0.14666973358844024 5.864228041166009 3.4841360086213076 0.17257064441329634 -1.5434627954062774 -0.011765368066044253
Ni 1.4947724565984704 1.1904464452346712 2.687836119960743 -0.6239270330460868 0.2642710955430868 0.5153647731639511
Ni 1.8383296838653196 6.529373014793999 4.564904600329502 1.142157300683291 0.43178412292781765 0.9453306119361075
Ni 5.922001643252202 5.664049634686905 9.190487716456088 0.18817466949914044 -0.4895768655665698 0.5921492264138576
Ni 8.654992441783838 2.2152830473365355 10.166039990846365 -0.19712030872820244 0.35096689436943423 0.8258730452977068
Ni 2.3947004747331517 5.203583384028966 6.904900526487221 -0.18169266131922257 0.9624269052967619 0.6934892575159411
Ni 0.74601178294208 9.088655204243189 9.177327672721438 -0.4578854480005598 -0.8872514484051881 -0.30329684198698087
Ni 1.4031698221324287 0.6933959584133478 11.511621093634215 -0.46835857961774174 1.2238859853123503 -0.13726322736125393
Ni 4.134501185324719 6.831209873148777 1.4716386653541225 -0.07716523362809291 0.33913776294499015 -0.688812163755246
Ni 5.691132701665493 7.768538317111033 8.027538295167808 -0.7837771445689211 0.41772147418716443 -0.15604333618223448
Ni 5.279917409638947 2.822194466691883 4.806987356595258 0.525035977705128 -0.5338342927230484 0.18874622573189428
Ni 0.9348122349422672 7.503100812178028 6.938229924531202 -0.542271367746808 -0.23544311556780098 0.07164070426543791
Ni 5.166976601189774 4.358434769433393 7.234722318852842 -0.7932321193342339 0.4235414233030512 -0.08646928463783816
Ni 8.003718183111916 7.18071040415818 9.186078488535397 1.0160783720736306 -0.030416921728960523 -0.5957739676506384
Ni 4.569408524288579 0.3788680271806912 10.523871969499732 0.39345617388189663 -0.6388286327482675 -0.01859910315842603
Ni 8.057505532915545 7.16604604621373 4.819685644409394 -0.5898450037607131 0.02832687196915121 0.17872252294730512
Ni 7.361228109334146 6.025229343763997 6.950755955742178 -0.7912742242769147 -0.16638816975166829 0.621465973100104
Ni 2.3309925875747273 5.258164376820979 2.396042452877146 -0.26355735730551383 0.07773473297831773 0.0890910385314014
Ni 2.4585436419464144 5.250832197848754 11.272297148620122 -1.6677303818388114 -0.6063067488611623 0.2806446518051038
Ni 1.0428739427469447 3.759748377412203 3.9296673412251195 1.0317901263819327 -1.1909074735038006 -0.6460518899695842
Ni 3.7217617380136634 2.7179025630820277 2.6484876613434998 -0.7256146772955762 -0.9586440412155618 0.28270641943013897
Ni 0.9234396916655438 3.1671856625400165 8.199662323874588 0.3011402006552943 1.1638388994217828 -0.46509842080923125
Ni 3.67513521244613 2.5058646051287834 7.061990431766325 0.18876370923339106 0.5345544587185246 -0.5127047098332848
Ni 4.055136886486364 6.890877396002703 5.846453143827314 -0.7060580953198872 0.6550432948349171 0.3678595563597148
Ni 0.7927871165699352 7.201083580416798 11.079475271523116 -0.3873521178666878 0.1557150063085383 0.46807781515252933
P 0.20508095566643683 5.680093849190704 7.9993829082878705 0.592157968164606 -0.6371895544829478 0.4853841676414608
P 8.457465524379561 1.521557907456415 8.11059032830105 -0.2570421818948154 -0.05914745689443362 -1.6065406977033687
P 1.7489726983095906 2.9653478207215653 10.24494884683343 0.2872019933076473 0.5173424657156123 0.3658808353667892
P 3.9491584915261937 6.140641267881545 3.6893125621931633 0.338583690213733 -0.27969000120131826 0.06654940578545958
P 6.611704456168469 3.74503892611614 10.393617117765347 0.9186896123098114 0.8599830996075384 0.426132323958679
P 6.251570912848791 7.775004703732294 10.414934548806736 -0.8533334555015045 -1.3691728543090291 -0.1683208679980069
P 2.377898691922259 8.585954520464792 5.765895674905288 0.9045071501618422 -0.5202920352622394 -0.34965563175717845
P 6.879180180594369 4.082959484431401 1.568432446457818 -0.20958707373664548 -0.5064983239122567 0.24967237179330548
Ni 5.288710613203423 3.2025027755230844 0.1397361798444713 0.49158772534901146 -0.6959516030135047 0.37619378725702307
Ni 1.4845092097714194 1.1975802134598006 6.935391748980698 -0.48875796920970016 -0.7210363138962743 0.47699902890155915
Ni 6.947253104188903 0.42119084327030826 9.326391863280511 -0.6664625924154522 1.7253326057333125 -1.1980870219713755
Ni 2.8411246556988954 1.4055417324272568 9.05072898993581 -0.7331192132027374 0.46037453297100067 1.151906409650255
Ni 6.274757914248042 2.1579333227555018 2.6715736536351384 0.47880342910014956 -0.026885511536934345 -0.47935364517666473
Ni 4.07148773578113 6.739544107990477 10.454006134245075 1.1959913157846112 1.4257684913158866 -0.26200441099609717
Ni 8.309189565606678 7.14413969600028 0.23066241403632234 -0.024655336654834957 -0.6842785375509506 -0.57986141018544
Ni 7.381907920383731 3.769867325514093 8.346350996670704 0.8638081297805833 -0.026858000733108584 -0.08022587483128764
Ni 3.057834284879216 8.220527017665784 12.395884583285675 1.0870511037377666 -0.1500971459011286 0.8587417710012694
Ni 9.299872463197081 4.7140048655698665 10.105413783337154 -0.3633107606467678 0.2727462228936335 -0.4109286196350471
Ni 8.664696531050893 2.5484237103808507 5.973435120101648 0.00569602194351277 0.09600036405672499 -0.5367630363340691
Ni 3.387701170596449 2.4102035690175985 11.515462145324584 0.0994826661783706 0.2328229043361345 0.3367600067414329
Ni 1.1093685990350344 3.2992189960620064 12.619752331100994 -0.6317822674244474 -0.0723672980188173 -0.8099116368724439
Ni 3.170197898427745 8.304923734544115 8.007844224784478 0.7229427868903678 0.19743681152735673 -1.084273026771997
Ni 5.7451815929084775 7.927465325534837 3.455373665228662 -0.6777708183394199 0.2126274032248661 0.505445200057394
Ni 3.2273943056132954 8.269904237681692 3.3729682707575472 0.02684925898236021 0.28894005904467657 1.6249281990716207
Ni 3.2376575524403464 4.287160217874358 9.060100290267961 -0.3148035570749998 -0.012853201813584316 0.18297204225227842
Ni 7.302246005424733 6.026573125642056 11.2291996287498 0.1838567588500769 -0.8405910682341717 0.6421535833564425
Ni 0.35693913029143454 0.05152636915376936 0.6046585555087772 0.9200175870926155 0.9516758374278449 -0.1738510537876167
Ni 4.590755716942032 0.2325933113523782 1.4961901915731737 0.2428383795906076 0.5482453259420559 0.28176385301121154
Ni 6.3565031420515465 5.75985496952325 0.2733126078586476 -1.2360552736850325 -0.24830454491150136 0.31699336563746694
Ni 7.9299274225328915 8.737702667311856 11.39554268977983 0.9412505283294629 -0.25796109416465896 0.9324036194617943
Ni 0.20249169541683554 5.113090046012597 5.725372083545017 -0.2984366856812022 -0.49962807915498464 0.5831861036832988
Ni 7.93748506826318 0.055446785142977614 2.6695408453444376 -0.32006917634931326 -0.7045804823330962 -0.3824657363086639
P 8.55850168800298 1.7786982356926835 3.6723249947736263 -0.2249969805338125 0.9960206820918074 1.0302045270623676
P 1.740549260228338 3.199679931712129 1.742193363828137 -0.2484431273718947 0.5246048037049803 -0.447122810167417
P 4.855038832073752 0.9470235145589867 8.221124955508168 0.4316681661752437 -0.07911181583150247 -0.22686925785586087
P 8.60838395355695 1.6045928051160432 12.42843567008082 -0.9416145965371009 -0.027298173594320733 0.24755069746461236
P 6.595037953412415 7.7652555211136285 1.383107789999938 -0.6927161267953426 -0.07924294209272804 0.2413067734374296
P 1.8323412867711528 3.3682298613700845 6.050732339702076 -0.3866270667752051 -1.176795716692767 -0.4725718463681409
P 6.834691079893277 3.920551269263096 6.015726370845137 1.0592847322577756 0.5293590305605141 -0.7022922005195518
P 2.6042582983476974 8.35961295138 10.278489281762958 -0.9924828441418779 0.5790777379418801 -0.8242349954736514
