# total energy = -381164.3085369728 ev
CRYSTAL
PRIMVEC
9.30707593589203 0.00000000000000 0.00000000000000

0.00000000000000 9.30707593589203 0.00000000000000

0.00000000000000 0.00000000000000 13.62184640582955

PRIMCOORD
 96 1
Ni 2.5783020732389392 8.769592487742633 4.977641171610214 1.1345049263443558 1.4002181536506078 1.6054160971806224
Ni 0.9654788498895938 8.38282763189691 8.766843177452499 -0.16730091137392478 -1.7886233953721582 0.7823046737884526
Ni 6.5377649377631215 3.7844153765863053 9.582424120534892 -2.196125248713843 -0.914872038335934 -0.04682955875902903
Ni 1.038827916905672 6.765639389840478 12.473483972320766 0.029566143692891015 -0.5796225547017566 -0.19494926921881264
Ni 4.506774783690213 3.666457493657518 3.7776379637451547 -0.0222086748865553 -0.33055310659977266 2.033430725763679
Ni 8.46096984312226 1.4228099569871768 0.3836665302005448 0.1092816545466634 0.5074977117110485 1.1290881262041588
Ni 6.892206318193689 0.20697913544776825 12.714795050213517 -1.5159892725763568 0.051723139405904464 0.5463779337160138
Ni 6.15987903254972 3.53890401523405 5.542797547848943 0.08219174030840684 -0.2778125816729473 -0.5866002715711705
Ni 3.6118063425956715 7.294755975163542 2.3567154817980565 -2.381598460121421 0.2723021933776794 -1.6263888427775475
Ni 8.503261197077476 0.37449533737759805 6.399979259837371 -0.9019509593988919 -1.2372657490533658 1.0773210209341963
Ni 3.7570246515224404 2.594840747529965 8.75831603429806 -1.0159017372864503 -2.4221581267113383 0.8570702968361175
Ni 6.894542394303451 8.31219623111211 10.60174719798547 1.2865962198573777 1.82881616554096 1.254667489469581
Ni -0.025686599423635863 5.188266819487484 3.1789574992699188 0.22535899185892155 -0.389170144912033 -0.25203830092232077
Ni 3.9543905080308726 0.3580897542752962 0.6631198675077473 -0.1033776303574026 -1.1096210186184825 1.677632728554188
Ni 6.852976992286726 7.66908657729356 6.50091729263898 1.1306788677300463 1.0795074870625538 -0.5738362870372827
Ni 7.887318898495565 2.6908153166290383 7.378069197889228 1.0044824397059153 0.8889661171034496 0.7882148686253005
Ni 6.285236041005444 1.0470832934369831 2.0639958381687227 -0.12797460297047636 1.3822384292437355 -0.765301968582869
Ni 0.23295053140112015 9.164836089946895 3.6060434010531828 0.922119978147599 0.07493505874599352 0.23000857481579096
Ni 2.9657184244140784 3.6342177819275734 11.102363654769434 -2.2361005035552006 1.2342853262688034 -0.15880495808777167
Ni 7.903168849152636 8.618399035937507 1.3984189025614648 -0.731187029177031 -0.6930079470041485 1.5599633641644617
Ni 7.9464281390258416 2.1922538622555736 5.095496676701522 1.0261005321963232 0.2605561085853448 -0.8148306714406159
Ni 5.0324570579196415 5.574370872927657 2.7890999020246974 -1.1466996686383348 -0.21445494335190807 0.9109325940722118
Ni 2.4792096336348046 4.8681406287648565 3.5069853976307455 0.027126423903146832 0.13546036982456028 0.07536083342950246
Ni 7.8030805524021085 5.300659070887834 5.692855536365658 0.6885877064492658 -1.1630930223946936 -0.2701152130286897
P 0.7252939282091186 4.509176009332917 10.788380134295585 -2.9046338624567523 -1.935281690795067 2.6715044826237926
Ni 2.1689582506908933 7.832500220063297 10.540993397102225 -0.5923716268373088 -0.09365268976015484 0.9803667776046342
P 4.1220760987463505 7.243827654555499 4.439074181180169 0.3294213069881746 -0.8133898252290314 0.4997232099719523
Ni 4.598812459584388 7.57285141006272 6.683286657371875 -0.8048157104067752 0.4429329404557855 0.3677140319207861
P 2.87212646680544 1.848376013237675 4.351199560440961 0.2905907072742221 0.41958603819972895 0.8025369416749275
P 0.23132644661564805 3.521155421045538 6.359372486662502 0.0904408676910765 0.2219679638995016 -1.3654313849887258
P 1.1366080587748406 8.48543814627989 6.673628704467093 -0.03679582867211083 0.07693563411579007 -1.6912860576715647
Ni 1.7251968605974268 5.812799549341551 1.132646967171993 2.1988922699360196 -0.8732962717766766 0.6976806698894694
Ni 6.578334482633453 6.3144974883723455 1.4514897120956711 1.7466012853041017 -0.13929079931424398 -0.8887365175911468
Ni 5.453639481310786 7.864339727519457 0.12981509792415416 -1.3626029144009952 0.19230746072059138 -0.18570435358177695
Ni 6.009057863789976 3.6806973201433193 1.7194581174528876 0.6201953339177964 -0.6250621750917945 -0.20519537242685307
Ni 5.789271260873508 8.714299148427505 8.644587286764795 -0.03285021376080149 0.47892427094873 -1.068023140572038
Ni 8.014965447680376 5.0341230245477195 8.50499045182327 1.4765698902384699 -1.3698050885763893 -0.16577239054454032
Ni 8.933006130512371 6.498144714658509 10.38397464634451 0.28377496990396933 -0.07082360768078125 1.2437485285642322
Ni 3.4397464260969737 4.078816808873145 1.3247059288685272 -0.973390346286801 -0.31203010809492066 1.1619085151682893
Ni 0.23220875743319963 0.27369132647232697 10.877725273064046 -0.16127784510829643 -0.4560599647560468 0.35181484419202635
Ni 1.6407816800574155 0.9613372010097365 8.06326172715758 1.07106604116342 2.062176430437803 -1.176660219556167
Ni 3.6405000583183678 0.0904657107350567 9.433169332688584 -0.6487939714910955 1.0922457605648286 -0.6019006493736667
Ni 3.9636045134040385 4.772603492244106 8.760931322691858 0.8623181754986181 2.6448495990404255 0.5209772342547221
Ni 8.816062718882245 8.523867063639283 12.920349272305092 0.6139012733789685 -1.813694479408173 -1.0195714728285536
Ni 9.217877116837471 3.7528643884903143 1.0023795453477016 -0.8972124162726418 0.2893964298558048 0.5109159933639782
Ni 2.60605577427205 6.449189494190984 6.187451245598208 -0.6886877223622397 0.763634351072459 0.07161705011635408
Ni 9.177763618697732 2.594412622027777 12.142241409863079 -0.1825462675687695 0.005862629428364096 -0.47353112495761673
Ni 8.904265879409001 3.0066230240252527 9.765638567780801 -0.1959795102555399 0.16130587013275446 -0.24887147315856495
Ni 1.7569991397490496 1.8271186513464526 10.158001629921431 0.33633320361665947 0.7930829953508792 -0.6345580303973716
Ni 1.2090264181774677 8.083856425228024 1.6498784162712863 -0.08374288684561061 0.5693018895020389 -0.7002425170793748
Ni 3.8176695596149117 0.7555763618279758 6.8147100180520725 -0.5312493056046915 0.6082427895416106 -0.01923622252179268
Ni 4.490459479226416 7.535920931960981 10.503615248638416 0.22853610403532254 -0.0285461870688089 0.4085097257809094
Ni 2.561009525781019 0.38389455356584035 2.8153086284194795 -0.5558619619470492 -0.8411767655343125 -0.9362052525960716
Ni 6.449654847997709 2.5636713495554884 12.943192559969633 1.661520653483674 0.45462246097857184 -0.06042143851085077
Ni 7.416101633805291 1.599216278040691 10.865520904128863 -1.160781857763014 -0.6064669285881105 -0.8159249329460594
Ni 0.6731919853005146 5.622860739588458 6.954524638575146 -0.88243242974999 -0.9156143158185973 0.5964964476389597
P 5.887237544265366 0.35479318790845255 6.541987558205348 0.9730458184631886 -0.43606552391199094 -0.3264285429084378
Ni 7.365917879288011 0.10529932867823973 4.052921730944097 -0.5349740627544465 -0.7599530455661299 0.14803897782051925
P 8.483790793804081 7.182158968088233 3.21106411981114 0.13515826520310914 1.567871563267945 -0.5684056029400146
Ni 1.9397994221069728 2.086311414616439 0.8346325279297359 -0.27953059280531856 0.6501875094045125 1.6148679866221414
P 4.795768804742902 4.798849446943425 11.010416257513764 1.9228982295290495 -0.5302640588732868 -1.2789826691761779
P 7.529657269722455 4.955496845363374 13.489810171256032 0.1906295587975362 -0.8945739502085303 2.0875601606182306
P 5.15848417585705 3.6121786256410515 7.38910273664669 0.024598515274970537 0.6054575134869895 -0.08486723025804094
Ni 2.045760483898376 5.5008263573127545 9.819444636329633 1.227192166867448 2.31543369136889 -2.4012473447006
Ni 8.978033764851133 7.243241308759026 5.441505846154224 0.4595785194322666 1.30767540912518 -0.25192131572848225
Ni 5.581081274820639 8.29676509888109 2.530258015524982 0.5446282980147588 -0.09551185445608068 0.7565247366108713
Ni 3.289800122493873 6.0302407690721225 11.86833322851682 -0.45645025821593 -0.41626931512167026 0.13461601954639396
Ni 4.463264202761375 5.235844592687102 5.690907565330705 0.5006287525053572 0.397199957195045 -1.0684113771493924
Ni 7.042310842091076 6.795477875927721 12.359605380861735 0.24848555057405589 1.6754202942839014 0.7907006111616317
Ni 3.0703485743182473 8.292139482042238 12.67722610668895 -0.8558724198732744 -0.6684248583481456 0.4872021946868061
Ni 5.350023802705278 1.1152948544268113 4.5628145505113284 -0.9286775767604587 0.6651140488073577 -0.04668763386452605
Ni 4.266791825561857 2.27428643130515 13.402957467476392 -0.8805370124994899 0.5799642543118916 1.1674852379251184
Ni 3.0359589280012305 3.61687869908898 6.727762382095861 0.20935773133465882 -0.12704386362609088 -1.7830579854692388
Ni 6.4412040228675735 6.733874338993394 4.267506609008987 0.6038755137118503 0.5427861025996975 0.20962564028406477
Ni 6.04738440331189 1.8775350827670967 8.207993276002515 -1.071591831759903 -2.1730416274215023 0.7373605049775946
Ni 8.991147435124658 6.397739977319408 0.842873943846845 -2.335590625932739 -0.013248637479790085 -0.2152095621297455
Ni 7.952505659741678 2.619783711570453 2.8080621389411493 -0.22699884145518967 -0.0626176748312212 -0.45918874019301564
Ni 4.740708142331137 0.3325250775490224 11.75959028166881 0.4430836071010369 -1.972489410193616 0.5634973670051199
Ni 1.3710533066031632 4.081971907682744 12.952033351589806 1.560839081901196 1.0394178181305196 -0.6248415744405561
Ni 1.1586565221374963 1.3919942279058122 5.724158956236471 0.6379570287765916 1.2359313465126587 -0.7078912918738841
Ni 1.6610711060306487 7.103812001187922 3.9249857316915002 -1.1357244005737537 -1.3082793612577663 -1.4187822898060403
Ni 2.203217597942027 1.3842321264096302 12.308346659050917 1.2758726627922867 -0.1566506307489302 -0.716652840116598
Ni 8.43216444248595 7.145396017356916 8.256868455615283 -0.9201991069758022 1.7293995767138344 -1.5412431620471392
Ni 1.3342345134150393 3.4074974072908946 8.144964825711995 -0.3531201932670112 0.18958106292836382 1.5348627124420922
Ni 4.960941484902062 4.4470978115157305 13.358032210975109 2.4570940193565747 0.5058231522221031 -2.5812777878260516
Ni 6.145229694714001 5.686288463445147 7.332162975563367 -0.9868868381113391 -0.8459034815860206 0.5135377472575413
Ni 4.041234835441991 2.0631554091937767 2.4928389159261823 0.6439854943588588 -1.2881836189491556 -2.179469385324717
Ni 6.204943895193021 6.559375968547454 9.502532178996251 0.9282854835283626 -3.131400276186162 -0.20350744320146888
P 8.275461201609195 -0.0002112706282533911 9.154616920351204 -1.0475846702120282 0.3358341524930539 -0.07103289547810993
Ni 0.8856222752402658 2.7843979671615426 3.4781883733629564 1.0805948065894617 -0.26168585131441385 0.12638360433427268
P 3.7987761950618557 6.0135997169436175 0.2690005601005336 -1.0644855597324248 2.7895471711925377 2.2317036600390856
Ni 4.623550667949917 2.353564105818912 11.218040373337653 2.357636035768553 0.7664378819595252 -2.4761605490697223
P 7.172246932004978 4.586964551665156 3.5241215862096062 -0.9986272664767188 -0.7243694920345654 0.5417208945599766
P 3.1799393958021094 7.081512246769635 8.589091983897548 0.4630207123445961 0.5679818851390347 -0.20088131843253146
P 1.0691969063325801 0.2871707648379387 0.04281068880352196 0.72652227671151 -0.2224616157064685 0.9265139934502366
Ni 7.373037792530911 4.841447934411081 11.436630086263225 0.22756756947446613 -1.7580624918661658 -1.2323893947976712
