# total energy = -381165.78669485525 ev
CRYSTAL
PRIMVEC
9.24886982223497 0.00000000000000 0.00000000000000

0.00000000000000 9.24886982223497 0.00000000000000

0.00000000000000 0.00000000000000 13.53665587492767

PRIMCOORD
 96 1
Ni 2.300221670011544 7.16168661400027 5.612460224683367 -0.8477474767732949 1.6938754156652958 -1.9564552395488883
Ni 1.5207546684733122 0.27049522131883663 5.323438592234789 -0.4718609363440454 0.7808108628517456 1.4485443515598213
Ni 4.758108823787606 3.9621880828455445 0.8765375898119527 -0.6581381317101569 1.1539015857034127 0.2311493732884535
Ni 9.094940876296395 6.320215189211183 3.1994291646311 0.21358308226991604 1.172631300902432 0.19768518009273697
Ni 7.396607907343306 7.909152525972876 0.5255309567391344 1.2733475823775877 -0.17370013003204923 -0.45228609953591137
Ni 3.687320920764375 7.737558244264475 7.349686540989452 -0.3408074373379292 -2.649285523324592 0.5823065292918229
Ni 3.261576945364113 5.019000943575809 8.896330645853546 2.9750895452751536 0.943302011541853 -0.936618171763774
Ni 8.952989222350373 2.3875772454298505 2.13613839548125 -0.9367284720893931 -1.6749749792163668 -1.5561074807534814
Ni 3.352669064188348 8.994007959987238 1.8656894185114965 0.2970436619884174 -0.4055164474805404 -1.3739617910572401
Ni 2.9372653252431062 5.174289467797447 4.328305519424814 -0.14616850027068373 -0.142132125417781 -0.2996407332916323
Ni 6.460085847448456 5.681266266797389 0.11558682564666399 -0.6500448131790612 0.0974754059403547 -0.8868567840699307
Ni 0.40534744279359297 8.861305175857872 3.471150786087625 1.8296026659979971 -0.7229718403560903 1.2551868523081608
Ni 7.975318940641225 4.364745141615453 6.242428494505187 -3.1499831813946715 -1.1572216512155813 1.7765556655743466
Ni 7.151411119633966 7.077808613633025 6.647080422288568 -0.6152683289298242 -0.3948648813039651 1.0595968641815556
Ni 7.06098491943653 2.4253773763705193 10.650884719761134 -0.09143408484228124 -0.39603833278677597 0.3330193087520781
Ni 4.0857252369866055 1.5527742557785718 0.6724168827323406 0.19976623099148177 0.06300128342288505 1.3650007252092105
Ni 4.302084048607615 6.824500567094479 0.8881273485792031 -0.21153057061626152 -0.17392895821340368 0.6538647011457835
Ni 8.303598325913578 0.3693813627375667 10.898497312266583 0.4210083724685523 -0.32489899363778885 0.2595263817692498
Ni 1.7203822745959934 8.228543747351422 10.739130036455801 0.4578571658657857 1.1123746701042196 0.6433799995643759
Ni 7.350363558260031 7.990348354093289 4.413099157903907 2.09316208018604 0.1268669717285944 0.40656982844571915
Ni 4.925448625380344 6.942691874481513 5.272107364752353 0.07062820384052353 -0.6905607710152365 1.5322481576373805
Ni 2.2994632626865785 5.423343034220332 6.890604089448075 1.753936128402618 -0.7307483989777157 -0.3796300666320817
Ni 0.8777436424360444 1.7953351155901653 11.983066956203611 1.4877284779584508 -0.1664012823777908 -1.3103187602852981
Ni 2.246744704731645 3.6388753406647365 0.8596519281876857 0.6182196982486644 -0.6983393865193909 0.5658244724763997
P 5.469707618611224 8.59490997852876 8.015743900835862 1.581981777417082 1.1371439066290996 1.0965456734917631
Ni 7.4606285842141915 7.19519526934601 9.275154179786934 -3.3551921806682796 -0.5132726665216127 -2.115076363760628
P 1.7686058818200325 3.164473061159052 5.964223415307187 -0.7812685192144545 -0.23611263083099981 -1.4900969781906273
Ni 7.43552715153179 0.8418358302598632 8.178982753551894 -1.320745354935261 0.7115126906765552 0.6774018650357753
P 1.050671611172006 1.93417914927779 0.6570434113230966 1.3729305215792484 -0.9611079293750222 -0.97751928085351
P 1.2525096971808676 4.531197051705792 3.0535855862662307 0.42989719031775 -0.3419659764224046 0.23988623894081912
P 2.2056612250060637 1.1814136349002409 10.247018021025188 -0.1571550811891745 1.5298246357975522 0.806644536085398
Ni 4.496504541023519 1.6022464604278592 8.327195892363791 1.6074128158956766 -1.563192926845353 1.3711181509608579
Ni 0.3785497673868168 8.130625962602496 12.464336521548162 -1.5686758043367952 -0.22955708910066916 1.4396671036748494
Ni 7.737613737483375 4.956034637864023 11.070724216670444 0.48987871307770475 -0.62843623377035 -0.0532981972025082
Ni 9.048363567899719 4.663372650255609 1.5229688479074193 -1.1685735858932909 -0.40158085987155995 -0.732406503406429
Ni 3.421129198571228 8.844028287040361 4.200004272441195 -2.7809650859504815 0.13116508488331602 1.4939600606904593
Ni 4.557038393973527 1.0030491804860495 11.038249584970204 -0.8158969079216013 1.978220656250438 0.8792082663857373
Ni 2.384256901165671 7.286333632519328 2.9038158626641914 -3.5289285632549037 -1.4552898978137712 -0.5984345452019372
Ni 5.417312771099873 4.7473708859304695 3.879957306192647 -0.9072170928938376 -0.507360671912552 -0.9990155030540729
Ni 8.365944957347649 3.040399472568626 12.736652845333898 -1.1977149833439371 2.121623420850527 0.17754598614070066
Ni 4.847619385873193 6.932712343949341 10.011968168391698 -1.2113793682049074 0.9281759545336918 -0.7775946699072931
Ni 8.71277757547221 6.081501859243318 13.192080143523734 0.3219010873517295 0.27578912348501533 -0.23044206280878377
Ni 3.613931138769218 5.1959040765589695 12.561109296213786 0.6208116273455567 -0.23864825276865997 0.38169029159522005
Ni 0.6121678949726866 4.077734213465015 7.514414461745967 -0.4301576430679882 -0.9779900498423415 2.3153552727224707
Ni 6.096383290778315 5.1335574451248975 9.115123760010299 0.16990132511124936 -0.24218429094637645 -0.46397407739680097
Ni 3.7616355897411977 3.1080457064076406 5.214076255974733 1.0327275505945375 -0.6427377379946866 0.43899966683965036
Ni 6.402835343283361 2.381343507173425 0.6071947776722714 1.0799504881372433 -0.6811960419708849 -0.07737323587384094
Ni 8.54201569204731 9.128958219482051 6.462873456811196 0.38912386505512986 0.11633779006249641 -1.932444221346272
Ni 2.3469839558045518 5.7919844873725665 10.665571925029981 -1.1631058779105001 1.3811544521509374 0.8980274559747695
Ni 6.120356361343085 9.258488641264304 6.032746442004821 -0.5723309061363497 0.2718517361038222 0.01438686484929135
Ni 2.958491481472329 3.0562982797834555 7.624250340140635 0.17158925433663352 -0.09071828972217924 0.3362630125003564
Ni 6.705180897589813 2.376117895727015 5.981049884164627 -0.9372681466429472 0.18926841678395145 0.4399262924189778
Ni 0.4922590724606998 7.777485615262975 1.4006109246679823 -0.40383648867495614 0.32313084599377256 -0.9722472338212932
Ni 9.228466809839441 6.964759677864052 10.399224821823914 1.2423660463944088 -2.3010357707760045 0.7587729092150997
Ni 7.882469536551826 0.13653181623346086 2.537608712047701 -2.478353185845667 -0.6329909430205679 -3.9360120981122475
Ni 4.833810823236927 3.300634922599847 10.062283869968265 -0.8502519883627034 0.17931721910851053 -0.7964948492459057
P 4.243853164241956 6.7152344190805175 3.2640260460915633 2.6147725771493873 -1.3252684396165948 -0.9394777526997562
Ni 3.415875840515368 8.882938282359028 9.498049167707375 3.7878504786709337 0.2948870206567309 -0.7266819422178259
P 0.10546393763233511 7.389116322791815 5.442507617367423 -0.20442866946415758 1.2982644002239254 -0.900241947127585
Ni 1.7233419129373229 5.772876322331357 0.7021372010011796 0.5131831921316 2.1161641975081684 -0.7470844171335779
P 1.9817275890052133 7.5623476544577635 8.715413503369957 -1.8096282797585996 -1.2659623456571099 -1.128584447094863
P 9.35643417262268 4.911704804832795 9.50236654013779 0.12637383414225975 -0.703120352847802 0.5498221835108724
P 5.788201699617555 5.710881147950319 11.309090714020183 -0.399225472265506 -1.0694223349124097 1.543672340313922
Ni 7.73909355665404 3.2690962765250537 8.533196894677127 -0.22063561824132322 0.973286473719085 -0.564501382789602
Ni 9.07363148023882 8.414594012583253 8.46524267347322 2.1696284879748955 1.6923916320309176 1.357259904921527
Ni 8.555898245642108 0.9288824934262931 -0.09128819486434801 -1.3900072745558771 -2.1533500625298463 1.0438717401368152
Ni 5.553474632540667 3.645099830051345 12.250443458620271 0.9376324719609014 0.24272679371340777 -0.5643165204723055
Ni 5.5427459435533475 8.979283759239124 1.0526684421654218 0.1984775940870453 0.7864917152866069 0.44989343093401873
Ni 7.858616701294673 3.5276669299892767 3.6792494320753804 -0.7347840024996701 2.3550741885786475 1.5859590168972753
Ni 7.185816915351922 5.742225567758963 4.680258311879876 0.7853190351347443 0.2554015609675988 0.03416327614527019
Ni 2.0096869224609613 0.6214445113987916 8.00729783291929 -1.725681504432299 0.44396575259567417 -0.5010059333391178
Ni 0.12576150733196614 6.419612793130773 7.4283481787801025 -0.037145755812361826 -0.40747639942038855 1.0298106340580588
Ni 3.8392891007218335 3.1464285161467584 2.792192177733964 -0.3618411180797768 -0.7208843616994424 0.5051258690447624
Ni 6.114483329009508 8.976499849424311 10.150502364940465 0.20767108766085526 0.4210595374214619 -1.261825440670601
Ni 2.431870082981811 -0.043897910810789545 12.892026459157849 0.3438038009620918 2.402299440114198 1.1326892132918556
Ni 3.6812629110344663 0.4893660259820501 6.455265336500015 0.6122238856765456 1.6772488628522084 -2.048048989897486
Ni 0.3181195017787565 5.310469826977875 5.2823958075364 2.937861771271947 -0.6778006431360908 -1.7842931434279206
Ni 9.038467277195899 2.199196265004222 6.335087371876363 0.050973148613757374 -0.6452669321744435 0.9617856721683371
Ni 7.790360042047759 1.2062838458372263 4.398113214139981 0.9673947908249984 -0.5283843253520706 1.5836666213186728
Ni 0.21106383365097503 1.8106327462669127 9.282856638570244 0.003077096263426959 -0.35381182001739714 0.038627739674527026
Ni 1.9715353344672593 3.44595316515913 9.800430792606111 -0.8431876253167544 -0.8456214315692275 1.2232982311296803
Ni 0.710815415550147 4.583869365311642 11.930517652566323 1.072522056883656 -0.45096532384195887 -0.33569017071602186
Ni 4.661263907937412 8.309933801737985 12.450244018608526 0.7493809264772384 -0.35592115305091604 -0.45293941684919414
Ni 6.334328964551398 2.0067920262083483 2.8646404247817863 -2.0423995049211925 -0.11493165374358916 0.22779048411854963
Ni 2.09239031636149 1.3850737482629836 2.755129181717683 0.2001012457333973 -0.12350474012458085 -0.8293237228504686
Ni 0.6383893657898853 2.3852927745851367 4.136545001968179 1.040552445955595 1.2130966080063301 1.622289218786877
Ni 6.595026858073452 6.632494029700721 2.5167488110632172 -0.598462313116079 -0.14695808605151464 -0.96561018812075
Ni 3.4082455229166277 2.6212684390872716 12.506664899151065 -1.3314478289544294 1.0924272804480153 -2.137376312809409
P 4.690388598990058 5.597665732524645 7.189534961018217 0.23099664976067313 0.23969674863783233 -0.12746449610327726
Ni 5.420781097281119 8.60184663089125 3.569169383517553 2.351056582778822 0.8918470381956706 -2.078301361024124
P 2.7207215362257626 7.222738403660008 12.530070089109094 -0.17258247148783826 -2.1062127427224113 0.47249625593519917
Ni 7.27977618381932 7.501850796987023 11.544033279763799 -0.9525250728020178 -0.5539277210388137 2.054385473638475
P 6.7494367396625075 4.369637793748463 1.8334450836696923 -0.030242086713993074 -0.3534166414615075 1.0321799056211836
P 6.372526796894183 1.0877410813971593 12.438832763028737 0.13998371161621054 -0.7194507145767093 -0.9793229097211521
P 4.497938115845101 1.3362582133706786 4.029794546544347 0.34765557060801416 1.8108261567214425 0.025028660833853668
Ni 5.373001435808279 3.5834931082026067 7.455733157420236 0.013015438423061456 0.14270959518780582 -0.17327872622391446
