# total energy = -340857.36762139766 ev
CRYSTAL
PRIMVEC
9.37872348969454 0.00000000000000 0.00000000000000
0.00000000000000 9.37872348969454 0.00000000000000
0.00000000000000 0.00000000000000 13.72670984306278
PRIMCOORD
 96 1
Ni 2.923413782677871 8.705331202320126 6.182414237928526 -0.2939218285299841 -1.817388897540625 2.4493154038524207
Ni 4.88420475855232 2.237800954749398 12.140039229727758 2.488490274279669 -0.4756877662893033 -2.5540338645084337
Ni 6.7213747792686345 0.553813625831721 1.7356462761224818 -0.14285640517831524 -0.570951766400636 -0.08872105678649236
Ni 4.130521155072847 2.6018548669239943 9.69414597039129 -1.9170571973672406 0.9078956070181009 0.8260555936221581
Ni 6.34964907122731 8.03747229807835 5.931379571807235 0.19466361965759377 -0.2775001926388511 1.044095683222163
Ni 2.168379643006699 0.7705512377903688 0.6889225794704881 -1.9035871879052635 -2.1734825716136634 -0.36182209191638337
Ni 5.69300712035547 8.550132084957497 3.7971788110464053 -2.2681701303962356 -0.9631462999612898 1.127708729358129
Ni 1.757854155624716 1.6788384096868285 9.494422300830973 -0.6805753776677506 -0.12191836947406744 2.0681583590528514
Ni 7.339563963571295 5.675919086041069 3.113465174637508 0.27582691870148623 -0.3096523518913635 0.8438424852919338
Ni 1.540652296850172 2.7761021718236987 3.0034039779929627 1.072196298113121 -1.9938331659767148 1.0266944570265801
Ni 2.345403050078227 8.510478841773473 10.524707908710818 -0.4830706890169358 2.0715514438948004 2.4712517989141958
Ni 6.44041635777768 5.661625911345597 7.413425163044201 -0.4320615449589204 0.6516556093096068 -1.2295688946297405
Ni 2.728523907237004 8.417338738164078 3.023266238734477 0.47547410761660047 1.1636062145856865 -0.5787131555136098
Ni 0.47073783046754153 4.247061173948121 9.208412498834125 1.2443923327958182 3.853856867468731 3.43445954824104
Ni 7.935394270922509 6.848887904701455 0.39758284887821027 0.418518259056847 0.4008750920537871 0.35820557820971854
Ni 5.176548950437174 6.710017145045396 10.864896720931284 1.169433877011057 2.635834797136325 0.5148284410445069
Ni 0.08024529659574578 4.323675966656324 2.6548690396822736 -0.657562461712345 0.9618748894480339 -0.16418987654876885
Ni 6.662682727271092 2.805973406341464 5.830461692754957 -0.409022917971902 2.8368086752826627 -0.911518805592985
Ni 2.6483076846842746 4.460248939041785 1.599299330974658 0.1719273544023426 0.6738699406231169 1.3056488656134546
Ni 7.8054989497071094 8.867658149583384 3.9117277269112805 2.9818893418058066 -3.0860688992392142 0.7756928248988899
Ni 1.1217891242291642 6.379248322762024 2.4124965626349577 0.807174697557255 -0.3260205088367417 -0.9788904501694238
Ni -0.19034025664508375 0.9432369852184225 5.690942863301353 -0.037497996945458 0.1573206602327613 0.21110968102875902
Ni 4.923604776200399 8.035127617189985 1.8262560001171542 1.2721196235077574 1.191556419941709 -2.5521957828584303
Ni 3.6750059308049234 6.76776194596404 13.730003917149661 0.7460935139752183 1.04452891410484 -0.2315512367125625
P 7.395658109144529 5.057317237902056 5.657957892563839 1.6288123646173753 -0.5095749059550514 -1.5491655022180093
P 4.9057664440017215 9.099106289435632 10.49051495837962 -1.5000702873532552 -0.6674918050109149 -1.2207914055474265
P 0.925104161100166 4.831899617294683 13.85629030554169 -0.6844739413912083 1.9970262189927155 0.48899245381800943
P 5.75356553834015 7.656996240961648 13.180044008826055 0.36371982315972845 -0.8261327267169966 0.24869792369517815
P 3.5728059802428866 2.705911804749616 5.14571827249989 2.0254482217788343 -0.3124134595762684 -0.6996642759784015
P 6.736671477384324 0.7788664140928652 5.636077330513621 0.8295996022196745 -2.2051585625607055 -0.05160615421206596
P 6.899045318265351 3.079794619208237 11.811051427047188 0.8176542569323403 1.1480749517193067 -1.1849013765190368
P 6.641777552470432 3.581875205919081 3.143677794692619 -0.22484914210203855 -0.09789963796196686 -0.3954467219493641
Ni 7.087520146795652 1.3753147793262528 10.194059134088931 -1.588263753771052 1.836676285015327 0.0399207474543377
Ni 8.795929671846535 6.560004461807828 8.40202328260128 -2.3938780488197224 -1.952690373189818 -1.2766787036333498
Ni 0.38526858485251936 8.210172113591733 9.519501007612918 -0.2575800566761564 1.4636423835435244 1.008091497213412
Ni 8.973506423607718 1.6910119928592175 1.50753602398291 -0.5686004925596401 -2.390464652262799 1.8732096040546709
Ni 1.0067215649517827 8.287133919071415 4.680217521264599 -0.568056447130712 -0.4562651387883174 -0.14248076700645138
Ni 3.4963975194528607 2.3729483611547346 0.014021191712420372 -1.5778014207871471 1.356762139349502 1.6369658469624453
Ni 2.999981681768306 4.726501522000916 13.097381815170582 -0.07404134328713054 -2.234632403650106 -0.3073843817927932
Ni 6.854515138833531 8.594681021836424 9.624538022049878 0.6404111467440391 1.1942601920261173 0.5055254184760261
Ni 8.836192532061531 0.34290582843390294 11.770475317465506 0.5840631069716135 0.9913564438469186 -0.5784401043578812
Ni 5.203381478523618 5.433582248143256 5.246939084322945 1.382809214145541 0.3208816449482796 0.6958382173640919
Ni 7.695767884131645 3.8690329636788716 8.642761986005585 -0.43445627044334206 -0.1272950604049485 -1.6218104793782455
Ni 5.072520148782212 2.6093390883196546 1.8619870611111202 0.8505402090270836 1.2016040339856984 -1.178095666451113
Ni 0.6284345019124578 8.538258620938818 2.047187777248909 -1.6481432037355035 1.381727293935272 -0.36491050103371997
Ni 7.724335476075479 1.8872992981095493 13.30328231206321 0.0400637007901052 -1.0749610053424519 -0.2802834118109431
Ni 8.221895518033557 7.619537619089136 11.67013329203941 -0.5612803047491429 -2.1343678650003883 0.24375677763981893
Ni 1.091711557793223 2.850466070879071 0.5761565589531251 0.8341846504871956 0.9302202386572302 -0.6044385853041719
Ni 7.981237471651814 3.7193391570421213 0.9612403829516414 -1.2408555232871534 1.289507737077218 0.25434715156115556
Ni 1.6095859149680913 6.243828933373638 8.646481587766885 1.7401596434438158 0.7265235622630908 0.31250653351070695
Ni 1.847767978331722 8.152708674379694 12.880650768318423 0.008322146712450183 0.20745717187783624 -0.3193076155929404
Ni 1.2341180962289362 2.0329321174476522 12.128591559758407 1.814105855913979 -0.1784286458559701 -0.25750215225036943
Ni 8.629485464943308 4.666346389129034 12.425225579796612 0.904266752016262 -0.1140947596645906 0.18426556425272136
Ni 7.513361089740433 1.6623506136798485 7.598365150667203 -0.44089971207584067 0.837540454333306 0.9195733004663452
Ni 4.750989369198996 4.669103733853751 11.48907797171225 -0.2913869779232724 -2.0067241630067696 0.0974412102683096
Ni 8.9748194449052 3.2886212778495425 4.8407109280731575 -1.5750243722626422 1.4842366627551082 -0.5240059937787169
P 8.984057487605357 0.9372664898042907 9.329522769697 0.8961654630653662 -0.4497358223102319 -0.5087606375838721
P 2.839793083475235 3.7850277368105445 10.965939337006825 -1.4848706967946814 -0.08447410858468032 0.24894372115739702
P 5.898138561916713 2.7701935759850205 8.709968043244956 0.8738894252759852 1.0892560818088852 -1.3699575549938536
P 2.9427433319215486 0.7419555096758741 8.145361382347915 0.5678713277030994 -1.04949988495687 -1.3432005986149835
P 4.534762897674012 7.0600780016782325 6.727268369149628 -0.8194185479216146 -0.5531242513009119 -0.16821596698902644
P 0.12946671354900638 0.8394567197376281 3.500214659939118 3.045274233820355 -0.3496944554149139 0.25683700786254476
P 3.500964957823395 6.690734489419485 2.2495740664260544 -1.964637775359681 -3.897165557558694 0.17627868939250285
P 6.810932210480609 6.708366489699987 9.168796770544317 -1.4209520437638496 -2.222696057223837 0.5762433538168786
Ni 6.4304749108110135 5.575641773807491 12.83204459563027 -0.274256746000889 0.2245778907185229 0.7176913086834414
Ni 5.212188099940315 5.416597379787942 1.6583927923402892 0.4170159634797076 -0.6336704855860957 -0.4462959433907475
Ni 2.5744971303185564 0.6817290985049854 4.516389978232787 -0.07084160540291026 3.163349832509565 -0.491940737813056
Ni 8.984113759946679 2.685044144843171 10.593821598320964 -0.59694073426523 0.3653589014250482 1.005223688747314
Ni 3.6176831724461853 7.4327322033513505 9.320778985728111 1.8620281335165545 -0.8496256676326142 -2.6371311473502455
Ni 5.014193867003254 0.7916327325938328 8.571780992535944 1.424259767980844 -1.5984903165950664 0.7621670224983133
Ni 3.461668106134404 6.727658524049451 4.5492380196064195 0.36761581578002495 1.0535758547984566 -0.7535491989223151
Ni 4.933377406143103 0.29747247792388415 0.01654313047594535 -1.0410854356409296 0.21410321643944416 1.2801990580817824
Ni 8.301774106538364 9.021863122249348 7.657253217987013 0.13300599474679672 -2.063545799981504 -0.5000317423513065
Ni 6.26902956356178 0.03529307460401947 11.995236427424137 1.9222986482718378 -0.21656453349574314 0.2480055256138439
Ni 4.65651748684501 3.797970375314317 6.869696478649513 -0.8780708103471845 -0.5504636737496132 0.8869120627878984
Ni 1.5848354635105144 2.883488556510798 5.582639239450725 0.4576975003594698 0.13241027014432682 1.1527795562838274
Ni 5.213182244636982 1.348313434215846 3.9240682513629213 -1.6115720894796892 1.2768075159017303 -0.11096675555857019
Ni 0.4864528196537165 2.7099915494953706 7.8896326650881194 -0.32936885648368436 -3.4579038953069094 -3.1791263786175312
Ni 5.238973734408994 5.002001526383759 9.25613988512532 -0.8529207934441182 -0.9000213464763468 -1.2140954815844898
Ni 8.713875219477327 7.013024945610531 5.804284737444899 -0.9339236556507464 -0.9126668031544992 -0.39633992318759487
Ni 4.665577333797651 0.9081164791277867 6.321644202696682 -0.5037181900639583 0.8645527212560918 -0.9195869273131001
Ni 7.624611508531557 1.6247044173362664 3.7432605293375727 -1.567689786274442 3.7315973126051603 -0.5932406597058235
Ni 4.209358705263218 4.203337564741898 3.548985898161813 -0.48832268144449453 -0.5673928454047841 0.5033032140137267
Ni 2.0153751469555776 5.9177307154198875 11.52598887612924 -0.8372026113779131 0.9952208118983313 -1.9408771826049733
Ni 2.5593598705032745 5.7086133163484245 6.4312796052919 1.3840438578835905 1.2242803925372916 0.6763651962411448
Ni 0.18804059362977574 4.764794850269688 6.75776891601783 -0.12169391216808718 0.47968248927099316 -0.7175331858390224
Ni 1.4861431555574713 5.596340616689973 4.515840385032554 -1.8256246551868558 -1.1572406773789747 -0.6667454137631936
Ni 7.222601902136114 5.005687364740267 10.506451285441656 0.749899775095186 0.6511321327059688 1.5937623149917777
P 3.3683685642245997 0.6248480780256153 12.256414183068493 -1.978891714175534 -0.7473358710227517 -0.646863330127286
P 2.271986402101754 4.295549174719501 7.871018712451571 -0.17030344564567446 -1.8900307893770676 0.38806045678762197
P 7.092753474538482 7.617558708419356 2.2587164461459657 0.014612093486219996 0.8200117014209233 -0.365104619322397
P 0.7189813884593224 7.924092909040592 7.179110885274016 1.5751110184391777 0.13889844897183176 -0.5254324418125983
P -0.05666062047586383 6.023522717102899 10.536718302093378 0.6023760463481884 0.0619702710552094 0.4987842430974506
P 9.608127131576035 9.358315451006117 0.05445380682373506 -1.2719651002077643 0.1493235009598977 -0.5211500123871606
P 5.091230702271362 3.8936708704538066 13.560534134028089 0.07019214474436944 0.9065709746694064 1.6012066870849648
P 3.800727720039034 0.9081361744472489 1.871458634027758 1.7535985425575413 -0.9058238120907368 2.685301536407885
