# total energy = -340891.59804322536 ev
CRYSTAL
PRIMVEC
9.09482467633247 0.00000000000000 0.00000000000000
0.00000000000000 9.09482467633247 0.00000000000000
0.00000000000000 0.00000000000000 13.31119523277837
PRIMCOORD
 96 1
Ni 6.697019674199968 2.1529541978198545 11.150242403109393 -0.9361628293939104 -0.6979370088746497 0.2746565525424689
Ni 4.933123889269176 0.742415091246451 5.85519542005667 -0.7149224876890525 -1.4247395358307398 0.7609411205110121
Ni 2.9811289389877 1.6837612841134193 4.520535345803028 -0.2765871939062785 0.5275880547030204 1.005993734144119
Ni 3.5343125592028666 4.851652449214471 4.923012263119051 0.6887072627462655 -0.7414179628764199 -0.7578203154938432
Ni 3.8341052672318114 2.4891625841228606 2.243695083253413 -0.35200022072995507 -0.04612533360315282 0.374725944462245
Ni 5.041961656977892 4.6429989799428615 2.779510316655399 0.42613180973804676 -0.05755594403759765 -1.3708147607878265
Ni 5.200848245251582 4.531887506048203 11.12425939829891 -0.48092613187010724 0.5930141455173142 1.1061366596143078
Ni 5.591807476512094 7.899373694976067 12.448683247303437 0.3476247173700788 0.7398853282819774 -0.13050431137086557
Ni 1.8626110126996887 6.531466579389093 0.47709085951392655 -0.468848888990599 0.84752199102605 -0.8765669721081486
Ni 2.9386561074342867 1.5354065028930162 0.1522028015694928 -0.30298342451162014 0.7835686281025409 0.7373679611767624
Ni 7.893698524335953 0.041380543101686595 6.816263740380506 0.28321781184891864 0.05893611221457592 0.2682390790518993
Ni 8.401126081265204 2.5532083399685006 1.3370565605736262 1.6058727251020666 -0.08461706192044782 -0.5210026881760188
Ni 7.2486753638581805 0.5754259236085343 4.5598568205827235 -0.7725028572066825 0.5470585047228063 -0.16494552376787078
Ni 0.8341982435956458 7.672130403928188 2.5353570179614255 0.9525772661961918 -0.8686785704990071 -0.20814134242905447
Ni 7.61606990420758 3.7689226582932003 3.6039398089937595 0.3751735735226248 0.4851867069186741 0.14939240652462013
Ni 7.470316242863896 3.9821235399366945 12.419491588323353 1.2726515847518276 0.3397885091551116 0.7385612101539152
Ni 8.426446073351864 7.3598959756497635 9.097350376602988 0.07746091049164078 -0.5239571428186525 0.03841485233277255
Ni 7.096573514843343 0.7944347603334018 0.20255629876338452 -1.7951002613457536 -0.07024613791075644 -0.8348243409537236
Ni 2.2456304619588874 6.5298022264609825 9.413863919923356 -0.5621675924501028 0.2734692171025871 -1.0247656154349836
Ni 0.3515659073653391 4.993613568640002 1.4419089760796207 -0.3946373386741913 -1.4104747983816095 -0.28467896977547746
Ni 6.548992306670341 2.2827828210371948 6.564203401054298 0.06503862556788799 0.4892027700566027 1.1352716293070513
Ni 3.1519479373252195 4.494844284866821 13.847104409388242 -0.32019053241852596 -1.0253489987422792 0.5960117946930574
Ni 6.110412573051441 5.869045019176485 4.732036404701912 -0.05021158785738449 0.1723418162319419 -0.6725735904091966
Ni 5.4502192449010565 3.1226898861245056 9.26571013432979 -0.08180170395883976 -0.6205288059978151 -1.3313120747075136
P 0.3428085006195614 5.534637408172745 12.399404758394262 0.03915250182974547 -1.0157698396942765 0.47505193247751737
P 4.286781979203558 5.890608848643968 12.637316278866583 -1.213856111880174 0.3977146920479344 -1.7959896059292426
P 2.4738378044296057 8.626032002353934 1.2615576919281546 -0.44894546519845263 -0.05041830455155187 0.5006940585256537
P 6.395126061655212 7.895990420171383 5.722749306278072 -0.16361600632316983 -0.08592266810574879 -0.9604345574570815
P 4.944183196157604 1.141964384477455 12.304163753677484 0.4793127646364003 0.16569062946401142 2.7259460494021246
P 4.184556149083564 6.28603363885367 8.141353330556278 -0.17611388167986444 1.089005142140344 0.6261443524123796
P 5.037750753121526 1.0326264014078324 3.7065285226210287 0.0877869750079972 1.1492905692939626 -1.2395643152795555
P 0.49139065245855873 5.708312181479808 3.807280991132531 -1.3498003633196882 -0.26261556221753485 -1.1645657502854783
Ni 0.7565584532054903 9.084292936718356 4.542019140812765 -0.4982774786643612 -0.044899431615851707 1.290317891683339
Ni 2.02760022837645 6.790087015802984 4.71011332965705 0.5448452991215713 0.6719608965258621 0.5085860596792209
Ni 6.152621654687285 5.968087660636158 9.027133782168699 0.08248304629658053 -0.2974154435055394 1.0436827640544604
Ni 8.685994181889619 2.4797767249872886 9.7896657162659 0.7107087067180211 0.5075121098887517 1.0778074736523116
Ni 2.5979639725326007 5.429510328959489 6.997256209676409 -1.2027142363307415 -0.24563085473408017 0.2834440689271119
Ni 0.49322144067948 9.391316030418597 8.872950127770013 1.3385636140636044 0.09172539083045494 -0.12306765258716225
Ni 1.6564495254078728 1.182700104504808 11.273663722294746 -0.9741570492494964 0.6767418628542731 -0.33232922466358894
Ni 4.032454300068728 6.754508061405349 1.374340794610718 -0.18126020176749427 1.222527928622559 -0.8582383490022896
Ni 5.785909226193668 7.925248471372097 7.78216414109071 -1.0207801484246741 1.5738421790290829 0.7513725029859705
Ni 5.173818426113093 3.1321394090332846 4.538624952218389 0.5633374443884879 -0.7889198651121252 0.6074200365299991
Ni 0.5850064119936234 7.641353516995265 6.671704229525679 1.2015757518509242 -0.4434944693862104 0.563191662839243
Ni 5.222812247007791 4.807615307805128 6.888690377227532 0.4440896797680481 -0.5356181240963486 -0.1554761508248548
Ni 1.0538355327103077 7.351346840390619 11.4997010395816 -0.11143675321645323 -0.09031462652585735 -0.49610721048591977
Ni 4.9181265232666975 0.38627721548241795 10.364136683276335 -0.5697641738504381 -0.42046972635626295 -1.5023084326551548
Ni 8.144533790769175 7.2834903529773385 4.455309991188121 0.43575442042947526 0.2894725345093789 0.4634914813334276
Ni 7.527286225058881 6.519070333263332 6.984197860309301 0.5231698710306667 -1.3566436114937668 -0.8816922091498558
Ni 2.374849731918395 5.226377418307349 2.7737733012070276 0.3562021746264446 0.07833919933153605 -0.4193806070571422
Ni 2.5780554011684846 5.04793695683455 11.492300580687594 -0.6638966314604889 0.31170820597912774 -0.15639943397007258
Ni 1.0735349231053173 3.4461746126109754 3.963421851816077 0.0704950206967689 0.3361699385659178 -0.8042482679390794
Ni 1.4293881308548702 1.1415005484155227 2.6805422527586247 1.2044836695263386 0.16947992130311457 -2.0338724412867877
Ni 1.1900123435988004 3.3264685293334537 7.928972802104671 -0.06909891168019068 1.155061667449785 0.3228583090586762
Ni 3.8805525371982528 2.801715331267317 7.190681304397046 0.11609584925501942 -0.08263859803783832 -0.5404248014563725
Ni 4.231776479153226 7.019713150933729 5.80213712198398 0.09003026251621915 1.435646412551231 0.584464199064774
Ni 0.6253183131879168 9.278449255348391 -0.1180517346566303 0.32836664047141517 -0.35085967936760865 1.687195432541959
P 0.584246084645044 5.706284035561948 7.986623986672965 -0.3338667443540379 0.9447341160026892 -0.2779593916634568
P 8.48074217707218 1.949020942590263 7.731874307670024 0.18056394703141804 -0.4353733829409728 0.9806413714222595
P 1.8069506852678061 3.2572387233838636 10.304369132990166 -0.36787164054457294 0.07039783299727231 -0.1546773090726433
P 4.169495119307878 6.500062149548849 3.381176628614663 -0.2125415283792791 -0.6113497106017084 3.1662135272106053
P 7.079566192572491 4.272439440582629 10.131177294876998 1.0848762075736347 -0.12025975082472191 0.7904141902694646
P 6.601041988678945 7.964865527955967 10.353208341864221 -0.41126054905316917 -0.1870259006066779 -0.5778423228728823
P 2.5700428605692216 8.761754072005237 5.76525215075314 0.22269507187351323 -0.5593553198122884 0.1315219540021025
P 7.052345382114382 4.214796441356605 1.474573948629351 -0.9727115750522215 0.8250320374536502 -0.43839622892769664
Ni 5.198547254591409 3.332261932695236 0.18542073946364435 0.4568899168565099 -0.6338262944376698 -0.625854846196419
Ni 1.6847162407115153 1.27860503142788 6.864770078668938 0.12972629555426046 -0.3855186642023748 -0.6028396162481682
Ni 7.181500988300684 0.6283769027492473 9.141356595608203 -1.0660251363054027 -0.04990716924308824 -0.22957534393311432
Ni 2.7690467207876894 1.7158660154589331 9.067320174781528 0.42563532971760243 -0.5476323749484053 0.39050917543843067
Ni 6.188582591724158 2.2372086542461553 2.185631903124226 0.25850513959358706 -0.6553101753430586 0.666764182816271
Ni 4.314093737909103 7.049607839866507 10.6542279417511 -0.3156034272684758 -0.6440402588561941 -0.8586504968390438
Ni 8.319363606818698 7.266392082459047 -0.033565360199363625 0.5936785185741905 0.4430645809376434 0.9747193495108698
Ni 7.821876693334389 4.277932714727868 8.067728905290497 0.0688194327665589 -0.5328292484973017 -0.8841977491805288
Ni 3.033715215656188 8.491992475280227 12.456376559554196 0.6680759596491591 -0.8190328824474217 -0.9149388870181275
Ni 0.24471535886313797 4.915880101554986 10.017300084777759 0.02571565959854926 0.25424764986881376 0.9276090262866282
Ni 8.83092021418162 2.35537771214198 5.730682721902064 0.24311862983518773 0.5599870398590162 -1.4092548099315794
Ni 3.673272386462954 2.494101073958729 11.257716856589017 0.6260384229621347 1.466368781335752 -0.03113580217285605
Ni 1.206210226467458 3.185062194217292 12.671392768216545 -0.7928575096036344 0.6577473240296414 0.365224432729713
Ni 3.2760104416550084 8.658555095637661 7.9518417389228855 0.2967680397295276 -0.49312215971566686 0.12210734555642197
Ni 5.864488511979855 8.040843693865435 3.277136380958287 -0.06826844535909532 -0.2561885756452684 -0.09152407345292625
Ni 3.415206734358433 8.606841922144575 3.644206236064334 -0.26535481552556883 -0.6811032251467625 -0.9594228283631153
Ni 3.466901718202031 4.389517119509201 9.20861828148324 -0.01310542703370646 -0.12093337985297883 -0.18199090928593173
Ni 7.469052062224511 6.302104194175916 11.32561790864354 0.02144171481354372 -1.2194338630782675 -0.5303080247373447
Ni 8.20565101304732 9.168401875948755 2.1743170316605 -0.3674618067006639 -0.15721138834840664 0.47771328135976443
Ni 4.711473915438718 0.0679092373967941 1.1201904645583913 0.07159236752600573 0.8546789137858055 0.5432419591901935
Ni 6.02352971227419 5.830446582963918 0.38311585440148294 2.2529376297171972 -0.44067216944606685 0.5724661461626335
Ni 8.53239168679206 9.034562435019412 11.098329143471943 -0.9277833470809634 -0.13365159875059562 -0.1271042845503811
Ni 0.2538292827388715 4.851479647544339 5.9193157534652086 -0.28897065517229586 0.23899869412954322 -0.0900091794702966
Ni 7.699633153953354 6.3690057249911005 2.299402703773963 -0.6284115511800016 -0.4446488947056278 0.13432059979316222
P 8.657209061575582 1.7961915075959243 3.4538288171153337 -0.6317231320517379 -0.42940482406236374 0.649322847411372
P 1.746661092041344 3.0864288198710885 1.8221163055280454 0.5608545300656341 1.086230150498368 -1.558114483881181
P 5.231215865071036 1.2562044780839705 8.203157212102578 -1.1197570786112199 -0.8252922330935721 -0.7429513688018108
P 8.491856052909071 1.7779018150361994 12.29439318345525 1.5189537545213194 1.260345770801281 -0.139954658150488
P 6.598604575647615 7.965120183048791 1.1208680290018023 -0.02602727730169711 -0.7074156377890461 0.8002872264088023
P 2.193198797311044 3.3307249073135385 5.853039037109921 -0.31340487695526026 -0.006506176549633956 0.6343677687634365
P 7.07479140958201 4.208257262365833 5.693464880085602 -0.04331331807565443 0.18168854755416453 1.0053625283180234
P 2.3348052185715686 8.620566012682927 10.172348657009577 0.9012827296872736 -0.28266990976524864 -0.9614362592487182
