# total energy = -340857.36187489756 ev
CRYSTAL
PRIMVEC
9.43827312887854 0.00000000000000 0.00000000000000
0.00000000000000 9.43827312887854 0.00000000000000
0.00000000000000 0.00000000000000 13.81386675938531
PRIMCOORD
 96 1
Ni 1.8900330293903898 1.0984073262409102 2.0474917365659477 0.39210248806747955 0.11073098539868026 -0.18032329177552173
Ni 3.9281619992166528 0.3098830395739514 8.519798719487941 0.30580675289302817 -1.9663776408689235 0.5279919750096584
Ni 8.391936548544543 3.268521104623369 13.95352475674648 -0.12309362072909123 0.8636569489146998 0.09208251705955754
Ni 0.6315082344914927 0.7361682991081112 6.046135926490202 -0.5864179803570352 -2.080722054650475 -0.35217916950998057
Ni 7.258088507477508 3.004806320879901 8.141257907362418 0.8611606648554072 -0.6314912185465898 -0.5211973206853282
Ni 6.840312794810787 1.9722120717315503 10.168083601536013 -0.9559412975724182 0.3587545087346531 1.8773328821944248
Ni 2.969535494966393 4.284334104514503 10.968845552875022 -1.061674572646191 -0.09199150000764802 -1.8941535532961895
Ni 5.262280753438286 0.7453451318712111 2.0517870945732364 -0.6182965742331867 0.1894360527100673 -0.009165725659668085
Ni 4.735332537870427 7.269433311531037 10.110797060202156 0.23373975972344907 0.10474854256300024 -1.567801886372274
Ni 6.889731591835976 5.86422548565285 8.166606276951903 0.581666838825295 -0.10256104799337822 -2.166270113025624
Ni 0.8430539084799894 5.6177355499939825 12.02754040196483 0.5895922643199587 -1.5602724107644483 -0.1067311202106678
Ni 0.7317285355250995 0.6525640775555671 10.293692856732676 -0.49226701080422314 0.10292023110500984 0.1344339854425749
Ni 4.3570371208409036 2.3635134288490627 10.961759297564384 1.4165073777289348 -0.5404463987229273 -0.24462401073612064
Ni 7.653844729414709 7.569230612659397 6.472501411344209 0.7944737050508189 2.330968039559063 1.312129845352108
Ni 0.9509437500908821 2.9195315250199743 6.114279313167467 0.5239350313314655 3.0359503853162684 -0.18645742969771759
Ni 0.10720179151480097 8.94102695238992 0.7725773807361418 0.43401686891307834 3.9434947796425375 0.13120262298947083
Ni 7.065802573215826 6.394231701647783 10.271811164787833 0.22918093670817302 0.5942858131408862 1.9099295851835234
Ni 5.031675431108943 5.455954113819659 11.823232939481034 0.624177458493996 -0.05718904761648214 -0.9672006725363212
Ni 0.973680549562555 3.604287663861544 1.8243001776176764 0.4902299257695364 1.6130224487729703 -0.3339721595836506
Ni 5.376153516255112 3.7310436692183595 2.590058406166901 1.3767483526634419 -0.31766030979750454 -0.6550625781086267
Ni 9.318369103854215 7.059847023001369 13.7052207850318 -0.7640868652288454 -2.2451353600639594 -0.49755294179351084
Ni 5.721537675601894 4.52765278047122 9.693452676608018 -1.3173165317593698 -1.2467369217685949 -0.5642555853273831
Ni 2.536847311081223 2.193199793952285 8.817653624048733 -2.0422537233719473 0.2913134443728596 0.9613035903255961
Ni 6.658843121318942 6.6117650159786745 1.177578391001489 1.7331369322690797 2.9362214074550463 0.13566631518777925
P 3.5638446643861945 4.681421122933857 8.559389442918338 -0.1876866741191284 0.22209471928535296 0.10486938441158067
P 5.950057139615239 7.837702285956091 8.04815217645822 -0.5131202001041486 -1.0313355553430175 -0.5397432020083156
P 9.256265268020421 1.7513659236046617 1.823471497255031 -1.4770586569494304 -0.5659422290011866 -0.6119611189334622
P 8.444724809003267 4.474958902741726 6.620737982046635 -0.06766012235113508 -0.014779729412335834 0.3813195385193627
P 0.9556251334607243 5.083906833465207 0.21384106196338704 -0.15361672901861284 0.10829897891841996 0.8872529910670849
P 8.925274474881318 5.416228423086462 9.95794706169493 0.1159068731726649 0.7279027019988045 0.39481654456453297
P 6.278433531154651 3.673338068566716 11.687898487864441 0.13102315998881306 -1.2978016016548939 -0.151961452803377
P 1.1561506799842456 -0.48103573693359014 12.473009895042418 -0.19659426102140337 0.9906974701066809 0.2072568829415721
Ni 6.172753189235048 4.202070117717035 6.556792739165552 -1.1857688667256545 0.5071084466924298 -0.026467964383541515
Ni 2.7471697848988903 8.57261340711085 6.525284008839178 0.2643880807369253 1.4280297765462373 -2.117276970956373
Ni 4.936122356035794 5.93271903225556 0.15839026471306505 -2.270534516863354 -0.502016119771187 0.6090868827094607
Ni 7.566918235793245 1.4677269457205957 3.4277730836543103 -0.002351530951312079 0.2873135791848471 -1.228182555805175
Ni 3.789089047695233 3.692393941598392 6.646445006007198 -1.0842190336056101 0.7215790737736218 -1.6727129226550674
Ni 6.031075274386861 0.7899343646416654 12.401647113471096 -0.25313333375871244 -0.03990223551157644 0.6719781229170426
Ni 4.610275421639765 2.437509488565923 8.250331308397863 3.64915077597347 0.7648234862845538 0.8454851631016793
Ni 1.2509109401318572 6.659418855967249 10.026712430557827 2.44127684981866 -0.37545922308384366 -1.4990498165085409
Ni 9.313027041379756 7.673731170463616 11.32038063468577 -1.5021991607707998 1.1204762161654318 0.9837961150011574
Ni 7.044273872678306 5.892483674784518 5.284163389210421 -0.5960968982076961 -1.0696509059834483 -1.6178108713005492
Ni 1.2161403426832715 7.710880212688815 2.421363435076429 -1.5231744774708864 -1.2634046122322629 -0.6640573254080692
Ni 2.739062308457974 7.343854093529435 8.298970504079607 0.31393169599300774 -0.5157416968873956 2.3726147685655716
Ni 0.7702583970789437 2.367345367655829 3.760023886228643 0.027391504639075404 -0.7854288212397311 1.472275119517858
Ni 4.4543362764048196 7.833672143417941 4.834604292475265 -0.19820094338689093 -0.40370407686214993 1.2145446533067663
Ni 4.494515004238324 1.1158115015110492 6.008189350203003 -1.7805167071046242 0.7196237498194638 0.3758446314477205
Ni 3.703087504820229 6.4727486940947925 2.4496405007539432 -1.3700048632920212 -2.7677717271886593 -0.2356079232804394
Ni 8.489433907839842 3.509433020984702 10.80197405611329 -0.24309908945116196 0.013456125504905856 0.5890137661086694
Ni 6.742154756410871 0.26443492396749774 8.745959559097809 -0.006756859107859331 -0.38252898544643155 -1.099438678768842
Ni 9.458470827124248 5.455265119896275 4.829659581290869 -0.46908491626080506 -0.371692814062876 1.5112268181907071
Ni 9.131047701150067 8.384017837562087 8.786102421494206 -0.34611496559377164 0.7716564500459872 0.2654121511260655
Ni 6.652113632724794 2.249508530211314 5.5210989611892645 1.7072448949936663 1.5320247287726647 1.5635060872103974
Ni 3.249776694598154 3.892164426288068 3.4725161602734103 -0.29163766048149775 -1.8975780055967062 -0.7781880805169179
Ni 7.170680661936967 1.3790354950625172 0.8180113389332108 1.1468338802233538 -0.783438787392896 -0.018643326132800148
Ni 5.50418368845654 2.704829692566003 13.638333632480595 -0.7706262090092599 1.4556801912736543 0.25347066249347316
P 2.8581072448366416 2.385013814567814 5.013936197150036 -0.7094694349942814 0.12784013427514113 0.4324153287539134
P 5.3291414788253055 5.5454666942220445 3.8683941359313194 -1.152240910171538 0.5790430280492027 0.0307143983647213
P 1.5482637285731422 5.230436020595851 3.457362069268131 -0.08701461561834692 0.20176089282400736 -2.2153303608873847
P 6.809298629985583 4.667197645638793 0.7836616884569938 -0.4625016066163325 -2.7563406025335824 0.4960624732909134
P 1.5586552670614413 9.409825968478753 4.217014679063422 -0.10603023748890125 1.2333769555219212 -1.2295508969076114
P 8.290446799802782 7.025784296022014 3.8205977780216065 -0.59473318509095 -0.884134242932445 -1.2391010024898919
P 5.10605846001565 -0.07233586750969222 10.6802326051605 -0.47715175242933944 1.171105351176209 -0.7731800857793651
P 4.144241819517392 8.422648688636208 0.9367816215698171 1.9543060544163697 -1.871640459795338 1.0476497191220087
Ni 6.340688379355213 -0.0188954223919839 5.34740264927686 1.153867904252 -1.4993066697143533 -0.314114244317459
Ni 7.2728688428750345 8.696537930590743 11.021669678770854 -0.6258180794212126 0.5026992618811407 -0.1774482842205718
Ni 2.250225838953467 1.6822872040807206 11.767411218104836 0.4267349905396844 0.271299720255094 -0.4571118030593289
Ni 2.805545502928071 8.746202122711933 10.94637019356332 0.30327190228631634 -0.4510820519254812 -0.06047080369154747
Ni 5.02668258473264 7.891377744069583 12.471959415266083 -0.22299100584737727 0.12138486556810062 0.9134892990557945
Ni 5.380872652716645 7.8449791943797775 2.7594584162447258 1.7166926706701275 0.4926871290607772 -0.23035464530130004
Ni 2.535384378778147 7.1236497479613154 0.1313911411893342 -0.33909148308808695 -0.8886866381898179 -0.5963131279835601
Ni 1.1304785776334982 4.356112170094442 8.531595616814485 1.2396319352926974 -1.9926311752488135 0.8781625987300424
Ni 7.631910183141498 5.282506972312422 12.63803054648394 -0.18099666369346248 0.4626620434535968 -0.4900658893878463
Ni 9.528785960401112 6.224644813766081 7.979220693991878 -2.7572371462059224 -0.7285166814337195 -0.8499658245808523
Ni 8.59829494773452 5.544475675565122 1.9937417160963626 1.1621735959042179 -0.013137308712906406 0.3201121137721068
Ni 8.310729648314457 1.3331654886564024 12.26685158723841 1.0189652067031225 0.01554308994092162 0.16780459048322066
Ni 2.000508013954911 5.757563563349248 6.783852102357697 -0.0008212103497147147 -0.22457531961536162 0.19823076818356183
Ni 2.7947386804311574 0.1850892511578423 13.861938587782896 -0.9484737855507794 1.8439453078729147 -1.4837455820513028
Ni 8.172657153722882 3.841433709326573 3.7267048951556245 -0.6719773515860944 -0.570184034996676 0.0992965183094935
Ni 0.20425649581001057 1.918564928436827 8.017306012891046 -0.5914280319771169 -0.32683863386266293 1.6675324068953925
Ni 3.0363207141700284 5.598037874403538 4.869954399881327 3.164341764109189 0.7969465920713437 0.4081436006907423
Ni 0.9679892709899445 2.276464237679599 13.491077698334875 0.5475848095399215 -0.5188005383183775 1.2576417416065568
Ni 8.579956383444998 9.00825577042094 4.2524327420345305 1.097592883809355 0.08538479332440778 0.43083281475814195
Ni 1.510831538160251 7.324373498216221 4.699117884664612 -0.2742701157373276 0.4863195349715366 0.5433265484841997
Ni 7.4058918614527665 8.661757894869234 1.894226454050109 1.1933572205958738 0.4799902503193992 0.32558804928501345
Ni 3.1597638857308463 8.603580380571438 2.942367426357339 0.7612236847484374 2.0699329344547706 0.9122996496230674
Ni 4.538912640068441 6.342934688310903 6.923219527994316 0.4958554994864299 -0.054241534952384006 0.3552724637233236
Ni 3.343272226174075 4.243768407491153 13.21981512773483 -0.7658264736277713 0.5794307504059246 0.3995998248857892
P 1.0879780346609191 3.090892808211213 10.430145743690652 0.9377813388339398 -1.3649747570672817 -0.038891534858874956
P 7.884591625837897 0.9903107864530024 6.939106028978426 -0.09494878286375906 -0.049288304712166726 -0.03669735542103357
P 0.7092088163306572 7.794248477418282 6.756651943620705 -0.42779788458656004 0.03065449166106334 -0.5244777912088129
P 7.306119878383005 8.143776038578292 13.226970282437806 0.05656838331334774 0.4328110215304352 0.3629793454492781
P 3.1421237536376307 6.454957549634808 11.407726187625018 -1.1855922319384742 0.6411958474288635 0.6526935636558179
P 5.3986260440849385 1.6864400441668708 4.034215152916717 -0.8429924785868128 -0.42252480911307877 -1.7550640713594743
P 3.2579691154953783 2.5414531882676807 0.5798799377750136 -0.24037860519620538 -1.7641290097752198 0.7049399225550439
P 1.6327834625992244 9.502830709862671 8.312218063954425 0.5968157786515915 0.8175095038243598 0.5893019867730496
