# total energy = -340891.98743200593 ev
CRYSTAL
PRIMVEC
9.07986831057173 0.00000000000000 0.00000000000000
0.00000000000000 9.07986831057173 0.00000000000000
0.00000000000000 0.00000000000000 13.28930507967925
PRIMCOORD
 96 1
Ni 6.459835825442322 1.96880595533928 11.345411387215258 -0.2907506298908541 -0.2813087677516639 0.6525824919992502
Ni 4.722257790606796 0.3519874419960888 6.0064734723160855 -1.2650755721767826 0.5170151642831805 0.27631722807434345
Ni 2.6716149842700943 1.807447619704621 4.708772370535636 1.058619844980267 -1.6677383522586116 1.1633881850376093
Ni 3.7360388393213246 4.3724195533850425 4.801612205671376 -0.9055990976744405 0.33741023873092213 0.28604988198107506
Ni 5.325560545258154 4.669131482475662 2.7633379956321 0.14492305789935686 0.07421026476482703 -0.695044774928519
Ni 7.354066633217875 6.252324520361318 2.9927644703089498 -0.3720522542848238 -0.4175515242682035 -2.2009391251627193
Ni 4.763489471554237 4.4245652357636285 11.815932875037479 1.059343610520169 0.15702061249383925 -1.5471124763437225
Ni 5.566240608432308 8.100976581409144 12.466032361781991 0.28169906121154714 -0.3825474973891928 0.062288059405944333
Ni 1.7550204614155815 6.789689273021855 0.2824456403646506 1.099794519446364 -0.36121993955601017 0.4195109619874194
Ni 2.8081035612359484 1.2800253225907599 0.5973926685186355 -0.18051818139514716 1.0906678745547476 -0.5126455744605751
Ni 0.3432099335239699 -0.01367700528763078 4.652332818542417 0.39116712073740373 -0.42346660420105775 1.4736066938450878
Ni 8.653613672178817 2.344830532101315 1.534901759506673 0.6045550562773782 1.0292295647436083 -0.06941104360397078
Ni 6.9010810946169245 0.6012788520565138 4.9915557819928305 -0.16898369839298638 0.41783100318183525 -1.75401968925536
Ni 0.6032228518122608 7.428194676216095 2.5808099475708914 0.3006555477093919 0.11849957360050559 0.1720834203642327
Ni 7.661374768356867 3.922530249799084 3.8941120786849455 0.7536646414542569 -0.7362808987601707 -0.8279109016633418
Ni 7.737454982992105 3.9694277684279182 12.650195694084255 -0.26477066088732465 -0.3661284326012211 0.13051511000414298
Ni 7.95288393303813 8.898570353218256 6.9165250422327595 -0.3674391809928446 0.12233231708303448 0.836744697904888
Ni 6.791550645978081 0.9576173668361335 0.32513918007283615 -0.021810925227504375 -0.9494729162392551 0.38377005694238425
Ni 1.8632888083914227 6.513062012122326 9.386488868280136 0.8322156996862828 -0.2164490909638014 -0.3021971811648989
Ni 0.24300450940241822 4.99001402039299 1.3205505898016432 -0.45646208529047194 -0.9134070237546333 0.613156424793144
Ni 6.464911471698569 1.9967628691549975 7.070853744000536 -0.7179756726930797 -0.02284296603644453 0.35676344644655333
Ni 3.4784248221795466 4.518678068404068 0.5469358416027726 -0.6839571496557898 0.41987528730537366 0.8222061379690807
Ni 5.9940839923220794 5.54364989665137 4.985708346949854 -0.35995007170465104 1.083021156642767 -0.2549336201922448
Ni 5.458498893805057 2.8018202925251727 9.155905618410003 -0.5065924262879599 0.34017828839436254 0.35077971805929264
P 0.2818926763986301 5.544893838578215 12.502697777072427 -0.6531033974997269 0.1153448300216078 -0.8186832124174869
P 3.896180472633377 6.311289183667349 12.51856484654075 -0.11912100923458839 0.3902510366810376 1.6121001940690172
P 2.373668193120711 8.429713205214941 1.582596490552857 -0.1603995562684012 0.44569944745732915 -0.4949746395433734
P 6.101326314204975 7.750375635268742 5.671357333197874 1.9219587484339158 -1.0048539641127212 2.0588638211248025
P 4.748480449619395 1.2514146582733434 12.64279378562613 -0.4709196554766986 -1.1186720730771573 -0.38720453654522996
P 3.8941647419198047 6.105521213257545 8.22703602189928 0.4628456202193126 0.4936916590658917 -0.08904450156418213
P 4.830108463650996 1.2068688254770104 3.92508895662379 -0.9405434749601091 -0.8305529672718792 -0.6050628491517321
P 0.22576365589371922 5.526098511654364 3.612418251397249 0.515368629818693 0.4351360701191861 0.19649681621159062
Ni 1.4510900372020352 0.9845028562185106 2.8702507183037227 -0.17736678025035907 0.8377762244931959 -1.797528154060956
Ni 1.9027135955911125 6.353628608520448 4.942199435088161 0.3034012287753291 0.9561955796750694 -0.16179309418181811
Ni 5.900134597307066 5.477829932945578 9.01425513644115 0.5631551531743527 0.6117592873353013 0.5697929702058445
Ni 8.622433405195002 2.283922777026345 10.250465555615948 0.23409868572476458 -0.9870143648281389 0.4895848359863698
Ni 2.2511262935244383 5.212561587013073 7.0639693880229215 0.18545727056797737 0.4919888174421721 0.257367426444718
Ni 0.6011807894812589 -0.003931582878274002 9.171002715065214 -0.33400661236601187 0.27370473015216085 0.1688893389069672
Ni 1.5723516753991467 1.0092000973938116 11.387964188968215 -1.7169394965736107 0.2323361945077031 1.0620316988752936
Ni 4.1678047262212905 7.0175122429959265 1.4510727854526848 0.2110662293853333 0.26975860102021926 0.06192553386020303
Ni 5.5042795886601565 7.887545202340533 7.920943681096087 0.17397549518062297 0.3166516660273321 0.4912370268778121
Ni 5.654224530119317 2.958665933724492 4.751165366610401 -0.23833097863855723 0.23297228542980522 0.8993605729638963
Ni 0.636983617304174 7.435022737011619 6.982493007788242 0.5886918639928764 -0.801536268324555 -0.2927964566762893
Ni 5.091944619449581 4.353497108308084 7.050427672769669 -0.5324484681191152 0.2161665267263761 -0.19454380625027787
Ni 8.405006884171561 7.191854789983776 9.159294225177142 -1.0552149330637763 -0.2045309993699768 0.37761612152584645
Ni 4.770326612217841 0.21731665461968158 10.312912348330334 -0.6354391474507444 -0.20836682817629923 0.12389606202572855
Ni 8.131221621980808 7.093020425942177 5.005323585961253 0.11018385464595863 0.4535135441851093 0.3849427370942467
Ni 7.373315953545683 5.960760876471581 7.057803249610367 0.2512690268564641 0.7765261194334626 0.6396701548129563
Ni 2.252115999145066 5.815936980609063 2.612278954359626 1.0940427045642511 -1.51737509718029 -0.5085819459141627
Ni 2.2304968332485986 5.114789567536734 11.516711270409782 0.10634391207457815 -0.12589380918204768 -0.21751507033447057
Ni 1.2278433207398578 3.4516210516098815 3.6946927520360857 -0.696150349287872 0.5117577725389831 -0.5362246473320958
Ni 3.684701265201784 2.9078277523493044 2.769239001896742 0.3139028996376014 -0.46236096727341014 -0.763106503593447
Ni 1.1351923468601626 3.313852213244867 8.167301385780137 -0.6509272157840144 0.06732227939574213 0.26579036040109066
Ni 3.4235914988495315 2.6654679135805064 7.411166291620448 -0.2923817377363738 0.6710538113305604 -1.223527830641983
Ni 4.051228299953023 7.000487490347511 6.189945826657526 0.2563011899637328 -1.4658910703683852 -1.9651676797212219
Ni 0.8550321092910353 7.422692276160127 11.461161545488322 -0.40840945275761914 0.45003587004915396 -0.48337279363838687
P 0.314334137058642 5.547209204938399 8.198012223584263 -0.7099273484673063 -1.0468603904514937 -0.6406816267966063
P 8.648628824603362 1.7002325374259621 8.109292832582842 -0.6035947492466379 -0.5978894713317444 -0.4149644802673175
P 1.595423620188279 3.072200604186243 10.448077988517054 0.6380922688028753 0.8826759132193638 -0.5450561295807967
P 4.04814114480611 6.304669959837646 3.7921696757998515 -0.30752090737065746 -0.8424204081334266 -0.10753664683109868
P 6.668591072450168 3.956861231006368 10.542817332054957 0.30647703948717536 1.1559620677768672 0.6576591351912093
P 6.3872332002814005 7.715245625670493 10.003404161155764 0.02635766405792235 -0.16107267107602583 0.740972133588253
P 2.3612469335884265 8.5002093009815 5.528483792998759 -1.161781759782438 0.5849182558830572 1.5109362835334816
P 7.111842992470264 4.119636026061375 1.5394598532824086 -0.7343489718447804 0.09140451715592646 0.2540190787977754
Ni 5.353916973269354 3.1033899510381393 0.30411928546959294 0.6757722998521523 -0.5211194162595413 1.3085416137802173
Ni 1.4173129279475796 0.9192730839378631 7.09632912987022 -0.05738136613294634 0.8551021173661532 -1.3498888092684365
Ni 6.921992030803219 0.6384400281440703 9.145619943849935 0.06142185475090712 0.07473091315498742 -0.4437263828913584
Ni 2.6940513382936855 1.4134267444097013 9.341398243399055 -0.3645204646841529 -0.6136017398606787 -2.048303786220769
Ni 6.366058947920811 1.9335760671921596 2.597460609654445 1.6970149897355418 1.5331040778797727 0.2866222095447773
Ni 4.415794083199165 6.481291553713364 10.483985234822882 -0.4941678273713618 1.6802349420637257 -0.36598470793450516
Ni 8.093903364175482 7.193570885050737 0.22655632837702944 0.6107267323057288 0.4557249500141312 -0.03767977393896091
Ni 7.660539420493585 3.8796097133889194 8.570896981964527 0.5682001717974279 -0.551166870464225 -1.8034630314881521
Ni 3.0908688129569852 8.518823030543766 12.299012728399981 0.7546696856800035 -0.723084968895187 0.23321576889917897
Ni 8.859926434673373 4.636480276863021 10.469155086289197 1.9826236704141404 0.6235511377639067 -0.1930638792706417
Ni 8.492455093641901 2.2662261141400726 5.937581789239115 1.3465787710585972 0.5843258737146968 -0.9270904347789969
Ni 3.594383817418432 2.5482468166786187 11.041126848146623 1.2059072893467426 0.04777083962637579 2.031995535979049
Ni 1.1593084764783976 3.141461837894035 12.664866944926557 -0.34180553958514037 0.14435664387292557 0.6669014797250837
Ni 2.8414448368226046 8.198975597587461 7.721005893979908 0.4371780402498794 0.508342319099531 1.6015077632651515
Ni 5.559176471066726 7.904324798550811 3.612564437273323 0.3067094672129556 0.2978849269427902 -0.6970602626966511
Ni 3.2457350429150478 8.546670985942534 3.5589686999624965 0.20180742979122662 -0.18597791895813778 0.2908401042808668
Ni 3.5254766985657264 4.297174686613087 9.279616097028063 -0.8522641336967257 -0.14282143817532178 0.40614071132810053
Ni 7.335207747217471 6.173093591502615 11.26650006971294 -0.965708404261511 0.540899684210262 0.5770385960246643
Ni 0.5326404972989515 0.07683293569899947 0.5316317239553574 0.1356899693368631 -0.011004835750935886 -1.0027302329014989
Ni 4.874055025154105 0.5395175893821033 1.681681458953441 -1.4139447592080812 -1.5005410563420867 -0.20553450093382666
Ni 6.091765213117625 5.7848202727018 0.20775010561148413 -0.436567403249074 -0.20227845589037421 0.7615743832196368
Ni 8.007490259666167 8.867907638714948 11.179653855496248 0.010030387652808531 0.21057566290215993 0.9240349357821247
Ni 9.168215195564914 4.825459571194468 5.679782542788522 0.34540534112125676 -0.5660597284156573 1.0280841382852552
Ni 8.070204908488888 8.934753627513686 2.3651503688756557 -1.5387221953974983 0.7251580493741318 0.33870890293768763
P 8.447500666782005 1.6312073802882276 3.6241930243222966 -0.03257202039875035 0.7171488059164102 0.5578052017163491
P 1.9570202865725372 3.1833381894750965 1.515459037988779 -0.5835198328736337 0.014864318706342142 0.16068469160898777
P 4.569307412813434 1.101869231009665 8.206823327568275 1.280919995408207 -1.8932611233889074 -0.44891692595336236
P 8.495396970899547 1.6985346020951602 12.677611447762457 0.76288050362557 -0.5343348865085508 -1.7727542895503856
P 6.411984920665176 7.769407038762651 1.4866213769693835 -0.6218015020626517 0.11994710468030956 -0.7315924921455659
P 1.9893900162747238 3.4262519001967235 5.8742578812682815 -0.7503723438562302 -0.018801448977219234 0.30569053903013804
P 7.057118627557199 4.0218276871127205 6.208231772982135 0.1339714439838596 -0.7193098181234708 -0.4879089909458436
P 2.4745909268205155 8.491211151715056 10.133134592310302 0.30702699845337444 -0.5085482644627499 0.6249778429081043
