# total energy = -340869.6745424144 ev
CRYSTAL
PRIMVEC
9.22968203588497 0.00000000000000 0.00000000000000

0.00000000000000 9.22968203588497 0.00000000000000

0.00000000000000 0.00000000000000 13.50857261007173

PRIMCOORD
 96 1
Ni 4.475306595315413 2.6023918650486895 3.1095656516700956 0.48625371473060774 -1.496117216242778 1.12317998824984
Ni 0.8817733461020827 8.231842486796115 2.2808417479434655 -0.994158689182404 -0.4769038980845916 -0.9151214353425788
Ni 0.8816598210153144 4.661681560934274 9.628896972057591 -1.6121477594775009 -0.32429015640919634 -0.5140028598194181
Ni 9.204964763082891 5.183841581977278 0.8805051878157443 -1.0937814804830648 -0.22405749943867864 -1.5499237205402727
Ni 1.718732894944431 4.032623364692059 4.080844760491212 0.7742692050784858 0.26497686336085974 0.1472434785024174
Ni 5.806263636968566 7.2245980767058935 10.268393015505191 -2.081989608508988 1.5250017604876123 0.6514339802171039
Ni 8.084361400497706 7.468390893120322 0.6105563760035391 5.027213476572961 0.5437484665129668 1.931566189616693
Ni 1.124267546280065 4.0344969901078285 6.670681489317877 -0.6210731085370594 -0.08883264266369217 0.14564708054957498
Ni 3.132480182801772 8.015240313114965 11.150961960182837 0.5411025442496875 0.5389086219221622 0.3086182541998943
Ni 5.711585560540187 7.153704890407747 7.622049405481659 -1.0242405961694492 -0.5811256216098444 0.06351858937893577
Ni 7.521553860582544 7.34907879583141 6.137201263484523 1.3603940796751346 -0.518623389310565 -1.0885202320841254
Ni 6.203786034294585 2.919422206951439 12.620127026778619 0.12951340821250598 -0.33140517018742277 0.5162955125083366
Ni -0.17566207389431146 8.962990193993125 7.146440207822762 -0.39692510626710353 -0.11999698408163849 -0.7788313705278715
Ni 4.513499018815183 4.820958180638363 4.061649791145521 -0.8789472994148668 1.0823439280700842 0.6689200528170093
Ni 2.271129353731574 6.5030953870432615 9.402398733495717 -0.4957056041721269 0.4761932451708122 0.6709193426352252
Ni 8.286906768719659 0.6124733809240085 1.421790955590557 0.5349617214592722 -0.45011377447494094 -0.6420021453802428
Ni 0.5360608448789164 9.029720793776434 12.90604964897049 0.3229516401034309 -0.1083473156578521 1.041271840620123
Ni 4.460354510716663 3.8897755786828925 6.380058190159253 0.16243869818561701 0.2392917998899298 -0.06222018228248639
Ni 5.570408346946065 3.0395742052887997 10.254451581069135 -0.5790116605906351 0.5600909124267321 0.14948959422411673
Ni 1.656026436448193 8.73017146929963 8.838347955435214 0.5974991778718612 0.47884482386104626 -1.1338117569320731
Ni 6.026529994344592 7.132430473741008 0.8697895271866403 -3.2612731246206152 1.0069702391247752 -0.05529131637313704
Ni 1.7309714530789633 2.8108073109279283 11.167131439817744 -0.4515749324014997 0.1014701289220446 -1.2486994448116044
Ni 8.212755504728081 5.316988972360959 7.777033300156811 1.3753676702658313 -0.5113764779401645 0.43411919881889754
Ni 2.76381900062408 7.986056059101851 0.7388674130972543 1.3149855696333481 0.6784786430397218 -0.2240230466563174
P 6.85549386979935 9.022890829206634 7.597072040456267 1.3988721811456746 -1.4200395592519093 -1.0889771171158857
P 4.487895881360287 2.808204540645924 8.298640463256936 1.055894218518988 -1.1344725304445236 -0.5191787475934025
P 8.41509781994931 3.6772067759706677 11.503751781449411 -0.3057460748584218 0.44994793832103797 -0.21150126004022285
P 3.294368802469717 4.075799816391412 2.0879386283513366 -0.7844970534540813 0.013459982159647789 0.3647901734057718
P 6.142574784258222 1.6008698577061384 1.3445071375787232 0.31104434714288365 -0.0003571262291026108 0.29715139121087536
P 8.892216993559042 2.511073392814103 7.366021722805438 0.21502907068782323 0.7042526666800323 -0.5053346426214588
P 4.932729627854942 5.286715615889417 10.0746259976918 -0.7575773462451016 -0.8551309137215595 -0.7890381358575442
P 5.81996971451742 5.976828157576525 5.6498657550338285 0.8746620417759516 -2.59121587287537 1.2345879451108865
Ni 7.611801689722405 4.634463229155438 5.772091662883128 -0.2897013626907333 -0.4398213914099973 -1.0754510576049932
Ni 9.248418105237777 5.568719315167318 3.1476593175740586 -0.67526373564685 0.22763493237729182 0.5025048864821474
Ni 3.5492187777417397 5.726860684003724 7.766158888999868 0.8539132392643746 -0.3249581290104984 -0.8575770612692069
Ni 2.4800893508400272 2.1873884502967247 7.4433719945266 2.404359150856704 -0.3261747750264189 -1.3371705903708195
Ni 3.156597341478644 3.9818231957837145 9.47822241583871 0.05948889939425238 0.12774628900975418 0.12831630258061125
Ni 8.027977274069457 3.2540074037349433 9.290371624091861 -0.010783206658433043 -0.8994845001362703 0.06703740116547165
Ni 8.978957543595493 1.546553180012532 11.342378178028758 -0.5309482294245049 -0.9703294479732901 -0.5780027597101465
Ni 3.400344009483818 1.3340397553914132 9.71516219347871 0.8577760646538904 -0.05123540113620853 -0.90207128702684
Ni 6.986573811448388 1.7825469152627988 6.762837093696357 0.31437186885421986 1.3862508928372383 -0.48205047528253747
Ni 6.9836203132560435 0.6686682988743095 13.055291758566083 -0.22074360457409728 -1.1930337758181842 -1.7862127290481367
Ni 9.238726939294143 5.766603694054475 11.738354603644721 0.6878132901770864 -0.4793747282225873 0.5583060526121675
Ni 7.720342748291107 7.280243828586055 8.985119279199274 0.36477860344154595 2.7361163050669073 -0.13500245635153527
Ni 2.731588951600109 2.119439532509073 5.117317727067433 -0.615937587082707 1.02814558765081 0.009118674471816555
Ni 4.712684782843342 -0.0017831745336286723 0.4710321984289465 0.49017618971346544 -0.07479107696896152 -1.6121387606164364
Ni 6.846753361086376 6.092512989897964 3.633616834524386 -0.19944689997885007 0.7357188556091135 -0.24807288851666953
Ni 4.246835050773777 2.3262490137462244 0.7718607568103103 -0.7755483289012256 1.1816939253253327 -0.5106360002297141
Ni 2.623860105034302 1.1238983590060219 2.5202403128285957 0.5380861260208668 0.12467562050423045 -0.4553572822620674
Ni 7.5066571540749 3.3375729432146226 1.6560559714301166 0.3811840413827629 0.5855018963006691 0.34916403683274055
Ni 6.13580942746138 4.5836446008833915 8.31136542562502 -2.919626993431475 -1.4407811626746347 -2.5660730550611546
Ni 9.419536406756801 1.6580754258191328 5.065809641561111 -0.5570328423266987 0.9667666703226964 0.8517108322964171
Ni 1.940679054417354 6.586033308157067 4.16269357914659 1.3142515196808011 -0.03624664103686016 -0.05734999867437865
Ni 6.798159086140441 0.2217975615951204 4.942813978245432 -1.0657549133631514 -1.2381211550751257 1.2165606552955306
Ni 1.374244249534718 7.0594606090263685 6.541120753301525 -0.18385264508501883 -0.3201959317351647 -0.9174002040744266
Ni 4.980548609525388 0.5700639157864805 7.1287302942869095 -1.8025106948772118 0.7514241821595123 -0.021505992392575866
P 1.7958653461739074 0.2395010143536771 6.480116248138627 1.3944797085049339 0.7336637728522978 -0.3269278511423595
P -0.04542111032553531 7.521258510763309 4.320014429266435 -0.901933475897395 -0.31059800363408446 0.6067309808827744
P 7.324777043517516 9.008649430110419 10.862945123178958 -0.24846163931465595 0.751607501814912 0.6684017184196941
P 3.994070983600098 7.946248441278143 8.890207691820063 -0.411644157644833 0.1855529156055772 0.010504241965433522
P 2.6562470586497415 5.25034143971431 5.822869680555029 0.6093843593452215 0.1564588264530983 -1.060323200824619
P 7.500177917415442 8.23555281890025 2.579880671013905 -0.7097250026485131 -0.7921581695437647 1.2520513920029726
P 0.3758769474488662 6.796479284043544 8.325590211293905 1.1543960088413279 -0.11899502517968538 1.5051271330508724
P 7.053165966003931 5.409341168962866 0.5724802464950932 1.0677683442487547 -2.0005301183809157 -0.8249962991197082
Ni 7.179824890046303 5.353086258080533 9.972041775789787 1.940241605903504 -0.4866206111517233 3.856615918271107
Ni 1.6702309168170053 3.774247650952923 13.250355546679549 -0.8147825918115 -0.1854279599919387 0.6282621700863309
Ni 2.789034491441231 1.1185636028960975 12.782932153854375 -0.9358416986090656 -1.078142231283911 -0.14128983202214376
Ni 1.625946903295523 9.120743916191786 4.2767733697941255 -1.2200735535447955 0.16844556650132925 2.354508031662532
Ni 3.5706131802725434 7.952718448255751 6.593358906642268 -1.0542227443538361 0.1047732251533486 0.8779345418796364
Ni 2.0398889046346134 5.838373700128474 1.6903950027570598 0.947279251022046 -0.18978160897494412 0.8877538419629033
Ni 1.0278819787092357 2.036584678531927 8.940526994303966 -0.3501258865253776 0.709968486117887 2.3698228076427315
Ni 3.9419232811414955 0.3006116608578634 4.754706601343125 0.9834724131131513 -0.05792926821661636 -0.39065032900198526
Ni 3.725810280598455 4.828674194665865 0.04485440785987899 0.5648248275672917 0.9070378870034961 -0.2810339168237225
Ni 2.399975712372652 5.214585652223226 11.393467235979042 0.7516527532305507 0.5244281689178001 0.982125926387586
Ni 4.836085629192282 7.453955670705233 4.716234518483268 0.05893199844951787 0.4816853786336349 -0.8349482681260976
Ni 0.9498357889765026 3.118081879114087 1.9013319977180143 0.5557382918849914 1.250740129390717 0.5834105609892791
Ni 6.610815003927216 3.5987452505546353 3.8032030088561317 -0.1380625833340977 -0.031150971681507645 1.3438102071745244
Ni 4.540080502546293 6.841455523703857 2.5114056613607416 -1.358547770495015 -1.3918996064825835 -0.3120486200376819
Ni 5.652949391740274 5.120775165888848 12.08771375216725 0.4122398822473029 1.3813789094569178 0.5676214164758224
Ni 0.20842006072016492 8.126144170237545 10.747096002520571 -0.13411439731962707 -0.663120929636729 -0.6808288884394533
Ni 5.385436292968569 9.06462745053722 2.6750349990258004 0.6352617413326157 0.8706228387095715 1.1961679505717915
Ni 5.496847782592957 4.547556544845668 1.7866033604363485 -0.5059398803056254 0.37667278377597063 -0.2148238966555526
Ni 7.433188886540303 7.332502287226871 12.11937802169375 -1.0539440367711526 -0.606156339326227 -1.8827003171539254
Ni 8.448638483796135 0.7544314256027307 9.155664417475348 0.6676391292220566 -1.1985901868600388 -0.19888022884210266
Ni 5.049328198679636 0.7635162014487489 11.297962180056805 0.3022545167653956 -0.1681905130677297 1.8507882989366773
Ni 7.484201338131223 1.4383720790360226 3.3184075088508544 -0.06566006120197078 1.4082677634279617 -0.21558082942623516
Ni 8.570534892003348 2.480523145887028 13.420347827012742 1.386223896254045 0.5979583768964669 -0.8381495486722147
Ni 6.28817301545901 0.8430779049414294 9.316754669663172 -2.7970272816196666 1.1100617057003268 0.11255723997414165
P 5.110982473444852 2.1087977093347776 5.277137052064366 0.7520173356588209 -0.2633393277574368 -0.7020479457192297
P 4.4620527721772625 7.088174149265079 12.763210169674988 -0.4419484650553292 0.12108918870455275 0.13611291580689464
P 1.2138877570540527 6.878808046155178 13.444541592048978 -2.267892708365133 -1.0098035948085127 -1.3427380571562681
P 1.0398344167063844 1.2199885767576166 1.1034140031057347 0.9060356709912267 -1.083006758465064 -1.589843696663662
P 8.865478605236463 3.4467139311036443 3.6163794806993095 -1.1336276659457252 -0.7933321352472079 0.7108837988433048
P 1.7543133184803448 0.5424422469107532 10.76367066518874 -1.4869599752235423 0.34240383529077156 1.2689132007553179
P 3.552818353663661 3.0118020925989 12.16841347543217 2.212380277120125 0.8427507948896518 0.2752970143399452
P 3.056316848166659 8.229387391423726 3.0315259227146583 1.1654625510681347 -0.08549535076034308 -0.7705110235876342
