# total energy = -340896.66070785996 ev
CRYSTAL
PRIMVEC
9.02390043052089 0.00000000000000 0.00000000000000

0.00000000000000 9.02390043052089 0.00000000000000

0.00000000000000 0.00000000000000 13.20739042990852

PRIMCOORD
 96 1
Ni 6.34759186524195 1.8171518033260876 11.472705144298455 0.31358613972813093 0.520739150101987 -0.2279789459802719
Ni 4.606890544248365 0.2179696016993542 5.880312656515009 0.21456884322195302 0.4873250934179156 0.1981520924268265
Ni 2.8012532375530936 1.6263143623006167 4.777099349460321 -0.37797427619621354 -0.9898644326824243 0.6900753467383858
Ni 3.2058488260634976 4.323928106276184 5.176544095747473 0.10724405529134434 0.636776121094613 -1.801789243330155
Ni 5.183463622406179 4.659860838310193 2.5902329413830434 -1.1461700213871098 -0.0327018611083953 0.710154376876448
Ni 7.366841390673525 6.289730617282079 2.5217659035405733 -0.16029594081100138 -1.0449305204186328 0.8473492128936118
Ni 5.06702823837215 4.453682766977208 11.582775069144883 0.03496983120696558 0.08089359032227358 0.06344248472536171
Ni 5.652480834307959 7.835353264165175 12.26673346184531 -0.43109069640521885 0.2952104654344206 0.40712184429444725
Ni 2.009595498583757 6.423419698461972 0.34531488105207997 0.3516307532056783 0.09589134928268647 -0.5123946347920336
Ni 2.784685356820979 1.471617641499612 0.314263640529636 0.11744799240753967 0.4274548994248445 0.4470850149509461
Ni 0.44198160695983263 9.04068463522689 4.803752341034599 1.0135442927978673 0.1819644269233705 -0.09046195073699904
Ni 8.51185701292617 2.3636933416818975 1.3625665149836055 0.6841687514459637 -0.1863216754508017 0.1382263626054716
Ni 7.039995726121672 0.5164044189216903 4.884238311527996 -1.7936203343661177 0.35942736643196166 -0.5805545795977227
Ni 0.6180442162191316 7.114289496310943 2.1522895297541593 0.863527622425687 1.1291755437116424 0.17118841935378903
Ni 7.553049570906198 3.9241963999632805 3.938787144165762 0.4231066497584777 0.342774588366629 -1.5611900374827112
Ni 7.588369116214203 3.763101733934025 12.628073887228634 0.2674412657409523 0.18397425826454766 -0.32332702116497863
Ni 8.039934105166141 8.867173082548728 7.038086268843396 -0.20145313177560145 -0.39879635514788736 -0.10328738463644146
Ni 6.743903513386295 0.7993713688439621 0.49464599080552724 -0.1988133801599092 -0.540501677440895 -0.5311734580614337
Ni 2.029610509184972 6.375917887909765 9.0872786414209 -0.653865472476732 0.7090284908021208 0.5594918453901525
Ni 0.12265285125866278 4.716449716344556 1.3206929109742196 -0.043533918726892766 0.1868415525100137 0.7216160976591443
Ni 6.246370776912902 2.103182367359772 6.677299910931179 0.46359046880513705 -0.8671119973428356 1.0301947568703547
Ni 3.355600449565374 4.3098959414949 0.456538962731645 0.4629885735550801 -0.09336704019893596 -0.6134718991510338
Ni 5.891975145108791 5.679354009046651 4.8603330975588 0.20031670417831307 0.06792623152832818 0.4121352383486386
Ni 5.393720496620926 2.800513277738261 9.329449441015385 -1.249104393559507 -0.36492567054237157 -0.6523364374267152
P 0.23067435076402984 5.562142569597065 12.536837744449743 -0.19504208604293505 0.13282987418024866 -1.0930769982168722
P 4.129426961777272 6.030654443088715 12.627519819757527 -0.6160147201775455 1.8929888435641267 -0.4202648094343085
P 2.4830614932747164 8.458047496147518 1.276301638814365 -0.7074642316387945 -0.0874676439953655 0.6250837723583492
P 6.367047394031949 7.794484020245921 5.897667421342898 0.16047951757671716 -1.8005990796767957 0.30228871243744065
P 4.659499882302957 0.997637284498342 12.481842487187324 0.49213279921920405 -0.40737329818362095 0.5262662505678034
P 4.0747691983816186 6.111797353515282 8.04577076380314 -0.27180417069533835 0.8482503845516424 -0.04170817837206365
P 4.920254501929967 1.129584752943322 3.8963125484043295 -0.38749944207782944 0.3441298168429428 -0.2470619307536519
P 9.311491879655414 5.543264570418643 3.539990313911599 -0.6478745450006197 -0.6791970092629851 0.11974861551625829
Ni 1.365722172876863 1.0650187471490509 2.4626106282947644 0.17406394112937118 -0.016351187664513774 0.2575286346129307
Ni 1.7451861993834865 6.566277062225648 4.753749105352249 0.4217851027335768 0.06062327010901172 -0.3438991888893755
Ni 5.781585774195959 5.6238570229341756 9.347860904554455 0.6216189537382005 -0.18259974651452424 -0.8427808767966389
Ni 8.40060134759597 2.458895488590292 10.185209357309693 1.0441028823110148 -0.3376946027405604 0.7863004252114071
Ni 2.280808818520419 5.25563677605294 6.976671408992291 -0.24475899365208814 0.17447814584865434 0.9449925118703983
Ni 0.45867040795437136 0.14384728561352014 9.153341712255182 0.8507734080838121 -0.42872271039367454 0.5041519351672672
Ni 1.4791525981506557 1.2129836384151114 11.216270265688037 -0.6937301698821536 -0.9377790248410945 0.4849041426812488
Ni 4.057849385542449 6.873784508689852 1.713329124574889 0.8627552630360369 -0.18909666709277753 -0.6020225196635116
Ni 5.7167580752964415 8.032579626518716 7.999768725460998 -0.6672935729571797 -0.30224886033844073 0.22748683683520174
Ni 5.06581001184773 3.166062450165952 4.845064658452733 0.937555853086695 -0.9609834879820159 -0.9122343436027709
Ni 0.9386931685167657 7.360696114650337 7.05592922667107 -0.6861754974633474 0.0924409288402408 -0.11228187482556791
Ni 5.064149614214446 4.316366077924598 7.1565303730576915 0.4208631051399397 0.8166343003082581 -0.22208829152744977
Ni 8.470996792907098 7.053703030496444 9.41284110736703 -0.39315741169455515 -0.021495450869614595 -0.7486545898341752
Ni 4.710593205127158 0.25911858652421454 10.196012770606256 0.1806451938913147 0.1917780705796826 0.05076643191958999
Ni 8.194450347963528 7.14699211056649 4.7290777622576945 -0.5767735152887357 -0.7001381302910266 0.32987587802708995
Ni 7.259899149629791 6.135755808495547 7.2355896649324905 0.1919055972964824 -0.4418430498257164 -0.8274247060555427
Ni 2.4038587213870413 5.130836236551225 2.5100249070152167 -0.5101644599099343 0.14098412785626688 0.9978271391729265
Ni 2.3101816136092173 5.183219977101295 11.252075296825774 0.6933411619738511 -0.17806354920706752 1.012123758301257
Ni 0.9425824694947295 3.3009697578702637 3.738338347057625 0.1024718307136816 -0.1651501835795091 -0.46642819536424834
Ni 3.504594065452056 2.765617855738758 2.8980047881225466 0.8694231619745156 0.17617250283194177 -0.8746281032142227
Ni 1.1402510029571344 3.3565569829845487 8.188885308721973 -0.4486341046056209 -0.041208355917509674 0.07721691280163476
Ni 3.4008553089725395 2.6373250668670387 7.189720277923006 0.11397263226442951 0.07290311591762928 -0.9887174635621747
Ni 3.9221479746222188 6.923244505581312 5.866009774728297 0.4524840744793304 -0.38730172424472653 0.969473527730898
Ni 0.9102047156456945 7.348351419202879 11.400579817322651 -0.006335198189408445 -0.19315798164634476 -0.25932120773697914
P 0.1904097081568967 5.433759541723537 8.075090317880873 0.24164024551744837 0.6320298646588793 -0.5994167066095483
P 8.557626234643644 1.7007615387929629 8.016528815266966 -0.2578788188634978 0.4431185741040304 -0.47548310647766495
P 1.8259862016031794 3.207157291589726 10.388695599218721 -0.47827249629734414 0.48629073861613026 -0.6477179648180974
P 3.8896890056715554 6.149219467565435 3.8667935661326003 0.04688997968331924 -0.760057175244162 -0.8574443923460846
P 6.775703737623753 3.8972420101229606 10.437060997018238 1.4975992001049434 0.9133095789448207 -0.021584411038995086
P 6.464288942381224 7.707457526901414 10.151464482583254 -0.7076285251308007 -0.3233846138757914 -0.3336623416527157
P 2.3272006893503767 8.496642717221187 5.692173361643624 0.486698001356878 0.818963205551751 0.4320803140119978
P 6.894981650214763 4.081970270725969 1.543243946795412 1.1103987773247717 -0.6487492342960892 0.18177236551722242
Ni 5.202476980087315 2.8903371801388444 0.6038893263953868 0.03435559466173438 -0.6674576093388698 -0.6168845243770086
Ni 1.4316237158979057 1.0866490358826453 7.016980268710311 0.08582059531024575 0.029482839950465356 -0.40161968352929545
Ni 7.048938411200934 0.7258103393493794 9.218190166125114 -1.2179307961701797 -0.32760276572219704 -0.10309455189934504
Ni 2.8326203145818694 1.5929259316313222 9.294713742049083 0.2706065508428114 -0.5062077892550314 -1.0926090574415184
Ni 6.428400891361823 2.1402615732030505 2.5910261422089436 -0.234829393243202 -0.5511717555602313 0.9756945689399453
Ni 4.035659614997639 6.939198761101126 10.374946784903115 0.13179963314352142 -0.36092991911941713 0.43855280911021893
Ni 7.974916904362826 7.3009849671533855 0.27323557596719955 0.8076886610791961 0.3224986117264123 -0.5290080749789986
Ni 7.606723729182134 3.6837275079429124 8.153397016480586 -0.10764051939881461 0.7154971292456 -0.3241456604115321
Ni 3.051197224763397 8.419181558068423 12.280336991368003 0.6783372323658511 -0.6269473079296493 -0.33184817126211236
Ni 0.15162318039939343 4.759511768007765 10.153326113190573 -0.13007108048818888 -0.023526108146398193 0.6583551328169694
Ni 8.515962887508474 2.2612450029282485 5.702739446365428 0.4641211444976264 0.8829289097704341 0.39886320383008084
Ni 3.6192066216495458 2.6608954941395244 11.462125523726378 0.41829894395718925 -0.05506608773620839 0.03910930729663587
Ni 1.1681619262166287 3.156957334883433 12.634717282541805 -0.44461598458516327 1.2298866829804755 -0.09797137174016676
Ni 3.1774235404936926 8.379972711782454 7.861540622490119 0.19028991606993034 -0.08767436068953287 0.4696819264148557
Ni 5.575136985857547 7.766419690683352 3.7739060496206043 -0.39397862204426987 0.7632291452142403 -0.6905764547445203
Ni 3.0440593197203127 8.3275348278313 3.44109287987913 -0.3491730356938051 0.19834595360518745 1.0780337307305048
Ni 3.394610770047364 4.2786822707692 9.001086858843125 0.2762038424249308 -0.5093597046204518 1.3997419853451376
Ni 7.270240539237092 5.9432489459366105 11.292582682347772 0.3732951255529893 0.04671154512392601 0.9684543424377644
Ni 0.7239090035812658 0.06334868165986894 0.07310532253544769 -0.5452715880257126 -0.6190259962000435 0.5555130632480626
Ni 4.507961526565263 0.40633088451518873 1.813730842767512 0.5613952330604525 0.26786292665940326 -0.32204121247401957
Ni 6.15352386795172 5.802024908105675 0.5073687876705647 -1.44498671611555 -0.15119037896530738 -1.198570132255381
Ni 7.954919941561973 -0.3172550634396012 11.376595193031863 0.18650653776809817 0.8083592047836595 0.33331215740214853
Ni 0.24981223826766225 4.864883850420023 5.740618169764734 -1.3350617715579332 -0.27267860288049167 0.12829419109342421
Ni 7.943423492731518 8.797147617145018 2.4929083731521042 0.15135544378826193 -0.36854218424903623 -0.3788823898327798
P 8.41924472536969 1.48700339130803 3.588447755492963 0.9188099399377595 2.1792510986663243 -0.7936095572783107
P 1.9192391860725013 3.11902085852297 1.5324008283380537 -1.4568659840516394 -0.2542571629505105 0.5042190409597768
P 4.8067609093549075 1.1473076928985908 7.997880023153138 -0.30209407992813136 -0.9008546410109195 0.7483432292413434
P 8.52900242326986 1.6699900391761264 12.377490105495506 -0.8008767803636853 -0.6798816940348354 -0.0007913855530437984
P 6.188112477345073 7.8839830622399925 1.5003858352762907 -0.24507009713460373 -0.1010968047430259 -0.23366776883493304
P 1.5788937668500376 3.1186959981164577 5.921005031990716 0.45205084359665376 -0.49993429754149377 0.3124959919877457
P 6.867548993664856 4.043510408155014 5.8989091100077875 0.2869510536391058 0.4020264320494108 1.5561923271578038
P 2.390593588121132 8.434774857581003 10.043401473137056 -0.01872868675775484 0.4831802180116066 0.2602095238792035
