# total energy = -340868.4849411214 ev
CRYSTAL
PRIMVEC
9.26935536477240 0.00000000000000 0.00000000000000

0.00000000000000 9.26935536477240 0.00000000000000

0.00000000000000 0.00000000000000 13.56663853714352

PRIMCOORD
 96 1
Ni 3.090078637833539 6.148641467562945 5.066542488565436 -0.7236796650563924 2.1162025069452715 -1.617398209243163
Ni 1.6581300885563177 0.01515539595595769 0.5240207568316659 -0.6192885058328109 1.008462764509902 1.0030431361562273
Ni 2.5746746737117556 3.7530322000146095 13.22056726853795 0.1100658410108556 -0.0960049920424153 -0.43300925358417036
Ni 2.8616261064998794 2.934372007088476 2.7850408389357733 0.07186773267457945 0.7231908983454319 0.4448946921678467
Ni 1.97127671949217 8.141858751108787 2.686438998604333 -0.6498617506339776 -0.7254591255543184 -0.44221534556347064
Ni 4.610679301436618 3.893935670306054 9.449000992551515 0.15043318908430867 0.6567155403310174 0.9230535457054618
Ni 3.108654425904327 8.265845647932572 10.951967634584799 0.2306698625488737 0.5591635155164563 1.4619164019913533
Ni 2.9555710227161676 9.09998566425103 7.198715750848994 -0.04544836214078624 -0.613434361044879 -1.3720056957721338
Ni 5.962929933631683 2.112995893052193 10.095071350944094 -1.5756578920815831 0.5411369970320488 1.6816662751936133
Ni 7.965648306385389 3.3838893935619736 1.3981775070225781 0.17397292407746168 -1.4222136840850925 -0.20772122417250033
Ni 0.6760446727062075 4.019452010758423 3.0052278861263573 0.2527859777216227 1.2794670650117643 -1.8244997975537935
Ni 4.186495063065649 6.282991503639796 10.241401101842644 0.5097659389199349 -1.1191886077022597 -1.5361955723209029
Ni 7.1306091626004315 1.0366198140321814 8.687708839730227 0.276166304318776 -1.5299264514827393 -2.4940094043256855
Ni 1.2673804148417023 2.6675628834210228 9.120864887120018 -1.065759284238526 0.027642187197300782 -0.811147566162074
Ni 5.5791971618979 2.6824680067832123 7.578106756548667 -1.067925181541593 0.1875689175943415 0.3636079801722125
Ni 2.7489200151063073 0.29175017803974407 4.4154249661985325 0.11684198339242459 0.13426969195056876 1.3628538540695367
Ni 2.7780257908260064 4.23145143639066 8.092200960763064 -0.40293223169313186 1.0818795868391562 -0.3363368031610853
Ni 0.5598820387120385 6.40738625209787 4.393284184069847 1.3427748239314745 0.5284576017921673 -1.7762612742623796
Ni 5.173458940623172 4.927811755162111 4.35756379639041 -1.2982286618899836 -0.6311253505667388 -0.03578615646067385
Ni 7.279437931694534 1.4024627299892076 11.755031210241517 -0.13448283640263936 -0.8702322881393721 2.553431455037744
Ni 6.088223809556259 7.564683803102905 0.8191403455319547 1.9588067705002006 0.19344414542819588 -0.5635320768977972
Ni 9.072084904723546 4.9867370469615135 10.328539530443974 0.09615463024640214 -1.2015569827978467 -0.4085804311178447
Ni 5.641190610309794 6.62915557824239 2.779899127537137 0.4865365360783491 0.20949888489821336 1.068137040442083
Ni 3.931467290015946 8.404598627788676 0.9401341675213806 -0.5924058225093539 -0.8450645306244929 1.4397812606552107
P 0.8385754028413471 6.228033495919385 2.119800526796088 -0.727395937565715 0.2604380949502418 0.7385121020835346
P 8.260942158965781 1.0186650727681508 0.13519818208906478 2.204809920972035 -0.49450824142991606 -0.23895704225833042
P 1.4589872587595014 8.036113945564098 5.812639387202869 1.1493247649660077 -1.6824280930603024 1.0499997074114238
P 9.150772462075304 0.7688355541845648 8.688115764428982 1.4810590363580751 0.2730539839420394 -1.3885211769286538
P 2.528902597118166 1.9509397539096802 5.979251414487494 0.7335509014235173 -0.3704782249294845 -0.12707137442991664
P 3.5662454208656773 7.661326101718693 8.618125643178432 -0.2067143801745408 -0.7784796436154077 0.7041014858141487
P 0.40770054379697634 3.6134079007579785 12.405333956275376 0.13629623546229427 -0.6691658502792281 -2.0022897813845
P 6.280915168047053 -0.09082207040738169 10.476443217876666 -0.12470544530090136 -0.728713627935874 0.8825756401960736
Ni 5.956941930091899 4.881891368883325 7.440297397064621 0.31942948588278536 2.236355299878484 0.5184336418972619
Ni 8.90734065253686 5.841195490151811 6.343244167121703 -0.5694186175855613 -1.1043016632880982 2.491755318184186
Ni 1.6037838582873394 8.895512955142484 9.420714627842523 -1.2246783993066586 0.454264820528837 -0.8241843447413741
Ni 4.455111711021427 0.5265401676089315 9.362187918322086 -1.4093537974032888 -0.2687252746596985 0.05569935044483311
Ni 0.6849997968854433 8.292967781612775 11.920693128605354 0.43155812295994067 0.5334414281600038 1.217445371893329
Ni 5.775994844797556 8.04277861204259 8.664917348857744 0.8842018629455869 -1.6190699405186308 -0.7021739297741326
Ni 1.8101382465268074 6.171675815544936 9.627714163212593 -0.28135299072603803 0.3070881907086131 0.31605619853517825
Ni 7.46461184301696 5.776476851274443 4.4691631267582075 -0.9463348848309056 0.6746872943180897 -0.9160187503458675
Ni 1.8076725980104251 6.969081376711429 0.3716121627111475 0.5567996432699701 -0.7606845244155157 -1.2912506879102537
Ni 5.011004219201696 0.1804724943017156 2.998240646082565 0.2892480772033986 -0.7542958472803525 0.48238317603160796
Ni 8.608533714288386 8.152759512970686 1.3317653569273793 -0.022145425748787664 -0.22415237314533007 -0.15617420533314394
Ni 2.1672401604125993 6.3148132004696444 7.253810018092679 -0.4990716924308824 1.6045563202834883 -0.40365291190924035
Ni 5.091582725039702 7.315644033592986 12.092800029726488 -0.23535749783253013 -0.4510113465885458 0.2998453931032707
Ni 7.7555305598840745 3.5905682092378077 7.725305046041146 1.874453503764101 -0.7313945172021469 0.9589142641578131
Ni 8.770311772771157 2.1264920744050215 10.346624042682551 -0.20342568212094 0.9295872330589215 0.4355867845033595
Ni 6.7466261182728795 3.651931341487618 5.4403440730042885 -0.18947976146380915 -0.2512885672404898 1.3262634565400127
Ni 2.4859298658326487 3.964911124027625 4.843927797215301 0.8805704368405867 -0.03171867125951956 1.0751502385351224
Ni 0.17955204731796848 9.117606708723368 4.704679833784855 -1.2912401463872925 0.6806951910750665 -1.8317991594286838
Ni 2.4549516803373526 3.9591548543709583 10.805922452894718 -0.2006532615821254 0.7679090671884129 0.2656142398345426
Ni 0.5267922940737646 4.7362605273762615 0.5620260405986519 0.0808838201302607 0.5368178008314046 1.5782745037688237
Ni 1.8236251585243108 1.1877659219574694 12.096394685721425 -0.31801383648218134 1.2923092110817551 -1.1947718415552133
Ni 0.9006300289983834 2.460040556410637 1.0626602139459869 0.17691786563839854 -1.1998569693876047 -0.6095807916267438
Ni 4.95308928713269 8.491943763013747 5.227727308307423 -0.05253972176992887 1.0812182991060733 0.6641144038982498
Ni 4.365022846620233 1.7431115381735778 1.465196799891548 -0.4646284231513482 -0.035856604687293084 -1.6567587133186563
P 2.7755230648883247 1.752835091909235 10.159173577692366 1.225251241090993 -0.7335555294092077 0.43677823370829943
P 3.6080224053143017 0.44465560960566874 12.946100730436724 -2.513129155874272 0.8772495999974698 -0.760857045437638
P 1.834479573609587 1.1690974403334333 2.657609449673312 -1.6954360752841962 -1.4969679942788479 -0.8588528426578369
P 2.6401255916597783 6.197620741098897 11.7872107041869 0.4942166783314263 -0.34653456962969353 0.8337290510070158
P 6.8820699382780495 3.8858991392395 9.802330278820135 0.9095130880168658 2.0071561083378655 -1.067233811901523
P 3.9171739441051896 7.6034853244922855 3.5165134756773564 -0.6807733526111696 -0.3308647243029205 -0.12291441483874962
P 9.17582752951809 7.412443911249296 10.275969308655217 0.8567149703792278 -0.17882022486743399 1.3398491656442475
P 9.0374545932303 4.200046860550425 4.830034887454573 -0.6087960909419192 0.5474066320908443 2.07990547228645
Ni 8.609182569161119 1.0487163227309733 2.5123790443162757 1.9942067472660496 -1.164783008502607 -0.4308258727796064
Ni 5.547273502159479 0.09982910297643617 12.961986551592272 1.6854979902348781 1.6468435110874735 -0.36925643670724145
Ni 7.972127585757385 2.546875877092846 3.947688661834249 -1.0479374255657565 0.3599436439467478 -0.7962570222034867
Ni 7.762732848971401 5.833881968800587 1.7385241342233617 1.7072932317330984 0.9880489767402403 -0.2010960055464988
Ni 6.622787531134289 1.0571050892998672 1.3594853640260287 -0.9274107942328931 -0.5406744555733335 0.23354564143477197
Ni 6.058432101542529 4.445777470209409 1.7810417401624334 -2.39261306606437 -1.114968398973325 0.7469772021317521
Ni 6.968553023457919 0.32934482936584386 4.636480551983046 -0.22635400878233924 -0.08989527960025162 -1.281072461825671
Ni 2.9671762555827477 5.359819329427165 2.5707694943134407 -0.08197525342222656 1.013735582873067 0.28316433290316395
Ni 8.146669546522329 6.658882400768846 8.787287670112894 -1.3897982438688645 -1.447963539355687 -2.5024850458968646
Ni 6.650391671291379 5.91132743253883 10.562048495107282 -0.32249886883672846 0.07727579106402821 0.34382642666991103
Ni 4.737141116132111 6.730441823875875 6.624575589776433 0.3827922664101472 1.1497016886894522 1.4859420754819892
Ni 0.9051812824628331 2.277906993634727 4.6638168077712505 -0.3075196218190768 -1.93333690836387 -1.36343209517051
Ni 4.741173285698375 4.628995547558314 12.157607654414974 0.30955130753712495 0.8697471209728376 -0.8707537078604811
Ni 7.464546957529687 3.8674160447219594 11.995554296079058 0.5821630617354232 0.6244826484392406 -0.0387048727693656
Ni 0.740940356270278 3.0061075479466757 6.861788588827508 -0.010778321562426599 -0.869120286022116 -1.1277190137707738
Ni 4.34278566319617 5.975758721401131 0.5125749568766711 -0.5947522112543434 -0.17104520890770541 0.1633270143278413
Ni 3.269755821448391 2.0725815038363056 7.950172190735194 0.5324906342109604 -0.7668148056829697 0.06775011096178009
Ni 8.211035949897356 1.2810619833010255 6.248725477810812 0.08585813341640053 1.1075032009445314 1.8022780100411155
Ni 4.208908364240881 2.353201966937629 11.698199865809974 -0.6106002340301936 -0.7332629378694532 0.33770925802857965
Ni 7.418913921265968 8.074220265304124 12.156712234690604 0.9892887626846123 0.5857965447229524 -0.5409325943307265
Ni 8.814535867025514 8.19168153597929 7.041451868409373 0.2761704180838341 1.2562875415715073 0.19153844376505078
Ni 5.857120242599723 2.837692631051388 13.306199426899008 -0.02772343405719742 -0.3380486436458694 1.118331659018603
Ni 4.598795987910296 1.9020439045716515 4.970897572582589 0.5969705590619009 0.42110967393310705 0.08252521238842561
Ni 8.9140609351473 6.120471896731045 12.505198282802045 -0.41126029194285296 0.5267588739335057 -0.2592962680363147
P 4.013788434655004 3.890552355612522 1.1963641759567027 0.35535448191416863 0.4697498035383136 -0.06985070224455067
P 6.905827295975371 7.102662056296326 6.792164607112286 0.004028661543418868 -0.9907874587173259 0.30505753343182945
P 7.683896981934447 7.8468337098328105 3.484251484469582 0.19331327627728642 -0.2866785167040095 -0.8093303104476772
P 4.081908926936553 4.722912655708629 6.376035438518518 -0.23583675146179384 -1.1240356513819156 0.12055337080574077
P 0.5101528743303153 4.616435571093285 8.081348399548853 0.2130025271760977 2.794228892938923 1.8113372920299065
P 6.75787911563712 6.048208002619336 12.878999867240896 -0.454048847863289 -0.7631185877783051 0.4828554876823361
P 5.905969745161127 2.275839927397309 3.056319645740818 0.43192759048421747 0.5541771180454584 0.7254573257821054
P 5.856082074803351 0.8968777939629268 6.735089478635702 0.8798705825600847 -2.125111122288811 -1.6827757062077084
