# total energy = -381174.3317017816 ev
CRYSTAL
PRIMVEC
9.18871272072879 0.00000000000000 0.00000000000000

0.00000000000000 9.18871272072879 0.00000000000000

0.00000000000000 0.00000000000000 13.44860987610132

PRIMCOORD
 96 1
Ni 1.0995948381676097 6.203538662906923 7.714378001025453 0.007012426762091149 2.274059756407793 0.0405043878719496
Ni 8.20524453185923 1.7043315688251364 13.135458289698864 0.31565124978727577 1.3599742185288963 0.5463180270123559
Ni 6.645883278922806 6.862093682222635 0.07445246127399868 0.26579601682804543 0.14689792223754056 1.1772086358604694
Ni 1.4398252930330047 6.490979964905446 4.894608416073949 -0.5310022225908919 -0.9833114620552548 0.19910340059650225
Ni 1.3817342530983887 2.233096025173994 4.838769529554071 0.1450935220389501 0.021664629457627205 0.8595868926103842
Ni 5.0902158883802 5.282572394231394 4.8420646018287545 0.44583443037329673 -0.560570680276628 1.963380248803496
Ni 2.0956328873344092 0.9681870618144076 6.754698768042975 0.24181533764273191 0.18259948940420812 0.25862803832469655
Ni 5.440471228498469 0.6868314440532621 8.698977940968808 0.21855970954890103 -2.1705764537104617 -2.349379452186715
Ni 0.15615114116432735 8.941223642046356 7.62436629300655 0.5907526031766471 -1.0765432622279072 0.561426343408704
Ni 1.7635711978125563 8.773667471023305 1.6247132134272464 1.6541153621585383 -2.597832863971255 0.25754920343822096
Ni 3.3167668247135285 5.431631687148088 6.207487971506085 -1.9597400809477472 -1.5790813159408352 1.0860208627010393
Ni 0.02436387098807883 4.646171360566166 3.8273936816117478 -0.3715295490121343 -0.9622538700540074 1.4125617628176252
Ni 6.674111003484518 6.998095814787053 11.072119132173091 -0.08940548444802666 1.6555968318000711 -0.7727653668394497
Ni 5.840639654495388 2.3175586697609902 7.026871186609141 0.4257379167337378 0.29617822866432864 -0.8361412599929343
Ni 5.667037310698378 7.135081139580671 7.0268041090084585 -0.2217350219530891 -0.39763627340151514 -0.4548055235236554
Ni 8.397867510370675 6.821746045975735 5.9823452208604095 -0.2923691393308836 0.7033813198186725 0.29823048320766704
Ni 6.738193083918559 7.869204129858465 2.392951136315804 -0.4296989582640148 1.615363181091005 -1.0661094684890928
Ni 9.25753587847616 0.07309161296423648 5.402830586931217 -0.47362676999521663 0.09101936590236583 -0.29558173273091026
Ni 7.130615425343369 3.4388021143958505 1.4133544502864623 -0.5385535525755886 -0.15190591697509323 -0.042062733498004976
Ni 2.2645306103711342 3.4541748302785793 2.501105038141557 1.6054392371090738 -1.3154879631910636 2.1081598391464533
Ni 3.177980512285114 0.44791021913015056 13.286042908877679 0.8243342400556771 0.6515939028337359 -0.5602611194560093
Ni 3.3510315333367786 8.95419810398683 8.598516829183115 -0.9491039629356105 0.18266685230703378 -0.08856653348649908
Ni 7.399624170222492 8.954675917032796 12.396417500532582 0.9424463484097768 -1.9238539085740998 2.0138237501660283
Ni 4.255026250168075 3.7942582657452153 12.300784138253636 0.0978880679977411 -0.421245685290339 -1.7050445449082379
P 2.747581222418392 7.09241794780332 3.0142100907801055 1.4717459864872653 0.5748724416112809 -0.22242973402726854
Ni 3.7963992357396417 7.514032828594195 10.71113137594542 1.877616731983431 -0.2715123504865324 -0.9107212493923542
P 5.254418179369062 7.633458523948546 9.068706919323937 1.7325543202927323 0.2152512140009583 0.5037318169107131
Ni 4.567837587164933 8.42818107265228 3.308721188116447 -0.6908937288746231 1.7406602372293183 0.26015527360250035
P 7.059458036344055 5.813339989888343 4.322490695644814 1.5606506200394734 0.49870196779628956 -0.26169844971990414
P 2.242137718197667 4.159969020158015 4.559454724821948 0.6561193015079152 0.7628668767788153 0.7403422133137378
P 5.7016328129688345 1.8983604203372135 4.76182968382732 -0.26271120725513464 0.5223278347453456 0.30599084387937625
Ni 1.4847121532165857 1.2383535844587574 9.287502107428196 0.6443745022671612 -0.9320655193960851 -0.20703602518001762
Ni 7.023061546438802 4.761875627389432 12.484438014569545 -1.2157970376566287 -0.6639673367974241 0.7849660226706997
Ni 4.233561417949273 1.3794278862803582 10.769310627519292 -2.1975822928753446 -0.391365609901455 0.928898434522013
Ni 2.7540500759637845 7.185426094943177 12.992459871496004 -0.12174224890751938 0.40138905557572807 -0.5225736322075645
Ni 8.980670784475857 2.262977717971743 3.25592192766591 -0.4624959501893777 0.19668604940426124 -1.5934344993387137
Ni 0.5360740770809025 4.512585859368848 6.324826910269301 -0.29951372079546484 1.2996882771546454 -1.9906647955510621
Ni 0.8319745077355158 8.624562234544499 12.811871349644218 -0.3663976271022077 0.41163772988692976 -0.464837968058993
Ni 1.601730405916259 7.5997910816327545 9.944709142631536 -0.5365180102027985 0.5073069358564812 0.06380783848458044
Ni 1.1077268486614622 5.963501928295728 2.427769924298126 -0.6680566763754494 1.8257534674552363 -0.07966228901833378
Ni 4.520910832823572 3.7747414405599695 3.2838813418248862 0.10761609391878241 -0.8927376683307399 0.1839711729407541
Ni 6.988245515070206 3.5750707196205185 4.1221464420848 -0.4865673893162847 -0.36853035717449434 -0.5711865081192614
Ni 6.361235345500703 0.4959184849236318 10.647116373112063 0.14010995278142968 0.20880237305182106 0.03614559668262162
Ni 6.976649359993097 0.04157708596902096 6.629936268513675 0.347613147405853 -0.0653067916276101 -0.25881752862768326
Ni 7.251235653312636 6.02463443204217 8.465442220396485 -0.2183607061642175 0.3015104395105195 -0.23694438270367582
Ni 1.9983428002056978 3.38466222080288 10.86214602686561 0.5599083641022808 -0.49063950250312927 -1.6965113106262462
Ni 2.268068264653771 4.183822917606649 8.33457382146248 -0.47530210081511043 -0.21011929209103167 -0.5201179715782204
Ni 7.702704660763994 5.652022954600124 2.2259196407720743 -0.312104670086598 -0.35884192624213684 -0.12126119550604277
Ni 9.054529654927366 2.7205939740337093 9.678076598784854 0.6121837764672295 1.33185689146739 1.4722846325995547
Ni 7.89578707489656 4.785169013380297 10.391094954370805 -1.0405269920342983 -0.3586817465151887 -0.14954564427303277
Ni 8.862026129677414 7.468291418155329 1.0938592438735277 -0.06139742927087491 0.19538070032927643 -0.2680246490482481
Ni 7.534468525021684 3.6616375793522518 8.285567661499922 -0.26178226768296203 0.052272327041155135 -1.1098771004933465
Ni 4.328021381651876 2.9618528073970873 1.0494970591692674 -0.10676094500733871 0.5761538794268658 0.36488170467831355
Ni 4.529474712801278 0.3967557382032285 5.723190451183102 0.4358433805988558 -0.9708876344696054 1.6647725847620682
Ni 4.7199291551810285 4.4792032671381525 7.809849641965764 1.2154725644376745 -0.13973534305083032 0.284206143904117
Ni 8.259853049785745 2.280914084620331 5.85440802118916 -0.13418895931130437 0.25271527238468733 0.6525935477428438
P 1.161306230796664 5.801036303954706 13.349466158631035 -0.9680715051770491 -0.6626285633813427 0.08514722339230496
Ni 5.228533576475071 6.181972754851475 2.7820333807750592 -0.5074933408356743 -0.8124667991941297 0.7248798560120806
P 7.114158441394793 2.6169728640459415 11.483229476922643 0.49369294461747226 0.6146672050107156 -0.11728678423932704
Ni 5.720285899186372 1.304447992913312 2.53626013299854 -0.7178522597413378 0.8652613172873421 -1.0717437839567348
P 3.1386344456922597 1.2501518912091605 1.6786289024371093 2.1281475951222895 1.6939715749235276 3.7651185842910575
P 2.409831719907054 7.882307233772853 6.607624237009525 -0.6272437561241456 -0.022513607721483808 1.2125960142208279
P 0.11439946965928018 0.12748143953509683 2.674726678234655 -0.5592930991157852 2.244332918767322 0.32675044502423084
Ni 5.065213401878762 8.408140490858955 12.510313428751113 0.03869176014324304 0.8842604840976642 -0.5182171550110817
Ni 6.314152383048161 7.867853389132367 4.8164042035178705 -0.21745336385859967 -0.6173563218071045 -0.12036130939959272
Ni 1.1338595467908592 1.546956491166141 11.958637836848164 0.9269737066954745 0.7092940857586817 -0.03421829775292171
Ni 8.525783576003354 7.680697694512269 9.476481761464147 -0.4279482941214952 -0.2870970922986668 0.16248549226315245
Ni 3.5219507731064383 6.670959275123623 8.328078320651063 -1.0059304850063515 -1.5930994845967983 -0.31516479706916045
Ni 5.532551315683661 5.381433751184342 10.196803305683448 -1.5601448840476486 -1.8657310362894381 -1.861375330423904
Ni 7.058134861755224 4.889856014009068 6.2938278700409835 -0.23040940979863547 -0.6596316855365478 0.48685432442908416
Ni 2.631592105510031 5.6017239427997305 11.199114488821042 0.06168102194956475 -0.7255851096092213 0.10131817672521262
Ni 8.68644821270958 0.5407235655666531 10.688672325042512 0.8080779260978148 -0.2576746732724917 -0.5813032848382892
Ni 3.470218322168146 1.4416079032429565 4.064492784861491 0.0894543354080911 1.20041181344981 -2.2665732182227614
Ni 8.739733556047264 6.871006733272394 11.98098937981573 1.05770581780643 -1.1417544088179175 0.25582913542332064
Ni 8.581595815257206 7.72698123898406 3.6556143783593478 0.7669140502649954 -2.3858942592832975 1.375994762326869
Ni 0.7677601098425909 5.273999325541265 9.864850961839421 -0.13700431727291243 0.547607692358057 -0.1388107743540319
Ni 2.939092366726723 5.304211811986222 1.25626330384132 1.943039737473931 0.4655702182393272 -0.7522307372212077
Ni 5.493076607116892 1.8567447417760183 12.818730723467564 1.1595096759188095 -1.3202367907299586 0.17590227988969062
Ni 9.267643462140835 4.003384171767348 12.249625981841744 -0.5014214236099815 0.19862080453312891 -0.2385029854400473
Ni 4.787438625348638 5.9534954204677 12.276590258445372 -0.03409668457339289 0.7421152460537607 1.8259085049758619
Ni 1.2145088757225462 1.7929842662767617 1.1873047737246936 -2.1196791526399625 -0.041432813223489934 -1.1940660737374404
Ni 3.6391528000545605 2.974009473931965 6.096200718744282 -0.26923820974037505 -0.03528607689580374 -0.50907225528702
Ni 2.129428971624115 3.5667457461657954 13.122641873612054 0.6890625892031553 -0.38028338394536443 1.3603750535117412
Ni 7.397281048554772 0.6835915040531125 3.994277238885476 0.05813521357983536 -0.24289185853636233 0.7328469333779573
Ni 4.353887607121022 7.601160199783696 1.1796919254827085 -0.10231525053115927 0.15169765761902906 -0.48801517750640466
Ni 5.773139373040202 2.7244164784014404 9.657109794779348 1.4424078996447804 1.7474011554975777 0.3422899354207266
Ni 3.68327699710708 2.1416040155838374 8.523190521357742 -0.7460824582316248 0.5064952385884631 -1.2764159368902661
Ni 0.5802184893007509 4.044862019642207 1.3805801508181312 -3.9424349709194555 0.453305027718729 -1.8651060011109297
P 6.233999244587285 0.032805541090567235 0.7746470498032039 -0.3378504115921343 0.08911469268048522 -0.17314040087383728
Ni 7.750357323386728 1.1842412570030545 8.521011877642385 -0.12436425991139873 0.21201162401773813 0.25297418247302883
P 0.5934125614681213 2.881745612498324 7.418629184125809 -0.14564245256388467 -3.150499458909458 1.899894826655341
Ni 3.774980347082953 7.222318775319242 5.052238939938287 1.8913798472057943 0.11271279171539944 0.14535423189950453
P 5.255961883056031 5.202777615554994 0.9644546068284158 0.7174979617257128 -1.377438436751931 -1.6860911437341868
P 2.6273652977957127 9.075084804616347 11.400803051008458 -1.9285875666043428 0.5813737330649085 -1.8255976586036624
P 3.85657611339415 3.8812386175359577 9.79436710546067 0.34568147760077883 0.6019258461846472 1.1515665098123327
Ni 2.1452335569906977 8.679639376804557 4.508754166288694 -0.7743162562663375 2.155211798328933 -1.0239811718604752
