# total energy = -381158.10816070525 ev
CRYSTAL
PRIMVEC
9.39108925551910 0.00000000000000 0.00000000000000

0.00000000000000 9.39108925551910 0.00000000000000

0.00000000000000 0.00000000000000 13.74480839131003

PRIMCOORD
 96 1
Ni 4.019151471612108 0.2595236937511485 3.654180870018564 0.19072160429071025 0.15820074884486948 -1.714350909910828
Ni 8.010862180095412 0.315100160621878 2.6453121042313406 -0.4000549101453368 -0.05688745721566332 0.9512498056340197
Ni 2.6945852719193 7.19638239043142 10.271275791097572 -2.692731767433685 -2.1754101276536795 -1.7513513983945772
Ni 8.131199599237272 6.442897726202609 5.469705708918578 -0.20523728140838202 -0.17918634995760108 -0.61529583973365
Ni 7.510852408956809 2.561907961349907 3.4644752301623867 1.3797308323305335 0.40431085720821336 -1.291515511535866
Ni 4.741673714199692 3.712682661226947 1.5974628047018011 -0.2047863099138925 0.809455780281948 1.6831138062734172
Ni 5.381873667400858 7.613713010787681 3.1449499882310312 0.8440957389533206 -1.1339691084455439 -0.33800004979612114
Ni 0.2464804097300677 1.7905614451460816 1.6213236845641108 0.26287755762966986 0.42363706834065107 0.483352996144045
Ni 7.066559971029433 1.6343406735349655 5.487999551004449 -0.17134011444030492 0.2511294159548062 0.915847514875326
Ni 8.818627340862381 8.719664041118591 11.81523004680714 -1.1237191485827616 -0.28903261875848285 -0.14350663716780448
Ni 4.734217189242719 5.847502660368838 4.84083892236486 -0.5826281742972999 1.1658384463503149 -0.20475237135216348
Ni 9.088151605679876 8.817453454691574 4.732873324354379 -0.10770145454373709 -0.5853486585522564 -0.44065005795887985
Ni 7.76443060403005 4.122321979392074 6.279741635094359 2.328434988724564 -0.9976096238454819 0.5819794849697074
Ni 0.36151749803349587 7.277380536217166 2.2472895636125285 -1.218253212506605 -0.7152410473707359 1.1355907032093668
Ni 3.6979762152790654 1.2924862384169704 11.293572875569902 -0.26341183286658504 1.2092039578201432 1.138376236374304
Ni 3.7619952714902456 3.667079531263402 9.048083583788925 0.5514697464166245 -0.7825525281332006 -2.6185382148394067
Ni 1.5038045313411263 0.16716608626772905 10.814772879765457 0.3945175252668754 -0.04677376582042912 -0.3260531618468901
Ni 6.9547120966748555 6.698673436187601 0.919849690573582 0.9280335154185564 0.20121916138792445 1.9188978501204048
Ni 0.1309972446817325 7.067696292842776 8.487556693663896 -0.49937636815549474 -0.8378618422284667 0.8684487138763882
Ni 5.518711230559593 2.8520362762374227 7.703786705337176 0.21661878377244628 0.20590988199537438 -1.175278508717292
Ni 6.226855715327122 4.755666437355722 13.545660346739758 -2.2846413885783816 -1.1968678048522936 0.622723756766605
Ni 8.910829056262319 6.637227538462833 10.617397537223688 -0.42869725647237783 -0.9394404717039175 1.093325881002885
Ni 8.066598295485372 4.424771403528389 1.3922524763015929 -0.49343660563229214 0.23042175109380958 0.3253877603487493
Ni 2.7605013281825057 2.2132731597093254 1.7003703619795054 -0.4411010294533694 0.11519030672161452 0.9862057528839143
P 1.4930423429271593 2.549013995649753 3.900116596565377 0.23226780316361287 -1.49681244253759 -2.4931977070576674
Ni 3.7080058987224485 4.979080453383882 10.642371261175924 -0.3032361639523745 0.9634558607819084 1.4962989932362811
P 0.8386430626039011 3.565308295799039 7.406184022422893 -1.2072344927985983 0.5300048916746292 0.3456344264129273
Ni 6.675007890984114 0.32843175108650924 12.899722437935681 -0.41656679175743094 0.14133791165125983 0.30731547622807076
P 1.0856568862099838 5.015057716746804 10.364561238210399 -0.5088909925141495 0.30931065228122856 -0.5655676192705872
P 3.3880233107389457 9.177883464576432 7.1473280351257 -0.12747040964054823 0.27703765118013574 -0.902175159594556
P 6.146646421048159 1.1163469662595857 1.642820827232882 -0.3407105067487487 -0.6353129062855253 0.11172163144672372
Ni 3.5560017262368744 3.070473014901358 4.5143999604419145 -0.6546380889766984 -1.841234593809971 -1.6103338461972136
Ni 1.9323199391328445 1.2853865748559241 13.312946334911986 -2.1212719510483793 2.857480601809718 -0.3104640491593814
Ni 0.33492475027448193 0.5790207624144046 6.781125322607275 0.11634113249660608 -1.9282240126173376 -0.4815889622650867
Ni 1.7540301075105396 5.6132513272117786 7.190803144238805 -0.03444095528668907 -0.030386582711657343 0.05922896086464638
Ni 4.179748490867997 8.22846311180573 5.4728526629652805 0.3367258110693878 -1.203186805091786 -0.3280462810175189
Ni 5.814220639654093 3.8870282353153374 5.084589342416097 0.29661891574617305 -2.1498716170629426 -2.0816515084432794
Ni 0.34278790940102166 3.5380553544575633 13.632788056554993 0.5079147446438091 -1.0199915910851078 0.16485450671596125
Ni 1.5287848290559185 8.929376457761082 8.37893184117989 3.4641359922595503 -1.0779360288103759 -0.1693084287222568
Ni 5.826419664741128 0.4796799408780831 10.587227723524988 -0.13019475055024676 2.6019291455278157 1.3270571560859017
Ni 6.255460973537368 5.093783218905865 2.79782433465164 0.566063070849767 0.19822176932249733 1.2380177967280421
Ni 8.654658920523934 4.463772597667312 4.065109584753706 0.40830326619705815 0.8096550407769475 -0.6155961445828881
Ni 2.076670373784751 2.0543195810925683 6.574224598121104 1.9355549990611118 0.2259940543397592 0.6034854773622832
Ni 0.03653227674447868 3.0955660056885472 9.691107437562586 1.3303054878198701 0.5911655223443497 -0.6934900288468895
Ni 1.561841463625869 8.977637266015337 1.33097561818542 0.3074347754147544 0.7507533813447328 1.0793645337267863
Ni 1.648802951159319 3.470918456576717 11.742065947770898 0.33460053719626887 -0.7460613751857021 -0.7731181221931782
Ni 9.256796788522824 6.874878445970552 13.585231580003224 -2.1865615162848084 -1.0952794051848298 -0.44217240814067726
Ni 1.2061727360498067 6.3638998824519195 4.706882545423755 -0.1586666327376945 1.0766353077210813 0.06061324280668271
Ni 5.838844075972959 9.35900940518741 6.740591502683746 0.6511817549969817 0.9344769570510552 2.0185322113852915
Ni 6.766862136077491 2.6483905033256674 12.132514574815657 -1.2866196168961455 0.6034132293634511 -2.0207811553204684
Ni 4.083630691202245 6.144693074459934 8.150589381452209 0.11587396305220043 -0.7627874296911314 0.07100898421870996
Ni 4.478554172330124 1.3617549135840032 5.716864155300905 -0.7813165988435705 0.6648849635156872 -0.046930346002951435
Ni 8.404170393852258 4.787652487737896 8.705783071926023 -0.1821526316747766 1.1504000003080574 -0.8064445042594499
Ni 2.2775551664227662 2.2147569518292265 9.68095003530382 -2.379029156732348 0.9796473829401063 0.09722755159560674
Ni 1.5532110524980896 4.157801515018572 5.1841161075218745 -0.6177923809032586 0.7308856958865284 1.3624499337628988
Ni 6.7580063388049165 3.337358383606877 9.782496823732323 0.8250150681727857 -1.8350742306355299 -1.1846116131927598
P 6.391378209938192 1.17939874026602 8.740310351090761 1.0111822203235938 3.2910120464459454e-05 -1.1805850085318699
Ni 7.393632831484615 2.377711134516097 0.44079331802943206 0.47073942114509254 0.33637536970850457 1.9595102243251283
P 0.5022495459525043 7.629264654778543 6.554005582715108 1.6713872618651087 -0.4406441444216089 -2.362578467375492
Ni 3.702427591638769 6.39419553674813 12.58008732025874 3.560793016063667 3.0827470339548326 0.2624111595162126
P 7.676492443202488 7.220705311890561 3.4050286953637374 0.22146248501799276 0.1967377285778031 0.023734881723094608
P 4.607052448131441 3.7217544535549507 12.272313148451639 0.49428198435172294 0.25258903121946824 -0.6348215684714035
P 3.9323496325978886 8.518309694012252 10.862137778094151 0.6808705403106661 3.1832015771281696 2.7342733383208975
Ni 4.98211377524925 8.272422801130146 9.098238574768395 0.76831504437758 -1.8123976149736205 -2.0474329535800417
Ni 4.677645266899145 2.2090565605837833 0.1159104596145093 0.3119285495200499 -1.7093801961691144 -1.7053877871802694
Ni 8.672192084371119 1.5178536010333554 10.929816541831443 -0.9731556045681755 -0.666690392155542 1.9130552752966987
Ni 2.9593952098748306 4.759338353298009 3.261725367176192 -0.09648990209863383 1.335930033095499 -1.058039804107081
Ni 6.023848536492285 7.142017374088965 7.004464209920505 -0.9377867381505786 -1.5658432199840067 -0.9156243431209262
Ni 8.267295266336056 2.0965607010629204 7.662648099258448 -1.0975345197675934 1.0013953161401594 0.6531064828235204
Ni 3.6787808286140145 0.05907183033292712 13.321619945050854 1.4528290949781042 -1.8262975128841645 -0.5206666449928388
Ni 4.391808679852103 5.9261342516342355 1.6194135369869722 -0.7859566687187433 1.4091928463453922 -0.8168613287173997
Ni 8.427403948944889 8.975035934260827 0.6233326175900614 0.19333178822004768 -1.1858285163189966 -0.2093847279178523
Ni 5.329358695663595 8.307883554577911 0.8502513881697862 2.7746088047151503 0.34295713669108036 -1.5522508260115526
Ni 6.244548527693538 5.085331238476048 10.964673448232944 -0.9376661534123142 0.9323681382381684 1.4760307299055482
Ni 2.0444025907215835 0.31365675018625266 4.855890021292491 -0.2541872289445235 0.23951317187211651 0.18341298644443896
Ni 1.3778794140262207 8.47657569286769 12.93001621401402 1.3055012842919969 -0.8137387239280179 -0.925195017528497
Ni 3.116066753775537 7.359561959263086 3.3561800049151427 -1.3960046297898925 -0.5302704866311899 0.23668572972565044
Ni 7.391641920538924 8.443744444442535 9.76619483170108 0.8028580724597723 -0.2844105466054392 -0.4013147506943669
Ni 3.600947479944767 0.6859702445554346 8.981710181473572 0.9393204011862855 0.4824523387066465 -0.10151846566147678
Ni 0.8473129163070199 4.533632911464431 1.9438728572714674 1.432840053450687 0.3650202871387068 0.7613033889464372
Ni 1.6542497829918676 6.101616147535967 12.147648315329713 -3.0101375380182223 -0.4351242430446442 -0.42261171239993023
Ni 8.200017502114715 4.6890084850325655 12.428385540850764 1.3091555932151324 -0.1536655799786773 -1.1125446200231808
Ni 6.580139106204102 9.040022272676753 4.3913973501378525 -0.16102356300564527 -0.0009392239848177373 1.031962904514371
Ni 2.907547005482587 4.598900982561351 13.434038797638912 -0.10474211480509701 -2.556699327155739 2.2659957484527364
Ni 9.396442287402133 2.199364956357593 5.391249731024335 -1.0677058664419354 1.3515379148360853 -1.3892701392795364
Ni 3.7441146373364993 4.162722445846599 6.318997327755112 0.1619062227209147 1.2082251388466418 3.053339784437309
Ni 5.3352656908751 2.242657878336989 3.404355354256162 -0.3311552589601458 -0.9993160650136272 -0.7284647451498616
Ni 7.973006698859199 8.262205295899435 6.983956888070959 -0.8636338089862481 1.4792608068070718 1.0549868762133703
P 8.972096523289125 1.2350972912985134 13.256262658604953 1.2359647708537553 1.0255449168031692 -1.7546272409323715
Ni 5.869346334235232 7.844808937917609 11.54455349532438 0.05721964374410146 -1.2242559670572595 0.6956507839436342
P 1.74446997853548 6.404422433068208 0.714381107215796 0.8197041974828335 -0.7731070664495847 0.4021164206600558
Ni 9.034744480452801 0.2622940651142552 8.937878210964541 -1.3184714712994194 1.0508509996681257 1.3802805341864164
P 3.5982710194753253 8.63746383589394 1.667355048202767 -1.7760162481311093 0.6266099791948886 1.8342730748904732
P 6.0023053774856185 4.976056522607881 6.800615589478434 -1.8494950340465504 1.8005648840047508 1.8425823660871168
P 7.077848060447922 6.485336059049655 12.597900338569046 0.9272012493252483 0.6145404496248642 -0.6293289207879484
Ni 6.583773457788923 6.461031919769249 9.133534984152247 0.3868335263590564 -1.1519058954296226 -0.198744988815819
