# total energy = -340868.11436642776 ev
CRYSTAL
PRIMVEC
9.30347936775749 0.00000000000000 0.00000000000000

0.00000000000000 9.30347936775749 0.00000000000000

0.00000000000000 0.00000000000000 13.61658246481700

PRIMCOORD
 96 1
Ni 7.238767455677303 4.4357966000852445 8.683635007528624 0.40871361426159936 0.29842768682013765 0.71627283106936
Ni 2.527271549511328 1.3366587839149966 5.632540358551496 -1.5311618665517372 1.8804693709408775 -1.1298882535079509
Ni 7.333904835173207 0.4044799274828616 1.906866240211691 0.5394616662121547 -0.6273823385845388 -1.1250229549958495
Ni 3.325686841019134 5.668693679177456 2.390582040341795 -0.7450123650958976 1.5650752314697305 -0.8244080307164061
Ni 8.750768914280279 5.486373395001708 10.35489342508044 0.9794468368935261 -0.1929263252515129 0.5742589763969982
Ni 4.993372722513213 4.474294397499095 3.0225004052962507 1.561475429933614 -0.10184885241770202 1.419747481932787
Ni 3.611229228217279 5.03973195994995 12.250172181802776 0.8727064607114777 -0.2715023231842034 0.09105176180219803
Ni 9.056518458555002 1.1144079665105757 11.199897749964116 -0.4049536329985349 -0.034484921150747055 -0.025539539032001176
Ni 6.3069309672840355 5.439865301895899 12.941430928885016 -1.728469351590081 0.4897784400544145 -2.2869093586769518
Ni 1.2953978531439887 7.872678625901466 3.6342934837921166 -0.5539845424186782 -0.3938408109148249 -0.07412953212556266
Ni 1.7775692757074666 1.3466786311394328 9.85061693565971 0.4900900577575624 -1.042971854030365 -0.2888351580356961
Ni 2.5722259615711947 6.959244419597274 11.307999527888292 1.169822113588411 0.06459665293446294 -0.24625254747847913
Ni 7.820355858222515 7.317540015054558 11.62910632547163 -1.0575063002011142 -0.7222717289652723 -0.4089295869271473
Ni 0.9476151893149436 1.3328629643536503 13.288831219714131 -0.921418066984568 1.2936171312599012 -1.2356115012793947
Ni 0.3708180786180001 3.270349746041467 9.827686650187038 1.301341239377036 0.1478587434889131 -2.149488522691911
Ni 4.452431221104085 2.614324205480735 13.010535312556016 0.22795503472087195 -0.031747724725242094 0.13614839703052037
Ni 6.292250076921769 2.498328425356062 2.0059808571156217 -0.6350827925525901 -0.5579715520908842 0.6457842381304942
Ni 1.5921323259605153 5.985998144763926 13.371115842533563 0.35206398408835493 -0.47843447579650505 0.31163698642156007
Ni 4.277637451695812 5.930177268861772 9.619775285453947 -0.5262739638772871 -0.13524516848996063 0.3166624646606095
Ni 7.260993467765678 2.154806755054214 7.240999360365459 -0.9832294438644099 0.9069566401435993 -0.8754410860338214
Ni 1.3258760513865642 3.7983315007619782 11.905059616537716 0.22791029752586556 0.0004725687610443475 -0.10038358072608518
Ni 9.010168524597583 5.886125294295658 1.7078192305718631 0.7719724386245093 0.704548086433264 0.16872350275306428
Ni 5.666944625065855 8.310342203412295 6.5934892944236 -0.1236114409057742 -0.07030784438662731 -1.4178451227037516
Ni 3.728378639777264 2.788355089585013 2.2630211050781273 -0.7061575970122289 -0.5283956382059803 -0.10206096842850809
P 0.7201879160185297 0.14503938185656326 6.117807979031679 -0.4030052510229124 -1.8058675271645865 -1.4951260559741024
P 8.53833326755532 8.815781627747652 13.026425655229495 0.49088478574471583 2.1548382170395985 0.5384108563501372
P 8.34015985462336 0.0871326658915335 9.360732928742419 0.4133200026853592 0.05596391696012942 0.8171336085421799
P 0.44458164473096806 3.7539166905024985 0.3342377282913878 -0.1993466269555599 0.5877328425137169 0.0048622131883077555
P 1.4371456640181883 6.404198843543536 5.350745412822248 1.0558893334229817 -1.8504728245787874 0.46102605051207046
P 6.420117096654968 6.042981955580706 10.488268104569316 1.0845054544977772 -2.479389083309349 -1.2701144201522707
P 4.612227781853314 4.746235097935749 0.7953470040290516 -0.5197826997259887 -0.9806285159064532 -0.7841658953669076
P 7.40038749837267 6.971618047088919 7.062784701612315 -0.8267809018239566 -1.1615195072599866 -2.903032065187271
Ni 6.01644843256855 6.812779744709343 2.236714586961306 -0.715439022314155 0.5451394333232225 0.5432193334823742
Ni 0.7718724650163329 1.646957729575746 7.492456590389818 -0.9162645478080865 0.13012893030931783 1.2887816575444708
Ni 6.729355445673575 9.303432799628858 10.768442384201538 0.4513149938718937 0.002312193072944405 0.0758089767105146
Ni 5.463012358436657 5.833244317857685 7.597712433990916 0.5579401846323166 -0.30854600620106215 -1.677632985664504
Ni 3.9632449751355705 8.792383377265335 9.726624815062054 -0.322213990606458 -1.402571741484449 1.5101850071897538
Ni 6.352229608078633 5.999953363739464 4.714074830632656 0.024315951037545223 0.18449284977217903 -0.45319369895184525
Ni 5.039220268587515 1.517081158310071 10.847922938354818 -0.9674428704541146 0.04366273099527319 0.21627836971389203
Ni 8.026409318135995 2.493723203094134 0.3032776098201905 -0.393688858717993 -0.49142086075384395 -0.17347361584353996
Ni 3.3053587387114334 3.2569248253869993 10.180955575769332 -1.025602766624298 0.6520423032250642 0.11969667923240031
Ni 2.7220771029305233 5.376015523343153 7.4124048026064715 -0.09378792978643848 1.2819993445153146 1.4174167769170813
Ni 6.742724545452141 4.693707653711824 1.3630062373408125 1.6546401243137567 -0.41105486080026626 0.5184372414416878
Ni 9.126489926498351 3.6717204507365784 2.445143225144422 -1.903276341533064 -1.174848877379041 -0.18703001437173594
Ni 8.671159041764492 5.425696102896068 12.893759900864575 0.29027600424728073 -0.9203837121827826 -0.032192525572144554
Ni 4.913948919583767 1.3304998806071258 4.044588085848119 0.233681652792004 -0.5020030071450645 0.18648776871502076
Ni 8.172073893802661 7.105923074509498 8.883689583978486 2.447285003685953 1.763091826759957 2.4541537057813283
Ni 5.609365391572785 3.4517582892441463 5.115368316449436 1.053632933288637 0.19072443250418766 0.5226631065975773
Ni 4.734884853168978 1.3827761308894917 6.487906898698473 1.8386920298937754 0.23091026069445392 0.6964694231901876
Ni 7.470638070695529 2.110112840415224 9.544720396411776 -1.0181810202389303 -0.3763737644783131 0.16873353005539327
Ni 8.038168915992715 3.4761706189720205 11.311185969554375 -1.0222135384370912 0.3494473724011143 2.260718302103881
Ni 1.3199218246236677 7.868203652349977 7.808742324991073 -0.43847027669874167 -0.5191368386118737 -1.4303769366221752
Ni 7.564910226614948 4.84340993940208 6.225719035629857 0.21471488188151408 -1.0799134642517207 1.8694689060653156
Ni 2.592051675995776 0.43102833606192537 3.219776962822048 -0.3638758891216185 2.0192521202704516 0.45263834066900754
Ni 3.7342491352263067 9.07657675996251 12.496441791759962 0.3093001107582673 -0.05795755035139051 -0.5721581280039114
Ni 1.253448464903521 4.087595279686933 5.928986423509194 0.14291579766134094 0.013662070868124859 -0.4175435538484034
P 4.6193914609274245 0.8380797452280129 1.950806573026002 0.7720166615988833 0.24987394628115028 -0.16593745536749485
P 1.1238975154139417 2.2283321520966664 4.078711387287106 1.9516534472848712 1.0335749861964973 -1.6390222152708416
P 6.863716293970057 0.9776096066330336 5.325649277364572 0.1261077249650667 1.7153220155748459 1.1573185818047618
P 3.845248946957737 7.26605456051414 7.355650787728821 -0.5105005030931143 0.9601885028845464 0.3145269063748454
P 3.6531320990611618 3.2033088740829814 6.000473428233286 -0.15750835076353517 1.1823631834782153 0.3603511637978116
P 2.803882596565128 1.688209356867437 11.74145607205196 -0.2031929972848436 0.3140283694718721 0.7512398340628481
P 5.0883612463400425 7.657824074554081 0.36104105220373806 0.2400551604185156 -0.9528906836715525 -1.063478458624149
P 9.030171005129187 3.5038577734194885 7.708606186058132 -0.42137501177935177 0.5963982314981986 -0.984575416369343
Ni 1.6367704197236033 8.400111475342273 13.42072106390401 0.019144948359567027 -1.2295269856482114 1.7697227018129136
Ni 7.479374037774216 7.233762183804744 0.3922374790495878 -0.2920978879473679 0.5937751920530547 0.5154020541597898
Ni 7.987334705004487 9.221404022490646 7.304289069463319 0.562669986007818 -1.1020846010321215 -1.1529263662743368
Ni 3.331659674740665 5.220024085634587 5.165804338522895 1.0591111827943889 0.36456185944504954 -1.3283486212038156
Ni 8.876403098977391 5.353073143347368 4.444261835915805 0.44165947306000064 -1.0173837211486156 -1.784503459666514
Ni 6.089583083479687 7.764879211055092 8.866478147241988 -2.0701424793624152 1.2645551808969382 1.2631295041940052
Ni 2.533904930264367 3.082493891672089 7.836506698316871 0.6333077029300384 -0.43521114633149566 0.7914192344952111
Ni 5.102018753977436 3.5675679997824785 8.306265418775574 -1.0435971463191898 -1.3676888135643348 -0.9989725656312797
Ni 6.103538302455225 -0.0035102027463137 13.258466523919223 1.2266964581779518 1.8802631684673425 -0.5535196869671176
Ni 8.943760289232655 7.43548022235649 5.351371536980284 -1.4776777785906678 2.1329164772658427 1.471971215124194
Ni 0.5999478886294296 8.089421783550208 11.527703052655712 -0.15359461753142578 0.16063326954576204 -1.697915390062624
Ni 2.989421884584567 0.33357159917228874 7.660920272470787 -0.18851739755053984 -0.8893204151190748 0.8970324390513519
Ni 2.7626216657941205 0.8248808991209488 0.7969667397781457 1.2904032523082938 1.1644945307279106 1.1880622907455216
Ni 3.5441697493001594 8.053798761245318 1.859684575203328 1.3000477173765932 0.27587628388218294 0.34535957548498586
Ni 0.17248929758144682 5.657492290079757 7.71250062250024 0.7055441317979462 -0.7948043489173602 -0.4627358341143256
Ni 8.799816857239637 2.5671276549054647 5.303508857285914 -1.9018830607299635 0.9535907950623707 1.354826098669054
Ni 5.470362107097108 3.8423927788074104 10.589479725711305 1.8719093971860086 1.326900061682747 1.1576093735723032
Ni 1.7280189448649887 4.306915501106491 3.275822982923673 0.9350896509343896 -0.529268784839553 1.262437363222987
Ni 3.4778173348111343 8.688240229790551 5.262155822069668 1.277347190455284 -2.353900222875204 -0.27471491658423014
Ni 5.356078167166767 7.456915438702916 11.462316339319793 -2.168483318626859 0.6929426409838518 1.6023631692869114
Ni 0.23944922926987405 1.4101283600815466 1.9632657925273624 1.354512681193693 0.22178207314094062 -1.3565713634949346
Ni 8.96911227037155 0.7178666979289319 3.930753503968791 -1.137672268328744 -2.9825285180517023 1.3341665134371732
Ni 2.5700396439316937 3.6504154831005904 0.43935029831100464 -0.21546821510777087 0.243261068950323 0.12797048920541831
Ni 6.778068463377521 8.727333449880692 3.959456598357678 -0.9138695652133487 -1.726289056109311 0.3371068485578904
P 2.1272777597551356 5.245497012004603 10.004648130276179 -0.26602330234750315 -1.1642063100635305 -0.08885938213656953
P 1.731107699998241 7.038928719947598 1.7084044194209043 -1.3772234925276474 -0.7281279306357331 -1.233892718816075
P 4.962931738187906 0.9740463740546128 8.710827216876424 0.8525906637982091 1.1988318705571999 -1.1114346747884536
P 4.876483808374105 7.3275412553203605 4.024489779479549 -1.7164224477278762 0.672894464083725 0.1939372830145305
P 7.1862679218913295 4.138820236806475 3.451586174876781 -0.2778611755226957 0.32102511250467936 1.0843532451906293
P 6.550505359283079 2.2986013313781593 12.346631585709627 -0.5334982495398682 -0.3490884463997988 -0.7398979266874676
P 8.125147144127586 7.651451191221918 2.6166165827844496 0.23822273519546713 0.42327659967743875 0.27110020264977824
P 1.830859605235388 8.368740143085263 9.758460390936984 0.0484840636433165 0.8332086597271714 0.2698097659731289
