# total energy = -340889.3834360418 ev
CRYSTAL
PRIMVEC
9.07969233741793 0.00000000000000 0.00000000000000

0.00000000000000 9.07969233741793 0.00000000000000

0.00000000000000 0.00000000000000 13.28904752517567

PRIMCOORD
 96 1
Ni 6.357382700486143 2.042122695649435 11.513909800333295 0.8964392855520431 -0.3526003162077992 0.7515100570050993
Ni 4.486148895352592 0.33225590761994067 5.917679529033947 -0.5927027849244825 -0.895771055840425 -0.4408076665826667
Ni 2.613807367747178 2.0352221294312707 4.631671849232047 0.33500831415764887 -2.2117434148670747 1.0135401790328094
Ni 3.4301261919712402 4.293278069554897 4.975964705056489 -0.8450233929739125 0.9877394159196214 1.0571756563345729
Ni 5.24847986861191 4.810066921448664 2.594167993102586 -1.5596525177922622 0.04885533093980619 0.4484718679961438
Ni 7.232665047105941 6.126858390337491 2.7182211063511583 0.9626755309724583 -0.17328412554055317 0.2052707057494787
Ni 5.207494137152971 4.772422516790099 11.420833873619607 -0.40885528204578614 -1.1372961159362478 -0.2038961939994553
Ni 5.617741878515236 7.775866724168972 12.623345610150956 0.1084524737771487 1.4683048220162003 -0.35887432214196907
Ni 1.8583951200908082 6.578346094545681 0.18949681210470795 0.07467152067196173 1.0990861805254297 -0.05584024689807157
Ni 2.763794806375938 1.7304168558210358 0.4518527078423611 -0.08278206559423808 0.10637707930535874 0.38802266157115106
Ni 0.6256943143242282 0.05802286626389172 4.574422572759981 0.5026169865799796 0.29781267894395813 0.3897913234357997
Ni 8.337981400485207 2.556859537062537 1.4516158212224097 1.0544063211195518 0.41095741599045355 -0.31520773449195394
Ni 6.647887458578471 0.7928450954821935 4.820920785734445 -0.7047925983439023 0.14071519046559636 -1.1158896252360138
Ni 0.6352733897981274 7.492280691679593 2.851431089377386 0.671630766879953 -0.1774454560070944 -1.0045703714340313
Ni 7.244205336136582 3.768608044664596 3.7907143717321814 1.6913472499268032 0.17630799996854155 0.33632857563096913
Ni 7.696855240970989 4.041334765052759 12.687266644592901 0.5865030838716737 -1.1096433872159857 0.35130833686925306
Ni 8.170706227541467 -0.024394409550450347 6.510251125510987 -0.4154486189925877 -0.3649434111541844 0.9385007334984675
Ni 6.999934371705955 0.5959410703238296 0.4916644350749734 -0.6344307607908881 0.060768023216992116 -0.3521827690544064
Ni 2.3710890307156376 6.257615040479314 9.475675936935492 -0.2179860964336181 0.5336692279000937 -0.853500577206988
Ni 0.33040092646418934 5.058296631762343 1.2543822032302048 -0.6773141904179755 -0.8110673477434418 0.1612667893647029
Ni 6.454871357702499 1.876400150104782 7.0719390562847835 -0.557813172136149 -0.0015282637190683357 -0.014262680566601243
Ni 3.161076747001968 4.558050979407387 0.5950076779458989 0.9986360082274673 -0.7691982183134817 -0.7857689781879693
Ni 5.837225282714825 5.645834446777078 5.123366247291916 0.11297555845848285 -0.26818791409898973 -1.9455154527079332
Ni 5.301232881411299 2.4138816209606495 9.355568858000622 0.09998583106703425 0.3553627094442847 -0.4132930061021656
P 0.0354135242377718 5.909672148313159 12.471957174986063 0.258691030352148 -0.29786075857307415 -0.3253993303129751
P 4.007222360734806 6.207186428932359 12.620529089570859 -0.32868160060867263 0.8428235571091164 0.14425585662900317
P 2.0421045362646506 8.587091840960941 1.5219816213244235 2.741326645623253 -2.0628408034946792 -0.5599970671613452
P 6.433343407040305 7.878140379276082 5.750928254341245 -0.15726512440447754 -0.7753277282499873 0.6749834854022698
P 4.802403661069544 1.1676030431905913 12.861990797175302 0.18472064951226896 -0.7877343294444563 -0.5048170795550919
P 4.292324701853704 5.878356289252042 8.47078461329226 -0.6836205922519775 1.8516555320329788 0.12004300682822552
P 4.53127496654243 1.0751354558671886 3.747192682188066 0.27829234952284326 -0.6976711568077727 -0.4128530903512696
P 0.19365440325115202 5.477369834129944 3.465451643192807 -0.23618899259488998 -0.25251549766905546 1.4141872142361902
Ni 0.9638275068297185 1.0930950874192007 2.2312181853504023 0.5347220946446404 1.7417043622231165 2.1793891669060854
Ni 1.85844051855277 6.309233091729661 4.848030931279439 0.015094946659909486 0.5796289824596599 0.3292775823214587
Ni 6.379400954537523 5.636800152846718 9.26081863600979 -0.234789284033886 -1.6682679995098368 0.14265740179363173
Ni 8.671750892826948 2.405455666420575 10.443622900203607 0.3569771051192562 0.4727685357599794 -0.4085297803855673
Ni 2.3057697236452763 5.305173467909566 7.120883138125592 0.19522334881580572 -0.1390105490696638 -0.10338637210815098
Ni 0.6518474602910712 9.083778253898108 9.172047391459301 -0.17510960878506615 0.6591310917510455 -0.5342983768436605
Ni 1.655990617281176 1.0375273699781926 11.518109158064744 -1.036825117702679 1.6315467328294033 -0.6815745083562261
Ni 4.108914915528808 6.99776432522419 1.4301142016681534 -1.2557617509750245 -0.09787906913667659 0.6025282556553365
Ni 5.90646701689867 7.466140257282098 8.0592757026567 -1.1615416187471737 2.7981757934018137 -0.46573502595196564
Ni 5.1403498119117526 2.9401769107891766 4.602422528159422 1.1907449797840073 -0.5874996434569882 1.4575563252504444
Ni 0.7103243111745791 7.480604207263067 6.938916114921836 0.8130144441674837 -0.6751662908370373 0.5360703811424187
Ni 5.143872732559974 4.247925006055251 7.485468198477633 1.0224837613793423 0.36994883478857576 -0.6456860219897331
Ni 8.249345443351364 7.091593866406442 9.022093547692393 -0.31609090842785564 1.4285825637259137 0.561692195475581
Ni 4.573223145394956 0.3871026974849983 10.660314298992558 -0.11229832988580016 0.18528243555300997 -0.11430353324128702
Ni 8.400912748456388 6.997482854760028 4.9765757683544924 -0.4586033000031909 0.5042547792937186 -1.2155044461168745
Ni 7.326104161515323 6.047919544678647 6.860976035426149 0.43265701245107424 0.41865092797996933 0.9406337206810703
Ni 2.329422322327274 5.154695725891621 2.7265272089516537 -0.05621897039372899 0.20354215309414622 0.05477581018929921
Ni 2.8479998736223275 5.033681585686759 11.2969396549879 -0.8169813992350317 -0.3119393481533273 0.5070655092696363
Ni 0.8839016986078295 3.2984615725901856 3.8559764767404707 -0.9856858758247026 0.6018481988691764 -1.0019522170848938
Ni 3.779712508460405 2.9928391266646415 2.799895663327808 -0.9389193090931249 -0.30420804094734055 -2.0379859492345287
Ni 1.0480416537685011 3.3539748118768395 8.194890896197656 -0.3240042497376614 -0.3936603194729027 1.0315060194826107
Ni 3.803464983758718 2.5226472561282693 6.982079156616455 -0.683393820953152 -0.603785010880573 -1.1500798979644773
Ni 4.188507499039899 6.779434041958426 6.270157727550067 -0.8795499659958722 0.5809405021822317 0.18393183506238647
Ni 0.8019175241206014 7.478443240473694 10.930666679820128 -1.1959224102198889 -1.3281172219192998 1.6575889225294353
P 0.3814060984780558 5.616652315428158 8.124697610251095 0.009371413912570957 -0.5725329948448269 -1.104537433447988
P 8.5041306915723 1.5801025482661522 7.991142598913958 0.8984925685366462 0.7269056281928578 -0.07743725634255695
P 1.8208687514333433 2.954595462308183 10.434094671007104 1.2551063767792126 0.5759561615937628 -1.9028053154339166
P 3.9441548173777408 6.076838364948191 3.898740919939066 0.08844363475538962 1.0570090488497215 -0.06904543273443593
P 6.942768628403899 3.840428411487859 10.414626902548727 0.20734198645621066 0.3745295121807227 -0.671586801015895
P 6.699396553520112 7.996103742837124 10.526280787866344 -0.6832364694396814 -0.5039261923097064 -0.38673942398335326
P 2.454222694259734 8.323254139424861 5.829825333415084 -0.9219297165136638 0.2851826488847734 0.3931905789253357
P 6.989647080225455 4.1187482223896925 1.593675780423434 -0.4122643077273352 0.8478780888138882 -0.5488629049213968
Ni 5.291208901010176 3.0914718251224307 0.5494648488752533 -0.4036166593546662 0.6410014720298702 -0.713143798522075
Ni 1.502952402008596 1.0410866093959827 6.924617415342408 -0.3323631632253179 0.3469724284980605 -0.637264116474625
Ni 7.039558149306046 0.7429367503093195 9.341123975373678 -0.3880134055997705 -1.0454797080538833 0.04308783232840967
Ni 2.7883826133743446 1.6187275597030883 8.850625372801879 0.17205128157471658 -1.1579721562283607 1.9526890876382372
Ni 6.183370395787301 2.0405337494807787 2.4291445838721417 0.35997244030215425 -0.778492242020898 1.427521212340935
Ni 4.656710916942353 7.05690036177538 10.525443640227772 -0.6654598621825506 -0.6916288072684347 -0.5293292057638432
Ni 8.115401821179836 7.423520181192541 0.603439988270648 0.3250306341196467 -1.3953171168045646 -0.5451607734794611
Ni 7.761103144339057 3.965246942805104 7.9057744230721125 0.07997133561832034 -0.9698679349558395 0.9575685487631961
Ni 3.0127327326962177 8.67864237935272 12.62879433355559 1.31405303051675 -1.415636287977891 0.569526089697703
Ni 0.2510180838473612 5.071852612504079 10.16956328097225 -0.16000103527840187 -1.0030950724400853 1.2190623386714619
Ni 8.47644670946811 2.194879440457853 5.566822055609857 0.5858983604081394 0.9635875012637661 0.40886530934811516
Ni 3.9789845173946863 2.795800722058871 11.746826609427325 -1.557838090291343 -0.1621265662618369 -1.0526302030557355
Ni 1.234284304119801 3.647366912149926 12.2675315326499 -1.2442172406705347 -0.02876498794783433 2.0919230655726166
Ni 2.9542776730744515 8.206471135874821 8.129601552112188 0.8231705587648791 0.4595517799593892 -0.4523637468513822
Ni 5.402625806356354 7.812094696814335 3.7799767275090215 0.33937353310488005 0.08632710263301907 -0.3786399348046705
Ni 3.0688906301427266 8.271654247559297 3.705517802076549 -0.6863102232689986 0.6439764954977942 -0.6600374056153987
Ni 3.5723504936045654 3.9445634035353954 9.173323088240421 -1.476961983470566 0.0765067741084876 0.8057145680719608
Ni 7.165493482787547 5.955170486891082 11.456501629244363 1.4396133676187788 2.0000331241398395 0.048685381020845186
Ni 0.451883578796495 9.18320088559403 0.24664984383741528 0.16756650633048562 -0.14460064156293162 -1.2678071121753327
Ni 4.625930759732382 0.39903341328850883 1.600758848458684 -0.44716471914894607 -0.9421085054543838 0.3667562959932071
Ni 5.974519311379119 5.656993388727242 0.3494365015646915 0.25825779946947136 -0.5322126979592253 0.40639190810695824
Ni 8.263373568097501 0.10188232036500104 11.513537532945211 -0.6635940126184056 -0.27392635924466374 -0.5446018156521976
Ni 8.948091330787255 4.736103747220812 5.694064864795852 0.5542712204211615 -0.7366277405766282 -0.07744265565919566
Ni 7.628757548028577 8.643186180560704 2.803431295545378 -0.1971755874461701 0.287191451784686 -0.07133885675430296
P 8.278218865158946 1.5461444987188697 3.4116308585680812 -0.4381383472806196 0.4430532680837337 1.29377062611863
P 1.8359773595741664 3.189523423267111 1.7246131164438638 -0.799454703205178 0.08921650836567216 0.15808530631292775
P 4.757204952340568 0.6090239990919257 8.04661134770789 0.36331178908803236 1.0434323386065514 1.3127407394632293
P 8.604651966047692 1.9150342412341101 12.682389033839746 -0.05270401526193504 0.08625896839924499 -0.7328451336057443
P 6.152072696110968 7.607728980447961 1.4642665566326316 0.5674383539307389 1.1577304725311997 0.8925818594791661
P 1.700717182005752 3.359894771316633 6.1600047153849 0.39851121980730075 -0.5760577201686338 -1.3312817356902105
P 6.588306517100057 3.846357450620045 5.983101436628342 2.0817008736239764 -0.39144120033439683 -0.23132806495816288
P 2.4838860493054487 8.50999617285774 10.35343068379372 1.8564511536494093 -0.17073333409424143 -0.919548617875997
