# total energy = -381165.18870115693 ev
CRYSTAL
PRIMVEC
9.26431218335362 0.00000000000000 0.00000000000000
0.00000000000000 9.26431218335362 0.00000000000000
0.00000000000000 0.00000000000000 13.55925733136628
PRIMCOORD
 96 1
Ni 3.883127221960323 7.2953865086915135 10.714131740440097 -2.5338368207352686 2.0583812250614293 -2.937333923792935
Ni 3.592376045805775 4.170311637892481 5.3307139971951685 -0.4466821230855727 -0.728779448176803 0.23815845761643498
Ni 1.1281338332491606 4.534167502137634 4.195681957032783 0.4367322109617124 -1.708587782174806 0.12891794072035218
Ni 6.631459570152267 4.522494468682538 5.751471267377782 -1.0898111829814068 -1.6181407438361424 1.0098930691985253
Ni 3.5296937090143623 6.644614893569915 4.803583893574928 -2.4341260977064914 1.1322225580680823 1.6086037508799844
Ni 7.193377166331148 5.177759275253122 12.080552949481735 1.1099789161785334 -0.23288563925326988 0.9115853971648622
Ni 1.1222046733989532 4.556068336334338 12.804860969645532 -1.9234301907731197 1.5320926058961226 0.2874570467412469
Ni 1.6725974651189928 1.5858279164361127 9.427399366216473 -0.3427054256915904 1.4685984419972191 0.48540422224611884
Ni 6.608938027033745 2.4559784460153873 12.213270707710043 -0.995126195301996 0.8909175844028655 2.1026605065947788
Ni 6.97422985968012 1.7433490178940465 10.139368248873252 0.16258010885948773 -0.46476572006016087 -0.8106585423407974
Ni 4.872685472335416 5.994028564693636 8.61666365049241 -0.10089420181391658 2.0778840709810473 -0.6151222902702631
Ni 4.731904983142052 5.928465026787514 0.7493892927614006 -0.04021256766314364 1.0359319164644483 0.5358443811745417
Ni 5.029354257064882 4.428665514053005 12.594041353290367 0.552200711045378 0.6446976899345349 -0.8418524514450985
Ni 0.20775590828881624 0.8357085958681554 1.6644124452320266 -0.8873314097135041 -1.3113749694639545 -0.16367488458556326
Ni 9.004930051127111 8.78245685637261 5.738277960279843 -0.8700703086402112 1.8746069986228295 -0.016238059125417197
Ni 3.3893764354342966 2.6177796597401892 0.919997161726214 0.20025808302623577 0.9918135859889949 1.2277009881830663
Ni 6.080279311889623 9.026506634394506 6.343644254554798 -0.1620481476154177 0.231810146800904 -1.9501218411316932
Ni 1.8531403825578099 8.685088934457484 9.76284158474196 -1.0678256798492514 -1.4493475641874072 -0.8997536946372569
Ni 4.002016141269248 7.688452749511205 2.7566915371495107 0.2902328097141711 0.31963080326031407 -0.23205800114565195
Ni 4.960131315813711 5.433296800484797 3.755276933396545 2.5908332927249704 0.42424282024544996 -0.7739059082017962
Ni 7.507205744340175 8.483025019624867 1.7903376097069406 0.47328687015729454 -0.4553421127534158 0.2987411042954984
Ni 4.67336379393352 2.645980226277738 10.968517711657114 1.8297569321876745 -1.4671092590462025 1.6598455797740963
Ni 7.1522528841826 0.16014104896674394 3.9773777027979564 0.3283537849556087 -0.7956016480076749 1.8982768314359435
Ni 0.5396786145844692 5.032272515428657 8.029480421901832 -0.28295530221615134 1.7489049937366137 -0.4741921555803833
P 1.1602439395629403 1.88115566285004 11.541205997276387 0.43397058905617525 0.28048190097499437 -0.005247621552184511
Ni 3.7877696558069083 1.5506698513868358 7.847135595727289 0.2072489125217721 -0.9592251105300125 -0.7158624830048187
P 3.4760626053067827 7.991738540161582 7.910144962741689 0.09722369494086482 0.6790609979057531 -0.2353042759970915
Ni 0.32769910633360677 8.632439847850094 13.362743031401363 0.4545532983035333 0.9872737891371125 -1.0917801337823199
P 6.092128367277772 8.401369371312791 10.566892172734914 0.11116524472262146 0.475513188384652 -0.27231042090779556
P 0.4979493728449544 6.716468899504617 9.704984101778653 -2.223949212904647 -0.02666259689285086 -1.3061666857901377
P 8.74137889578539 4.8529154299598805 5.458726411223601 -0.046657809067855126 0.2787271230674167 1.0606985818861667
Ni 5.870516753564002 3.0228246563197523 3.8986393864184286 -0.6939204315160888 0.6543020457935184 -1.480466654189715
Ni 7.226895448109351 5.158211576371969 3.7832088348783817 1.6871627795318105 2.4247546837939207 -0.7518563846009245
Ni 8.923302195751834 0.29664142589323883 11.335254777016978 -0.08172894173937538 1.0660097096864352 0.030084735200522385
Ni 5.0468360143107285 0.7320900424671938 3.089205306567731 -0.05290224731567018 -0.37106675044310283 -0.31476036254189016
Ni 8.881603526242797 3.2201081860231398 9.400158582429675 -0.0054103723822939076 -0.29152710304556245 0.18029141009632177
Ni 1.9670358375553887 6.288355765382841 3.086589064783827 0.5124709965559239 0.7374193832399881 -0.4271612794438256
Ni 0.4532175675000455 1.0052890526026748 3.870191462743378 0.1708181804985639 -0.8794260388234983 -0.25165649210286983
Ni 3.6590142439347466 9.04440528569232 5.57503799886014 0.11774186949887464 -0.49165405981057253 0.5632004045899912
Ni 4.181206469117237 4.924621206898327 10.427475390307098 0.14232830058898716 0.7156740211430964 1.4192556298980332
Ni 1.6849560576817688 4.561386051574993 10.034365607219758 -0.8468190514217546 -1.7253254066444608 1.720129207155502
Ni 5.445627600110775 3.674105808615978 1.0435024878372618 1.9274984473052221 -0.9605692832627328 1.8568859271939826
Ni 1.8096444364691786 3.1399440919858814 7.555923056821896 0.20875300787112436 -0.07166255864230883 -0.11187461208482023
Ni 7.151826725818366 5.266585501259042 7.87867409397426 -0.04590447584159836 -0.162688609412894 0.46079053746249676
Ni 7.488037882261926 6.996177015438154 5.475458685607132 -0.2053180140476464 -0.4534312688839481 0.2153052071673453
Ni 2.636493570517407 4.8199530069176335 1.1784501660279836 -0.4767825420153789 0.48189569487222816 0.13198655234334689
Ni 7.086967275644455 5.999883610045717 1.3340100125792158 0.06503656868535897 -0.0054504815916099686 -0.5954469233285229
Ni 6.256625495871965 2.3455200508684757 7.868016429143512 -0.18182147358760298 -0.5155442361646089 0.34444220587703905
Ni 3.126510839200255 0.48168957838698706 1.475911483556759 1.8510204695521413 -0.2710266690993655 -0.2159356416624926
Ni 1.052990996460047 6.356504046411162 5.847293902006947 -0.6940602995280627 0.120301916916567 -0.2646531614728539
Ni 5.411859181901391 6.897910455233231 11.999983078567228 2.2134799379422074 -1.1264692005240728 2.8514603637575666
Ni 0.9707609607874824 2.8781531559746902 2.344748333656722 0.3742369206409684 0.6522919573420249 -0.22040293340522688
Ni 4.944419042210661 4.114883257605307 7.447462973830749 -1.3248056410475635 -0.5995383197890771 -0.34582854470160446
Ni 8.31986195199697 3.4373099870983177 7.187301630347138 0.27644578323240776 -0.9156428550636876 -1.0701332449365053
Ni 5.231371850336169 6.252956828214649 6.24235660211995 0.5575750879834139 1.026817612868006 0.2642045039712095
Ni 1.6353734584344088 8.284972552003405 4.542039388270011 2.3522963687231937 0.7070397425068662 -0.0008911443557016909
P 5.096548313929812 1.3821334826446885 0.4634916898029831 0.9441856996983868 1.3869877710032628 2.4074825269770344
Ni 0.4547239446744888 7.091701339212356 1.369023554357144 -0.1382685286973167 1.2883749090243553 -0.4311017521488124
P 2.671142098392057 1.916675036077689 5.926900284445796 -0.7519597429480082 -0.094424792039489 -0.4735110703529587
Ni 9.012415615437998 7.638777507141185 3.662694028766782 -1.353944981615681 -0.8769886330265994 -1.2604822963791453
P 3.26955182058651 6.0917670590994 12.290396107324069 -0.11204096245935542 -1.8669209428324816 1.9315294228414863
P 8.830260707664907 6.613736940787508 12.939382489472019 1.5730821609346068 -2.6048067241859267 -0.034960575235584955
P 6.4401422575481515 4.058871225645378 9.690882892078653 0.1926357905942876 -1.0130843224423134 -0.004444408924598797
Ni 7.271938534346397 1.6399778216305858 2.298443448089055 -0.5596435404766684 1.1386449166546582 -1.6059490868659567
Ni 1.3825966982579863 7.0008740217569905 11.566806071360885 -0.06719578112020685 -0.19657137820326792 1.4554151105377258
Ni 6.876120792783719 7.54966408745502 7.865562312824261 0.05973752506994873 -0.8301752722174864 -0.42127756696953905
Ni 7.263785939552362 7.838617987029974 12.934664175234971 -1.1644981302723365 0.11824400594627378 -0.5376657506539966
Ni 2.9455510277094703 2.0318767591047666 3.3811367561049614 0.32930869266971025 0.8871925701427945 1.5309170975307826
Ni 5.143314562248323 0.3228140344757717 12.351276535379753 0.16078959261796824 -1.0547963574691188 -2.7722202498783157
Ni 7.458531047694878 0.7023256600191523 13.46450501662423 0.19081879199020685 1.5396354512403871 0.6812724037347752
Ni 6.757546860091836 6.208552979523955 9.976169050427519 0.07391124546716948 0.5206869567078128 0.8031511782201587
Ni 8.58448776756154 2.996782674540169 0.5745068701170785 -0.10678228516357739 0.1927427484857971 -0.07474171178826482
Ni 8.183667297375251 2.818565099480105 4.196332311753852 0.16810026734676856 0.525961574843191 0.07161525034414118
Ni 0.07759324738345716 7.70895467255575 7.631909872458438 0.4104601646390609 -0.9995598055933173 1.4704810037319127
Ni 8.641027865320629 3.210649323199606 11.742126695975385 1.2400600239690514 -0.35504080732849175 -0.5022416055184318
Ni 8.323419447907094 0.788830249371226 8.130524422924086 0.5374613479526743 0.430898892109387 -0.34399406259602694
Ni 8.082917901483054 8.245154537884355 9.634300178483143 0.44992222728942516 -0.10867204598712253 0.735881606439223
Ni 3.5266457502788655 3.120035084926357 9.358003182325927 -1.869328780943026 0.3946759052216106 -2.3547450873740026
Ni 2.448863454195138 6.397600535622913 9.147698661732747 1.0147509115114588 1.0565915016963288 -0.3336114338101222
Ni 1.6498535785060873 0.3348002016854568 7.198962620196289 0.33923469353417063 -0.4613039867638055 0.03840739613360482
Ni 5.318817693814464 8.3870282159251 0.816267436578061 -0.16737341648307305 -0.08643148942136727 0.5456515970729506
Ni 2.512676037082996 -0.1084174671547232 12.087671647026891 -0.5796338675556663 0.24241800422373738 0.7514781753258993
Ni 0.33534864897160094 2.0780315628137256 5.823945055803075 1.4268761225577684 -0.41432838934521543 1.0903963660609157
Ni 2.998283493127253 3.5354097896824532 12.414924213509279 -0.7134926972210616 -0.9240871291762988 -1.4741283706765127
Ni 2.9902883916417387 5.865069337951624 7.100589520400308 0.2861331857235007 -0.35201307624576145 -1.556656925499048
Ni 2.894754803555271 7.498960506423481 0.5535556279276345 -0.4052053439980247 -0.42525249245688695 -0.8876471411817101
Ni 1.6270911632686504 1.5031531937747826 13.672884413128545 -1.0270551828001084 1.2069066771455343 -2.0531341177298765
Ni 0.10523795518504944 5.215474290487801 2.09032252589696 -0.8239876553495359 -3.6075282153366772 0.7546771418791712
P 7.508234083001696 3.9574084777087033 2.229141760183622 -0.07633965240300401 -1.797562863953633 -2.1072422124281904
Ni 4.719305518460362 1.9249665955557136 5.441370648624573 0.8909360963456269 -0.14270805252590907 0.7841566393955269
P 3.4711803127426277 4.244648479514457 3.1153482693510135 -2.021150622844745 -1.5319226559771617 -1.087649656553714
Ni 5.5829247078921425 0.05962789303732855 8.555973140838177 -0.8065440059517915 -0.013783169827021423 1.2762842964084085
P 7.387520094176379 1.4602408993589062 6.270614607393549 0.8406340056569652 0.1880414863553858 -1.2869235212898094
P 1.7909119970674294 8.506834302148356 2.275039942442814 -1.5951496822576077 -0.9875272999088154 1.7672472436892275
P 5.62194599115632 7.754961247268454 4.2161968501145 0.10263406732315872 0.38764908028181627 0.8471291264630055
Ni 3.8668776182458484 0.33500494298653427 10.340574288390041 1.4298197785671247 1.5793836776726025 -1.4380192836587815
