# total energy = -340898.19090928277 ev
CRYSTAL
PRIMVEC
9.01829251940906 0.00000000000000 0.00000000000000
0.00000000000000 9.01829251940906 0.00000000000000
0.00000000000000 0.00000000000000 13.19918268513661
PRIMCOORD
 96 1
Ni 6.32106549893031 1.932394623297645 11.54314744575959 1.4461434554278125 1.2109415093365405 -0.022857107103831605
Ni 4.5870192006580215 0.34170761159285695 6.0389164946000005 -0.4061872482953198 -0.15834061685684345 0.054844715754021674
Ni 2.6219152304990985 1.4654725296271955 4.721373722174244 0.7102212255586413 0.8496323525008336 0.41679484860783705
Ni 3.367457470648515 4.424491533402999 4.8886864954244675 0.22407292605764637 -0.2830648312108222 0.05226641350388418
Ni 4.923798315405087 4.459311160706942 2.7349234536914575 0.8421931226139691 0.27198106259283483 -0.29736016478757177
Ni 7.407841890316859 6.031686529510757 2.6128969380090847 -0.2979463763083449 -0.13277433835196487 -0.5284642866603867
Ni 5.08619070827276 4.47214419092023 11.438543369338674 0.039727400496609 0.2874848146553887 0.12668030963908508
Ni 5.741820572296742 7.856673289252341 12.404327643191456 -0.20449860347014456 -0.1558957548607767 0.449652004347174
Ni 2.0174371214784723 6.392246881553987 0.4259628128393062 0.01685898053886774 0.6466144473412735 -0.42044632931749526
Ni 2.7278080209168367 1.4361089692797115 0.3332610788467103 0.3156191109977597 -0.12443496524833408 0.30554835702531896
Ni 0.6296598871404904 -0.08117365070261162 4.634918959389481 -0.3777865856654397 -0.8020448325298574 0.5819164929422559
Ni 8.518652031189292 2.2082912454446286 1.4260003652276554 -0.055286174166814465 1.2852561608897155 0.49513867592506333
Ni 6.683528710688933 0.7900096367591757 4.91798873138302 0.15813364305235994 0.3090301449263323 -1.3313768665071781
Ni 0.853044795776623 7.464783389098804 2.472299052602027 -0.6100016812142462 -0.6302288068943984 0.4872083653343932
Ni 7.36228147665731 3.7253393898222114 3.7588892415435593 1.2308169081042288 -0.07779361124071119 -0.009034085177810248
Ni 7.7455047977279445 3.8984004227055706 12.551630629064837 0.2119820563313833 -0.2623551094672965 -0.1811452734561848
Ni 7.88892270319663 8.933854217429515 6.844647720657017 0.5346313347030469 -0.4774340595564487 0.3778575481126912
Ni 6.884952273453385 0.7152741450651846 0.44525564596319206 -0.1329597148898936 -0.5823594940169454 -0.3223332897931416
Ni 1.7362197067623812 6.6445696871320745 9.132263866843804 -0.04440012338192999 -0.5723787286551497 0.09214550908700904
Ni 0.26436312788150507 4.8383770489396785 1.3593569873849536 -0.8945780639735883 -0.4524203111209305 -0.5199379943569303
Ni 6.281493231484132 2.063601760734852 7.146499890419508 0.20688587275539852 -0.4473850626898682 -0.15546509508126127
Ni 3.145814896121453 4.1777420325837396 0.4390032637798657 0.7203742548322433 0.2990997731864978 -0.4682225682605098
Ni 6.044528578016536 5.704593060897967 4.664089528277678 -0.17656511028467012 -0.8543156169091158 0.5440832241445662
Ni 5.249764497456625 2.9375284127721013 9.474241125382113 -0.07935247108739882 -0.3583498170970667 -0.7472615661413904
P 0.37409049626599744 5.669448775064384 12.35916042708447 -0.6635269068258961 -1.0822997050957104 0.026997097414134148
P 4.133453198165283 6.088321406348042 12.536134497079246 -0.5892958161254626 -0.0319608691773127 0.3721224454011269
P 2.420221118959946 8.388337704708597 1.3354404757014378 0.561714049852452 0.4042203543769361 -0.356560843517444
P 6.3911737047476755 7.803826095260862 5.746884343529885 -1.0720733993820117 -0.4514288937419387 0.3566037809402375
P 4.814541701888573 0.9169619437995938 12.70842356412546 -0.4620730037193461 0.805763161921709 -0.18357753704676127
P 4.038382358735561 6.131510009082716 7.962855566859009 -0.48919788496059613 0.9938596698847464 0.7067726048884085
P 4.656018156499116 0.9928328385180775 3.730340033007924 0.2783594553153529 0.6934519765201025 0.3350111423711263
P 0.31725992248167934 5.504044272505046 3.5462902107254832 -0.06307893073835588 -0.10413764845187871 0.5148068437779522
Ni 1.4081071710982196 0.9857354423284368 2.6017566412961712 0.30327267361726484 0.4726011569441796 -0.5893670356830302
Ni 1.907594318950108 6.451046148588875 4.795514006563894 -0.2968436301624694 0.1821122653551444 -0.39594551596265354
Ni 5.890351849607264 5.707424804739831 9.162990993015779 0.35393291897629364 -0.05972364111287778 0.37179591529964356
Ni 8.71690115499726 2.392345576873314 10.275946585671587 -0.11523247281345961 0.2263954035432359 -0.23392230804790035
Ni 2.111723369461564 5.266430301978171 7.0960786171078425 1.4463005498309671 0.06962187406319623 -0.8106374592948749
Ni 0.6122491716592703 9.13670267040739 9.194721855141891 -0.7338550629274974 -0.25064810544301347 -0.2869855064214671
Ni 1.4414568167262896 0.9716578877515258 11.397493905582632 0.44028727530282236 0.4873675166200767 -0.06542223415955184
Ni 4.169661642512687 6.751328233628855 1.5542693429716157 0.43789949179693616 0.2520560415341337 -0.09630066890596319
Ni 5.557324344536046 7.960293469962596 8.045984383373455 0.4317738385151725 -0.18399559842078633 -0.04436875592336229
Ni 5.113885884509592 2.8053563180384633 4.968832060783218 -0.4757618140603484 -0.42669410999942 -0.592756006759921
Ni 0.8560821566872596 7.450886200371692 6.888072602654931 -0.37451459978238727 0.6333496119115672 -0.24210587229995723
Ni 4.975337856985514 4.415833972612586 7.103681037676924 0.7862428325005942 0.20707639149964985 -0.3669128761757294
Ni 8.071885821234023 7.258769515456935 8.919703614683435 -0.17769382457247462 0.5667611253580561 0.7491729242314905
Ni 4.698918173874111 0.6168331697319441 10.476877749666084 -0.5122339408444533 -1.8042955546917765 -0.2433284318531487
Ni 8.1763897946083 7.0509339467320835 4.815603154914648 0.5915326758757813 -0.1375398780614083 -0.19476492112214847
Ni 7.0454327883131755 6.0745955651782415 6.992267248596799 0.25000558676300816 -0.503949589348474 -0.49111387103638643
Ni 2.3571111081148315 5.053679763846262 2.5714254181645084 0.2543060139105749 0.5169603997858451 0.6593527208435483
Ni 2.298735700826974 5.280949752887093 11.330125457023732 -0.004598675114275951 0.13665207613981625 0.44593958849259324
Ni 1.0737539770309688 3.231804315013732 3.7349988829082648 -0.50350555983252 0.5748513585653583 0.4130770334366176
Ni 3.494994163042286 2.6354787424040786 2.5279202733634345 0.013737661301066663 -0.529222762092966 0.4455919753451874
Ni 1.0461038922565873 3.430206749794029 8.236117945769658 -0.1485791665947054 -1.0770199447540096 -0.7966907673067957
Ni 3.6481788792776557 2.5378827810771525 7.075342857185555 -0.8692575829309287 -0.16744540737158903 -0.38092770239758267
Ni 4.2279919583380945 6.857148877706674 5.831940369149447 -0.20482307668909888 0.4745510815816989 0.7095707364588361
Ni 0.9179719925584754 7.52909283284509 11.376019547505411 0.018681635569903307 -0.3389199905072292 0.22657203833041628
P 0.09623961013642819 5.703312463364385 7.856444224623095 -0.5467417448133358 -1.220354318010008 0.5794369210535117
P 8.504565458319892 1.64207775145913 7.971871153861276 0.013522202856150906 0.8495462205449306 0.6135714008433756
P 1.9410702206730381 3.2926958259063035 10.262311829255935 -1.1896867137228222 -1.037846616988658 0.7428495531166239
P 3.984218494040539 6.238764561666447 3.738312203569096 -0.05454158269130606 -1.0389102823664818 -0.5498980310541305
P 6.9297731871287525 4.082184205359556 10.389446305804652 0.39362586669054145 -0.2734820726183935 0.26469275646153767
P 6.2976810665037055 7.771053620352153 10.297052095585965 -0.14739697336114618 -0.2900916561506165 -1.2887484903136903
P 2.4592973803191747 8.44996871558535 5.663043081908727 0.3783992795487741 0.03474588812161758 1.113096635871909
P 6.923018486053732 3.9363854706735077 1.5489503540610057 -0.30496291683549415 0.33584315135411835 -0.14134665340200817
Ni 5.127864237869113 2.8976405050887712 0.5549505484947205 0.42269733013520105 0.0207814555217255 -0.6991749950468087
Ni 1.4173689574854635 0.9537836320363189 6.927828843267906 -0.16627529832288784 1.0825303330492775 0.2514587742697669
Ni 7.002767246542921 0.760865220919199 9.339952437401069 -0.8995158675948379 0.026716075838605597 -0.9415541756128106
Ni 2.7323171671618436 1.490471236409513 9.122892057288182 -0.2933196761696109 0.249079475404313 0.6305872186750817
Ni 6.225092830251587 2.008391774110989 2.510128084109887 0.13651606478258427 -0.35074912193167335 0.7931218190086147
Ni 4.04470418177106 6.750038617802783 10.355893748595557 0.2065997089735474 1.0310391071485212 -0.14199302873675543
Ni 8.34313802274865 7.271476289575364 0.3057661087031571 -0.8057009412252061 -0.6271722794562619 0.3203301433201838
Ni 7.46913922437148 3.863355338089378 8.283675009386496 0.6257437745398514 -0.15889263270557152 -0.7168934953724944
Ni 3.29753864897344 8.260972359872136 12.264455730329843 -0.49947921228194625 -0.10180128700921821 0.5206746154126387
Ni 0.04222003812124726 4.853347414473101 9.948131653659596 0.3102429342875109 0.6037940097416375 0.910302930908013
Ni 8.464930062826282 2.3332667427712357 5.744165328344146 0.421785616954209 -0.18830219621594024 0.8317796405901288
Ni 3.6462309280998126 2.599189133424264 11.520484476732188 -0.5389160781213299 0.03432422720316669 -0.08843669277685413
Ni 1.2082257363495603 3.329183837320898 12.401331766426273 -0.575302587170164 -0.16211782451108855 0.11531217701145946
Ni 3.099821604422384 8.28965052999038 7.919509144005759 0.2599701541748878 -0.26438653807502854 -0.4024856310740165
Ni 5.654009458321481 7.834587490944298 3.5531675605783675 -0.24695420153119405 0.3800602121909648 0.15014059754455433
Ni 3.175097291836527 8.347520912898796 3.534820746336684 -0.18600388710006677 -0.4749028084941627 -0.21567878845668015
Ni 3.3110029596610304 4.528228951915624 9.300777876653697 1.3093347991054742 -0.04902733774129621 -1.047636092275254
Ni 7.443175560292731 6.161026880402531 11.345951658514457 -0.1453724867319496 -0.3424568000158941 -0.10333417871397688
Ni 0.530612882551921 9.220392424714715 0.41559628562203565 0.20281813044392813 -0.37017894852151084 0.03129212524506224
Ni 4.659625473495121 0.23859245526204248 1.6215593323858513 -0.33754187921278 -0.2420801612683444 -0.31690594812998324
Ni 6.14054633815771 5.582692801310453 0.2857572231555642 -0.28469491061507746 0.44563054189260676 0.6957711115715823
Ni 7.976751853756871 8.775141287897767 11.261239229838763 0.07381919997399544 0.630371760230166 0.9505471231400404
Ni 0.045937378285630825 4.642238205574375 5.874520237141047 -0.48367952624552835 1.0872038272655469 -0.5816951209600691
Ni 7.788224449253138 8.89652750481335 2.607063004597295 0.9239583169079183 -0.2066004803044958 0.41906230448577503
P 8.57693725555225 1.5224591198715909 3.7642884932573306 -1.013657421336964 0.7937347700022652 -0.9062950953002005
P 1.579247307681206 3.0180617647079218 1.5193712565230104 0.755678329450176 0.02728274697535301 -0.18216188764615726
P 4.723042106284896 0.990596301980554 8.31005982772453 0.35475824309106646 0.5800167048163817 -0.6435435217254336
P 8.54962986589249 1.7101929146362023 12.40748224190446 -0.769910670999474 -0.23602469910288384 -0.4163585324013668
P 6.415919899340272 7.700945414534788 1.4636706747876909 -0.19823925282399407 -0.7359667099538615 -1.0112148733337423
P 1.8077798576706383 3.2926417161513633 5.97321101917626 0.0918644875114805 -1.022333351844407 0.08331171284546297
P 6.778536422071225 3.8696501062474074 5.863222120309557 0.17122107236393738 1.1195583323368525 0.890308490063957
P 2.4566910937895607 8.436143673198158 10.117463622598335 0.8453393815524344 0.7245849504794811 0.5457768097969052
