# total energy = -340888.586205625 ev
CRYSTAL
PRIMVEC
9.11830308405543 0.00000000000000 0.00000000000000
0.00000000000000 9.11830308405543 0.00000000000000
0.00000000000000 0.00000000000000 13.34555825571860
PRIMCOORD
 96 1
Ni 6.864103696637001 2.241981055122148 11.304061787091264 -1.825640853136772 -0.5526953912936093 0.9703315048558191
Ni 5.197214029267892 0.7936625883123059 5.652938620636972 -1.0380044827227606 -1.1153270678643243 0.39774811638903107
Ni 2.9990555397005414 1.9706841776872954 4.5728555370726705 0.12935811358156432 -0.8172071420925926 0.783364996732167
Ni 3.6018574511158836 4.552905601330402 4.576459090528196 -0.6135546886728271 -1.1772628861371726 1.0106098927598919
Ni 3.849519686453767 2.6904100920383787 2.3601487946250295 -0.6430565547866861 0.4503148347421535 -0.14548638660199462
Ni 5.1594095438766745 4.599180990467023 2.6164770653984677 1.1003460210744598 0.09813155146711486 0.09964336012595097
Ni 4.999501859287725 4.349722449383344 11.627425088074691 1.6822707415468319 0.5677214323887964 -0.935414638373976
Ni 5.775177682553547 8.059823278714168 11.8502691255501 0.2827071907610873 0.4209327820356105 0.8574425925738717
Ni 2.184599572592738 6.625523291364157 0.38790447524684224 -0.684797386168898 -0.2856091948992307 -0.4776333200514484
Ni 2.9569563334653144 1.5245255982873243 0.3650904804449063 -0.31162593067796657 0.0908491588730887 -0.02502274729658271
Ni 8.267665883636363 0.18600609223167566 6.5130727280166765 -0.6439271303170974 0.14309988864768902 0.4400651319896872
Ni 8.744507553567315 2.5726289685944908 1.1680619445738771 -0.2478422605631022 0.25243090837504917 -0.05427881594822265
Ni 7.112212728835514 0.40255029397220976 4.24983964344414 -0.4656082705661142 0.5615484708088652 0.27629383103557575
Ni 0.8571898072511899 7.561425939833666 2.3548775034999294 -0.9254115044146772 -0.9101481504977036 -0.16660362819658403
Ni 7.463933041183665 4.017269111861927 3.8504342522725654 1.0967878714095562 -0.09530462354128102 -0.04296159116319053
Ni 7.962530982736288 4.232488424136145 12.491816531254965 -0.9098563302888976 -0.5423639274606143 -0.1101936248379715
Ni 8.432980722069257 7.581002936971857 9.22495733610543 0.20264740919401875 -1.0460571778239083 -1.7376456187727107
Ni 6.952204742910505 0.756229217864509 0.15388504527373006 -0.057778087350732754 0.04229156167935943 -0.22490313526842556
Ni 1.9422350714594614 6.70099548759742 9.116457733568375 -0.07435321810059453 -0.03796413794859914 -0.17569504897489097
Ni 0.3679572749955572 5.172448717564431 1.0000243807821276 -0.40511098451200556 -0.6142499149676388 -0.08127154248698261
Ni 6.590518125079331 2.1233701660799484 7.158664101225403 0.16536538491410877 0.29265273200957337 -0.03875398083974616
Ni 3.649400284408167 4.421647625641406 0.49964289910829873 -1.2299309059548496 -0.143221758937534 0.14037940439273242
Ni 6.144651331384261 5.756047482275985 4.951175763743848 -0.2950690547605499 -0.6555598294600194 -0.0018679064466742027
Ni 5.2647806565589965 2.840077922045964 9.394152012583179 1.0898240384972133 -0.027084257811301745 0.40461681848440634
P 0.3058205973065913 5.791098240077201 12.168066614212544 0.8498773786321041 0.5380192773386734 0.5765979089428198
P 4.132487992084654 6.049428890250522 12.498222139307867 0.10113717106265807 2.132007078077696 0.7486635886952397
P 2.4392829014547983 8.761166693656499 1.6292392813032923 1.0741935310488082 -0.16852089982395493 -3.196600881253211
P 6.572773906900048 7.899596453510484 5.568514074245219 0.3404698514928523 -0.15361595768766448 0.931793239571305
P 4.99237134612421 1.0337329243407996 12.529824354809287 -0.6481098009398774 -0.6283655284334146 -1.1136139418279596
P 3.9390796612517747 6.240557645263863 8.197829710659326 -1.1717519836212722 1.112762906681574 -0.6985396754556551
P 4.886808749073046 1.1957742918968366 3.4095369338640875 0.1959741109389012 -0.7446259282907562 1.3547551362218022
P 0.35580895953807545 5.819884723526327 3.719460767645847 -0.06000080603366441 -0.8277126696096069 -0.7702634263532024
Ni 0.4619004181793725 8.875902303805482 4.334958092715361 1.1989419137725028 0.9179234235677481 0.3108749114445549
Ni 2.214316122976235 6.524611028984851 4.75661032022497 -0.763532278276956 1.5548147300839867 -0.34141961700063134
Ni 5.632603892496365 5.518707166248971 9.244215192628888 1.104097517697092 0.4520315603229441 0.32511856584776266
Ni 8.946660337243943 2.4399485375941032 10.290666326382054 0.3677070899422506 0.8857087865084167 -1.06517590093123
Ni 2.3058456512823238 5.568666349909964 6.839118633824537 0.12815535152271476 -0.5011519719986788 0.7841841501993527
Ni 0.9122680063725385 0.3141629329757724 9.169292830083299 -1.0406861433199819 -1.5452612820675966 0.4276860415990441
Ni 1.639908607969058 1.4257105456619923 11.529081451728839 -0.0026760041702663592 -3.156945471645118 -1.0385716680801405
Ni 4.34372260582632 6.612265278397724 1.5503404266981 0.48703867252574834 1.3017078786878356 -0.2340997141660291
Ni 5.999287340523965 8.357927967786788 7.63316601453518 -0.785782347924408 1.0267409939937997 -0.39573905637880236
Ni 5.342623611644579 3.015112871773367 4.856422003398604 0.8817094355410363 0.2388598545588338 -0.2397844232556322
Ni 0.9050353682123085 7.877712525642919 7.176614393058772 0.15707563410149078 -0.7099713143313644 -0.35007729267562937
Ni 4.980107228215096 4.711719089525973 6.986880738446988 0.6558254244165802 0.6744294126710126 -0.6695867398667308
Ni 0.94502095174766 7.686519942506631 11.21971748176836 0.6868195588052494 -0.6078674084800629 0.3855523456537876
Ni 4.807835124380972 0.4257354037175666 10.041598960509008 0.19909620150765064 -0.20953539456310363 0.6535985919685905
Ni 8.596727212338308 7.053363199478321 5.273657324800278 -0.6177748974017618 0.073518380904125 0.019312841395998998
Ni 7.17395276033188 6.187698841160417 7.1382992826839775 0.38753003820544873 0.12799362913386989 0.4656540362023851
Ni 2.349513205681393 5.474574578382715 2.5130217082348847 -0.15752352027218677 -0.7101975714095575 0.4185611964796404
Ni 2.542000587883179 5.344857595947727 11.084860511775476 -0.6158511980164877 0.13771959817238216 1.256156672420598
Ni 1.1517511236699194 3.4513416189034305 3.830281890197522 -0.7141696686834281 0.8442921712348427 0.05078648652424801
Ni 1.4554270960454894 1.4250631461292436 2.448589953610808 0.12946918523813186 -0.14100906755693135 0.6633906383583478
Ni 1.3093701141360525 3.607665810304066 8.08680798543553 -0.9628141134328515 -0.37248599938813265 0.4215848137973127
Ni 3.8785706006979583 2.7367310726913905 6.9385564665637665 -1.281811653984541 0.008638392401288348 -0.7413930231757554
Ni 4.345610094604897 7.410353891121245 5.892117186604862 -0.5473896628099798 -0.16595159643488194 0.14000916553750725
Ni 0.7508047392443363 0.18911452181919766 0.23016421134710957 0.5549466492216314 -0.5328747570232564 0.28285580052380965
P 0.11100895959920434 5.867236072449769 8.00385148587156 0.9495055692494034 0.06282413441507245 -1.1109988728026157
P 8.829408075390186 1.7661879900681832 8.107079797283518 -0.7561858652142138 0.6993140917278343 -0.9213967268283293
P 1.9575355843602003 3.406926363635553 10.48435094180426 -0.6295837171112318 -0.6406060363636645 -1.7568540733803615
P 4.269490498838886 6.3646121613631195 3.7548525499896663 -1.7317328528327014 -0.24569590364406071 0.02295223792079918
P 6.897403740208811 4.223461303890775 10.38877015135169 1.202571282994974 -0.5482142155938042 0.12350268324205181
P 6.312336928669475 7.761034716895688 9.619091436151907 0.31049901616237496 -0.4620866305661009 2.0824835174262715
P 2.471634641485681 8.902473039558018 5.896134711029216 0.8024464388436503 -2.0460227034960763 -1.8012709089328396
P 7.038719204413609 4.111105570897387 1.4621791996229607 0.3058077813342927 -0.6296783337075672 -0.8644341934003564
Ni 5.299594338474981 2.833695109751257 0.24502157470853023 1.1565439084222662 0.23305507495159863 0.5854193638891918
Ni 1.536233499696471 1.3255368658482158 6.8214218308223 -0.6280891348435763 1.497960182988788 0.6579337290088346
Ni 7.126026958301913 0.8753078758648777 9.239904058838977 -0.4085971432883931 0.10481410569361305 -1.2554195371442571
Ni 2.706257703135807 1.622264691125834 9.10419361565926 1.6883359739043051 1.8395065553752705 0.7443269089930987
Ni 6.600858280996756 2.1778429098636276 2.4493367426492885 -0.10132743269659324 -0.10095179452472937 -0.02120825864649896
Ni 4.064046007678845 7.0836633212716205 10.407280307006337 0.5930372854457657 -0.02160549408491763 -0.7114810661076715
Ni 8.355921941065594 7.503287638132169 13.159041078991105 -0.6313770615662287 -0.33175998242368027 0.7429436554923269
Ni 7.900763596330088 3.9798475952083914 8.209106316323416 -0.09821382676827602 -0.21878930906120383 0.4263426401972722
Ni 3.143225032831401 8.177257906633487 12.4009334906513 1.1595217601036676 1.3474493465890085 0.7271907635334444
Ni 0.21506247745783444 5.052032404473158 10.004017873548106 -0.2695290015079164 -0.5319219061916839 1.0609438651277534
Ni 8.563700717864842 2.5485475296368922 5.716410217925859 0.44124809655419495 -0.9281433015235434 0.24827420589419824
Ni 3.5627308117493337 2.6798875700553917 11.679952897769141 0.7439862378242285 -0.5588907214710439 -0.07897323337110915
Ni 1.054705021880549 3.2962575167486237 12.587423764787042 0.613124543113944 1.4150117670200146 1.0772649708852804
Ni 3.1288272319551993 8.634841720040981 8.026766693839885 1.2926735363997093 -0.7647687217872184 -0.15784259417450236
Ni 5.985445756147731 7.5171930506313505 3.4756501036126557 -0.06989415388797639 1.6808589488009695 -1.61015078365213
Ni 2.910872428697535 8.711681661765967 3.6170731637961357 1.4590033421096162 -0.21289556928458822 1.6022937495015568
Ni 3.5163460029733753 4.185082365393034 8.954442809091844 -1.0757143385687087 0.8988255263960326 0.45231412456036935
Ni 7.39824478436786 6.365460163567987 11.141580005486892 -0.25603816611033325 -0.6411539384473346 -0.2609281472127829
Ni 8.247614734727707 0.21604998970285827 2.150276455393119 0.6264978790970565 -0.5114024460820935 -0.34397889308737534
Ni 4.751876097162954 0.15803296143496137 1.3082941543492306 -0.24926536616287392 -0.43348182234521476 0.6083528327569137
Ni 6.262277443672421 5.704994102221613 0.13060510517428053 -0.5011941380905238 0.9281726120995821 -0.14285357696483786
Ni 8.216676331704937 8.984027144077807 10.936391738648968 -0.7686132923442891 0.8820783888446808 2.5399092521815936
Ni 0.0637314689323147 4.799045080020834 5.763893782246835 0.4683639789343805 0.6511658141573817 0.6684050608538037
Ni 7.596604353880775 5.997253958892936 2.309075354303445 0.17211478782280035 1.0921938242809706 0.514898375050494
P 8.738142977879164 1.694964923162539 3.705861730136812 0.07214386915410156 1.1503233814338514 -0.4773134748181844
P 1.7954303886812162 3.4462809605840565 1.6443200430950278 0.2157196689969446 0.28083388499777445 -1.2497559111005767
P 4.7949236069391095 1.2348188665338826 8.003545110881415 0.12540170003697756 -1.5304319303642482 0.1726133247257737
P 8.66010853842474 1.4962679764283313 12.379713375262382 0.3742839718288199 1.2866813233720162 -0.03988526623071195
P 6.663236593722593 8.060534506369864 1.347367907556767 -0.12028957562139285 -1.6492858019803789 -0.10744948643393107
P 1.951818408204799 3.4295671106752037 6.0087439328537355 -0.06515046855540392 0.31763922675158196 -1.0313913482816175
P 6.995370790629276 4.0590309408758625 6.144481730943288 -0.6274795262840355 0.4314200547201796 -0.5916018385508198
P 2.7468706259366953 8.836182974725853 10.421480240701403 -1.2924845603173545 0.4566652024402136 -1.0482107338318012
