# total energy = -381171.6028678796 ev
CRYSTAL
PRIMVEC
9.19767556943779 0.00000000000000 0.00000000000000
0.00000000000000 9.19767556943779 0.00000000000000
0.00000000000000 0.00000000000000 13.46172791116409
PRIMCOORD
 96 1
Ni 1.3587174341733383 6.006514474524087 3.782449365128303 0.9487851461436113 0.4830560337289165 -0.8402575961541529
Ni 3.3356474378717826 4.136820170949027 2.742988770538357 1.4712639046445242 1.3243155887850224 -0.7371766711015627
Ni 5.039020173102115 5.6079423989475545 5.739784640673144 0.2835649107756923 1.9796928699205905 -0.8788444552884155
Ni 7.456058955504049 8.667751544795982 7.04717444601566 -0.8165988190846323 2.2708787875766503 0.2875470353518919
Ni 2.9411315372463127 6.503933970053102 7.269575162419595 0.07066857016015572 -1.7468861635343722 1.53565846887051
Ni 2.524440040686587 1.2289566264419105 9.15604786587158 -0.8869583426448014 -1.0251996176486087 -0.4435428061256426
Ni 6.767511760467018 4.003168746427806 13.0434721424544 0.5958575285033803 -2.9108240504278644 -2.8794763893545183
Ni 0.19434688597711028 1.1101318550297814 7.662159551163608 1.4524388015182212 -2.9949119793177195 3.3700037917598156
Ni 0.6024643093182906 0.5333189432648064 10.233296191003333 -1.2444846353993084 -0.04430756366812369 -0.6045149470680621
Ni 2.8358549420312626 4.50066182336183 5.362304674842127 0.8281353589693223 -0.35157573159802674 -0.6185418574747735
Ni 7.057404100846884 1.4084216732561734 9.766712822778 0.6007109999409397 -1.6384701994221136 0.5086405670662402
Ni 1.3838546816591615 8.092722062334886 8.20696915058796 0.1060430930047077 0.4916160074837856 0.06527902371346822
Ni 7.681751520014524 6.572217513900431 6.387307443115583 0.12368985955219343 -0.1400083942065589 0.2312308772586663
Ni 0.3611513322922018 2.2350995608442803 0.6701122937798643 -0.0017771465050808104 -1.5444030478323596 -0.37916546829083736
Ni 3.3051387478203833 0.3832413898431354 11.692130324365541 -0.5356016690361163 0.8141953518494623 0.827509295349549
Ni 6.797330624846468 8.756729858801782 2.6867587805988844 0.34284452237261603 -0.11843066803578313 -1.2928959368231605
Ni 1.536940794778093 2.0861983901351726 12.000995630026694 0.6723884709815839 0.655591196918587 -0.006430843227008279
Ni 5.284092240156545 5.133811418103539 0.5924885103343449 -1.9224313171949603 2.351173310862344 0.5331591210328946
Ni 3.458712337747492 8.636396668586992 8.028951817917228 2.8581362331158457 -0.05205635437560713 0.7722048663502895
Ni 5.71662213414422 1.9143490187392274 11.873500209801946 0.39357213063447055 0.16620099344152667 -0.6683443828191974
Ni 4.94324477680871 4.732746772432366 9.304935240067248 0.6086904186019904 -0.4706576600645636 0.2613716625081047
Ni 5.2341488615074345 2.4931403505313523 8.491846918216538 -0.1401778299048876 -1.1569051484164268 1.6072413233148188
Ni 0.5588167396351683 8.96205876947632 1.7136244644830574 -0.747246653743055 0.6220984644777802 0.41147420772587195
Ni 2.107960090666259 7.982009640824876 10.39456731566183 -0.03784535298254772 -1.3519143243388974 0.7733346090793585
P 0.3951900902488554 7.829723725485406 6.36034353725044 -0.5717143555982734 0.13301242250469997 -1.1738322631890687
Ni 4.031488389680221 1.383413193229114 2.4387397782738875 1.0660207654300287 0.15764487634139945 1.1852672444988879
P 6.2029124421657915 4.915237854527579 7.529925488456352 1.3649845272592944 0.6624676123234461 0.287557319764537
Ni 3.6593504338527776 7.487873715494338 12.689873021618697 0.08427664786189357 -0.1423738091149419 0.6618130094585828
P 1.9759550500820897 4.544451957017155 7.379867250153496 0.30336317644854205 -0.48086725360771376 1.2436497982028387
P 0.3811148872384071 6.430775658123999 9.976971687588069 1.152816837279666 -1.072615645038727 1.9197771674015647
P 3.5937985996663664 6.274028870105925 3.3736034858775445 0.19725966251954416 0.3576738740759647 -0.38994224719136716
Ni 0.7602393974713505 9.111134696022322 12.538805798299668 0.9865513091487912 -1.0214501779085055 0.9491186182236299
Ni 4.36235637497386 1.0137218191181832 6.555188017478915 0.5184105019688104 0.12975406346840235 0.03884371234007503
Ni 6.971249473258262 0.35087752861797405 4.9761954497388095 0.2899960111130167 0.3419958012190756 -1.2041805364636229
Ni 5.996010728959209 8.672396370987105 12.084727589855431 0.11272127635583168 -0.07274216485973278 -1.1006316706356787
Ni 8.516118664425957 7.62106525623426 8.677834036817188 -1.8896980886279973 0.446854901218011 0.4626445599521
Ni 0.8724280459193299 5.629179831967959 5.958712314760706 -1.1371297655617125 2.4462858729974775 1.5154274865356159
Ni 6.816415801770392 3.706709265650986 10.182397173856682 0.18829396868582413 -0.6566286370441659 0.19574733964007576
Ni 0.9470294731541498 4.252085441893899 2.2422930629513647 -1.1837235541608517 -0.42128810849250026 0.6699258683737044
Ni 3.8450882954439636 8.351277921857013 1.6980491205780108 -0.5617868120719164 -1.5603395165569578 0.280985065863658
Ni 6.268602241486592 2.1564226435395852 6.3736304994597415 1.7854488542989186 -0.14635130570545118 -0.2926180221168961
Ni 2.9281720122892962 7.223081831897792 5.241606336904985 0.3606072456726757 0.26814086291113826 -1.3828302971914634
Ni 2.454969996683505 2.345462470680501 7.139279049966734 0.9500670981798284 0.9021157671115303 -1.5219388052915723
Ni 0.49780947697555755 0.8814509657084234 4.671219841099887 -0.15130710704882974 0.8424679735419103 -0.08206292804002642
Ni 7.452462664334287 2.8777595521832606 4.401204597515342 0.22097191853481946 0.5943020110908023 0.0867024836945668
Ni 4.777079568949625 8.597950384470364 4.107187099617222 -1.135442607667277 0.34384005351666586 0.2993859369683489
Ni 8.926914450909424 8.011175470234882 4.1499277784836215 -0.028661886711066765 -1.2849008344328259 -0.02189114364613649
Ni 1.1022586446939364 3.081984741782681 8.749329408993113 -1.1305294866363755 0.9605371444732167 1.7937224071616205
Ni 0.7090276593534162 6.632167963630616 12.463675504716354 1.5771820420355935 -0.8853568024856364 0.3876717059896356
Ni 4.706202280575767 3.658439863965805 6.721992463794008 -2.2934348185002955 -0.099259494423971 0.01840241376658766
Ni 2.8973597989422393 5.74898875467207 0.9772613131692072 -0.3658993473095505 0.3236422384125523 0.14627571527250935
Ni 3.3274707042402802 2.8359009304093923 10.444415958251993 0.7932706858816532 0.8533807637996723 0.42342803765363857
Ni 6.527820333653791 7.04771894841272 4.4013655568387975 0.35102602974214386 0.010666221464594533 -0.23346773700898502
Ni 4.300731948279745 7.177387779387888 10.288650562223209 0.19120600012629652 0.25109984826845144 1.1244244021799024
Ni 8.373573087574405 1.598887140119117 12.31723839130745 -1.0337223104076392 -0.40153098047023106 -1.9879975331315438
Ni 8.987701889121572 2.0086619846081004 2.7172361985531555 -1.6127969630257257 -0.18372768947138035 1.1858925367877124
P 6.304454781076691 8.527321433338408 10.028085010576806 0.7141940941634604 -1.6711435212854187 -1.059825178142278
Ni 0.37460017359252035 6.378772000134668 1.5444240236673963 -0.6988530929310157 0.8739457324352174 0.15509871288077806
P 5.0269252296539415 3.9737177890733952 11.53591976083646 1.018576455905136 1.5357667123136003 -1.3806325182091963
Ni 3.2205845157906827 5.214622196153463 11.918663556428232 0.2861794655804039 0.7207714902706619 0.24827960521083692
P 2.142745699883742 3.303970643015883 0.830145411299104 1.376832684847132 0.3715269779089731 -0.35822640414532503
P 6.3709907665550825 1.6749059291679018 3.049942799204429 -0.6628203676771747 -0.24276356048861417 -0.8739971544984432
P 7.227450727820136 6.464825453291404 2.246492721642191 -0.15392140474322524 1.5593527271636565 -1.4395426622818435
Ni 7.683710624922858 6.086497461767671 13.446798496562003 -0.1487167206138342 1.1520719886938418 1.8675804307933515
Ni 2.4936002343126518 0.9642107312234939 0.6642230220765446 0.10025476845770476 0.27692529397198756 -0.37300819044018985
Ni 7.859349438676711 8.53073377099565 0.24969205952136328 0.7445945608321886 -0.22983836778651384 -0.18138310049860373
Ni 4.935435950202247 0.6624092404431 0.17554867653271758 -0.5924287053274894 0.6343883375887267 1.4186709610391566
Ni 2.866234864623898 5.069519665477889 9.628837825609327 -2.7474535844565975 1.2405495620109601 -1.3094193883994805
Ni 4.559766086934424 0.6027991047110767 9.86597965673903 1.5137968929107284 0.01103131811349713 -0.2985284740640601
Ni 5.803825296754205 7.5227604991437085 0.5518945689590503 -0.37458093424394845 -0.5767172081295034 1.3988894075368552
Ni 6.040279141747086 4.8915630374662875 3.0679950771555546 -2.3434939399402155 -0.2930509958892566 0.38817589931956376
Ni 0.6526376298580511 3.7884949973172644 4.744855512393978 -0.8637027145509706 -2.2784943951403793 -0.8235953050071235
Ni 6.827692152087852 6.208228698677612 9.672789838355671 0.7004602895171357 0.6720930512283522 -0.9638266138577659
Ni 8.620742224671561 5.085192504744571 8.358319662316267 0.7669996680002661 0.5576465646512977 1.0476983129717568
Ni 2.170991761731149 8.819034913492219 3.5140492333836817 0.5471263818462642 0.03655825874000801 0.09561444147221598
Ni 5.459795437639778 3.136646528027923 1.5087765922437575 -0.20814494197348024 -1.8886691331428505 0.7448760966283494
Ni 2.054530792954899 2.382795836046383 3.275965560269877 -0.575224682744377 -1.1343360048666595 0.3998199113163953
Ni 1.0544767198169327 4.2782344336985805 11.075300165487022 -0.03463507357536616 0.4844233463900883 -0.5121187554228276
Ni 7.969942290403582 4.381515133302791 6.267860908831138 -0.523336221405202 -1.5962927947231154 -1.552959422042803
Ni 7.734996864213363 4.022723004808656 1.5328064395842118 0.35726352601142347 -0.3187851674305671 2.2978470886353786
Ni 8.235203255457053 7.692319649308783 11.404829888977078 -1.1185998250783251 0.8285637047559924 -1.4754195786841107
Ni 8.174277852110514 5.2667914123040624 3.7125295547871104 1.7653343429372306 0.1107060456980158 1.260167336241888
Ni 0.10231218436079421 4.348569059210505 13.403156445484257 1.4027625173390164 0.6796598078320166 -1.540491114372463
Ni 4.752337821515718 3.200827908546062 4.385278822168946 0.30124587299522315 -1.2964360887659347 0.0900973683087287
Ni 7.684345264541053 2.868883795204183 8.055511945822392 0.6288393827460396 -0.11739374213083655 0.50684079485334
Ni 8.051323324342317 5.140121023582966 11.409379979109255 2.528530320920691 0.3141191294134655 -0.7176689400859382
Ni 2.2211098962171536 0.20412125586484692 6.198331079936488 -2.2602580746380108 -2.090392744971019 0.7352270035743595
Ni 3.77284975107746 3.1101020361713236 12.888285280222492 -0.945723476499152 -1.9690533879288736 2.1131408373008127
P 8.810471877484426 2.0764580516472524 6.161217539018066 -2.649378854369347 3.5259185727839855 -3.4605583022106208
Ni 7.205127969075864 1.5117023728603842 0.6445997811285009 -1.5872281134176858 0.5565502462633254 2.6068276112706976
P 8.977014190044176 2.4978955488299874 10.530934813795403 -0.2451991665133003 1.521611503859141 -1.2962028897092064
Ni 6.051123201310124 6.098086533056415 11.754040798771623 -2.497215312857493 0.11812804919369978 1.2079448886020616
P 3.1122450945921787 1.4010727304310095 4.840285076083846 0.8903416572947376 0.9077973908773398 -2.2670938666129214
P 1.8971585629942571 7.741968702337862 0.6162093157737661 0.3301386447701734 -0.01880016342563859 -0.5343138034626281
P 5.389709149369756 8.310035544350086 6.289467168644144 0.2157476940214026 -1.0510731429812608 -0.28382793462909184
Ni 5.128642324401735 6.872374460278899 8.262970118404347 0.6194018914822235 0.8744175298653134 -3.200889481326236
