# total energy = -340892.3201109019 ev
CRYSTAL
PRIMVEC
9.08639826773996 0.00000000000000 0.00000000000000
0.00000000000000 9.08639826773996 0.00000000000000
0.00000000000000 0.00000000000000 13.29886233205284
PRIMCOORD
 96 1
Ni 6.353046014467084 2.0669375000885526 11.35686912673504 1.7615550784004563 0.48659258612726525 0.93892959350577
Ni 4.699630493088506 0.22488290177729356 6.19163069495943 -0.4666130576815447 1.6346839929068042 -1.1002015250767956
Ni 2.5274088979150817 1.6104005126505405 4.746629887394754 0.995998313494304 -0.8144951424780683 -0.13108435224405166
Ni 3.724541851003174 4.6454028690730995 5.109117202390765 -1.0174253730198282 -0.11758708908856523 -0.9530624333627264
Ni 5.0327560211804645 4.293432151268012 2.9169455114921026 0.13522999898130902 -0.05050495072808721 -0.17023531141190038
Ni 7.294078836376521 6.236058638596047 2.639079822242652 0.5117189488812477 -0.4594263101251185 -0.1060675184847399
Ni 5.032165405302281 4.512132667760439 11.709941115992986 0.727855907921269 0.5941418313638541 -0.744339507398589
Ni 5.586926356481335 7.875144910130072 12.677206369291913 -0.46404632539563306 0.2668331998433082 -0.2635807543442815
Ni 1.636305833707498 6.747023150808235 0.11765159157404118 0.47427160266806706 -0.4717313527447166 0.822938388149415
Ni 2.6445780017486373 1.6321351769677073 0.28977250535363736 0.28520296059974753 -0.548697582988126 0.2387516111157436
Ni 0.7555439992070077 -0.4052497218561493 4.58903812421848 0.19053982729720734 1.737644590331446 -0.34285326412336437
Ni 8.328856027750927 2.3184671730098776 1.4587657920856116 0.6927472371435941 1.593718606238036 0.1799769641796965
Ni 6.61129962200158 0.9368258195771421 4.891720584029405 1.5399825501671607 -0.7859456129751496 0.0429757322305776
Ni 0.6082062363158196 7.280658226344558 2.541559145716555 0.6603125136536564 0.08149574268264674 -0.7281929795457136
Ni 7.691708704764285 3.7466036256528734 4.068494731101962 -0.0772405669507186 -0.4952754586132438 -1.7602931809688975
Ni 7.532705823959059 4.085835213285441 12.782879362216574 0.8025292283654437 -1.0148681538156135 -0.6333557825591544
Ni 8.071302072872127 -0.22275850189545676 6.6240305744157855 0.07055389895916236 -0.20352904046802367 0.36513007324369373
Ni 7.016416682445091 0.7285119647824377 0.3084586830995627 -1.3970680380574003 -0.575142407443216 -0.7158326582081478
Ni 1.9199831831982779 6.568675328392955 9.212759938723355 0.032277629086783124 -0.000933053337230651 -0.27086083294546254
Ni 0.13282678508411647 4.779045612708922 1.3043579028126562 -0.6240208783114737 0.8886524425177729 2.3460470453793723
Ni 6.477638705569505 2.0923521556467115 7.226894008633573 -1.0328828452254792 -1.2970955767268049 0.08921470859345926
Ni 3.554916970788764 4.305226296035437 0.3867598103097435 -0.6425654740828805 -0.40686010599262834 0.859794894856132
Ni 6.20775450843385 5.663252100738944 4.804639270310161 -0.85309665690035 -0.01564876228085047 -0.1534174685236132
Ni 5.270283554589768 2.8434883431228424 9.429823994913308 -0.5042756052293251 0.42481463358852 -0.7895438718493691
P -0.006604902797720942 5.590724470897963 12.321089528021975 1.4670166993323959 0.07854360203285828 -0.43410840018562014
P 3.8094905870822675 6.2242008890417395 12.714549648309763 0.31603640104083636 -0.3493645828793209 -0.11545667300912374
P 2.3206297357638435 8.578177705927658 1.2195490972647016 -0.7910515667431474 0.042969304472674386 0.37651106138712576
P 6.401322047710022 7.691890432726803 5.7733683423471716 0.6976734708006177 0.6566597473924175 -0.6433746002477371
P 4.8321374369585905 1.1476575152925348 12.622535329047965 -0.7854851283989633 0.26059904600813827 1.9493929333854683
P 3.9023263167346474 6.329630366496625 8.254457508535824 0.9889360073308839 -0.13140651147016078 -0.22742333058711803
P 4.535448365351513 1.0795004429501154 3.949230303860573 0.791161095737818 -0.6827777846357079 -0.3500832062129003
P 0.35930798429175687 5.518333137028872 3.758337800192668 -0.7264436009547748 -0.4131557091933529 -1.1461633365188906
Ni 1.3294399961994066 1.0780920512405998 2.4822722152246453 0.11455138758603499 0.3766905243877835 0.22466376556410986
Ni 2.018279838124327 6.416269172627137 4.786260212820892 0.9368973935670898 0.07996053698504295 -0.24318007920074247
Ni 6.256230442435558 5.67118452630286 9.062948858262297 -1.1521835745710414 0.33498388867761664 1.2672535536647078
Ni 8.593969865870482 2.498677707040968 10.020985056984742 0.08121446399680207 -0.5679320057377057 1.5552775286530183
Ni 2.2881731216581076 5.102748545944317 7.0570410598262026 0.08105325582858945 0.3113371957929541 0.3687460727297262
Ni 0.9962145177280625 -0.14395035366985037 9.030844796403846 -1.0627791185642794 0.4444511768725249 0.19666650902023547
Ni 1.4562134228520447 1.1072593892247575 11.565754515971863 -0.47813828471232495 0.7081653714708771 -0.7665867488325636
Ni 4.013443879416349 6.832962304283051 1.5400345369237134 0.2833085717905121 0.8651664435806906 -0.7596188021551628
Ni 5.7316908514232665 7.974604624016237 7.840251324046968 -0.029050894619369327 -0.4892220533303123 1.6799634335698939
Ni 5.1179591764070835 2.7776483023025285 5.213233695316457 -0.31003236093860154 0.25179147501883736 -0.2291158877981925
Ni 1.1032068556606034 7.33580357657068 6.813206657477707 -1.1790400326422534 0.10308760992080956 0.7811147672454095
Ni 4.983898458457469 4.748197291071473 7.04329061354227 0.9123089055944482 0.09409003440788957 0.7316333726858303
Ni 8.118714898293105 7.514433077327863 8.942474122790536 -0.053794163002320254 -0.15275309546673693 0.47336528880371376
Ni 4.72776198168631 0.4465128730255128 10.654942145589379 -0.3222651555593675 -1.3340222745498251 -1.297859708586339
Ni 8.46008178948526 6.944615964454183 5.054817795830163 -1.028779107469751 -0.1740863097268744 -0.402676406928584
Ni 7.264702511235467 6.031142188060619 7.013593538547372 -0.07865493079974195 -0.09336035533071664 -0.6036937367183474
Ni 2.4776699545738734 5.173640624122634 2.603384815844844 -0.8661146664265729 -0.6110247231621219 -0.17185124974876856
Ni 2.2865193971991924 5.283640559834851 11.41392171192779 -0.7580928524289395 -0.44230661972569635 0.2048601005746214
Ni 1.136063271283879 3.469286754850228 4.0298075738012935 0.03658242710972409 -0.3966366284924072 -1.3537958576323263
Ni 3.5129287250489534 2.3508329231343543 2.5048137516953917 0.5656807478096839 1.2640237338735005 0.31567850348078536
Ni 1.0154867681531088 3.0479595601501006 8.188362139928172 0.7345328057208124 0.1731990220259146 -0.4166210420341341
Ni 3.7253777996307575 2.8067247763054266 7.34470915537388 -0.6338815731556374 -0.9163573646322088 -0.23995128785079964
Ni 4.305925948691132 6.976327493913595 6.040303094651157 -0.5040848293747577 -1.1042839226762853 -0.5170557877131289
Ni 0.8219028733603103 7.54906134058569 11.237711010351724 -0.08619494793052897 -0.37606754609180393 0.12964813401815736
P 0.06610172908633967 5.791370314314216 8.037247161336046 0.818995344341267 -0.6609524612305004 -0.08614095476414198
P 8.652159159468782 1.3405708339036413 8.028842243069581 0.07341965054273161 0.2141726362247989 0.4786180525622209
P 1.6854269019761448 3.261926063218931 10.26556454397956 0.4044862064438131 -0.13506184883456096 1.1802286536337157
P 4.131848733395028 6.2143966654638865 3.593472375316608 0.284064219009614 -0.1514351479862618 1.4362953589891394
P 6.799806037521622 4.1113134736304815 10.48198982638126 0.7019201618921137 0.02114938038410551 -0.6592465342829873
P 6.4980467557602895 8.034356778092194 10.510715565416499 -0.1246571085614692 -0.7360379295114291 -0.28384978900596275
P 2.6374088336272976 8.413377703118103 5.657043364899512 -0.37391836095928505 0.7387278176387664 -0.6467052072828668
P 6.888044049722293 4.180451876970499 1.793750397234131 1.0557618067061818 -0.7877317583412949 0.5714410473322288
Ni 5.697834932006141 2.8598347733513467 0.47908851894669774 -1.203290934769818 -0.06707596771289093 0.14114996401016983
Ni 1.6182329878350714 0.9477476701244808 6.851653933867853 -1.1364039431392816 0.8357159995300575 0.17136479703065324
Ni 6.97899889496261 0.6554536892909045 9.240408030940863 -1.4234236452327937 0.5368273139131012 -0.6505415503098215
Ni 2.867167496638953 1.5061340941557713 9.453136966584944 0.015353342527618717 0.18291599220336238 -0.3650503690456939
Ni 6.196042141249558 1.8044950630180148 2.714656847294686 0.06199392520429324 0.8373892734674224 -0.41708898280948814
Ni 4.1911738267590675 6.762251954067253 10.57689089432766 0.8127686467052647 0.38267425277504413 -0.4260004263665051
Ni 8.225525508263127 6.9139493707792505 0.3927259393192133 -0.878575260787429 1.2595469290490695 0.6217431380208904
Ni 7.7955934945377665 3.8068191860332514 8.211581521699111 -0.2749823113130038 1.2520567913196115 -0.21440814927437268
Ni 3.1523077562280033 8.465306468407656 12.451751024432689 0.35094401155129884 0.17127789374380178 0.0981112397521407
Ni 0.10136604021298017 4.992730437435849 10.12313343607636 -0.5336849116293777 -0.02173842011835611 0.22792726680673003
Ni 8.645489743244367 2.26286750287746 6.043946740299645 0.3527347849031345 0.12970187007422823 -0.7752436531766133
Ni 3.4874595511020394 2.9093102111469036 11.679313593829997 -0.8844525455038124 -1.2306497863987451 -0.9224814752520758
Ni 1.0200027080216838 3.576715239892812 12.93617598499873 0.4947329558462125 -0.9972054464285277 -2.4602032544095174
Ni 3.000437697951613 8.511274556526613 7.803346918058602 1.872092716841408 -1.0737379315686284 1.4229675315319816
Ni 5.715044570056607 7.9728327763816855 3.633288971904327 -0.8418809906901888 0.21186661379944158 -0.24563162606502856
Ni 3.085686285168862 8.389907536758889 3.3132651212701116 -0.1672644017090345 -0.2560227394913655 1.197898560109653
Ni 3.333408757275432 4.454143274920908 9.345415899522706 0.6147091139922446 -0.5050896164901882 -0.14329246427446934
Ni 6.998670946905197 6.2123340530893065 11.56193732011917 0.46000995054273036 -0.6585420520167949 -0.8843178196981609
Ni 0.2921358775061855 9.107478569557925 0.33510999744265707 0.9196532617746613 0.0718222241486247 -0.694974583812216
Ni 4.447510204288997 0.35919076975593267 1.600012942313005 0.9958077947500529 -0.535741022827458 -1.1357488260537858
Ni 5.917380483524278 5.505085168561301 0.4226647125042604 -0.8402264858059012 1.421806678454661 0.7024171561331903
Ni 8.266677805375354 9.208882772643031 11.123088823912859 0.04346912692722836 0.2854235612509859 0.8125976683450392
Ni 0.08337406328387405 4.692997422456594 5.863960640302265 0.011150360189864667 0.41679382016657257 1.0822619098792394
Ni 8.117869863267394 9.182259626134128 2.383076006884131 -1.006197622624809 -1.226914744836345 1.0357884489080484
P 8.729093692400827 1.6016230520609156 3.8308836028299003 -0.8724712047722201 -0.15849642570841735 0.4642247599550263
P 1.7067617647757718 3.1216502489511972 1.6317835333602349 -0.24350558086096125 0.8703870685496817 0.29561567129263927
P 4.726353589976794 0.9244228861352806 8.325060639253737 0.7063134058638029 0.7880500609126622 -0.21830774143909498
P 8.431105265861746 1.9979989975073051 12.410178935727043 0.7744507249616727 -1.0869911970341086 0.1999482650953008
P 6.349638615169869 7.932861711025827 1.4153709719159107 0.4774024349875649 -0.4417749155919424 0.6797963334098809
P 1.836133901292419 3.17018070134166 6.113845675162801 0.5629705479673724 -0.05158352850424664 -0.019535756040082484
P 6.887362569862851 3.8545227761942567 6.0450380167145665 -0.10629660377641047 1.095517489337565 0.8510379745991086
P 2.7021766794687547 8.426180438077505 10.288452272218905 -0.9164010733859508 0.7971610220749948 0.22033968426745923
