# total energy = -381177.9831654091 ev
CRYSTAL
PRIMVEC
9.10873920745596 0.00000000000000 0.00000000000000

0.00000000000000 9.10873920745596 0.00000000000000

0.00000000000000 0.00000000000000 13.33156055558596

PRIMCOORD
 96 1
Ni 4.0058320975833865 3.730739073179957 2.0069065873166143 0.6935188252022958 -0.6811135095594076 0.1501043449899802
Ni 0.7598591993462488 1.4765174716986698 7.583564395976948 1.351447669115124 -0.030658348315805262 -2.0429985719577717
Ni 5.517390887943027 3.278772556247611 12.038678665130218 0.8417550066352858 -1.5251897081287025 -0.10291226068520985
Ni 2.9749323517833486 1.044808790145061 2.1533805745429246 0.26738521569203627 -0.4007419089100324 0.9975749139528046
Ni 7.449144913849658 0.4890645888435502 2.2371427159888717 1.6497614560652167 -1.2134635044274455 -1.3333265340343812
Ni 7.278638429832314 8.526754272879085 12.80227062568969 0.9623898814112393 1.2405264220825087 0.7356031559668557
Ni 0.14700502670588755 7.260603126752324 6.139516845939512 0.05805113850646132 0.9874427106148091 -0.292181963020742
Ni 3.5508050443708 2.3104771731085703 0.07958031940351125 -0.07469697459325846 0.1876265103051543 0.5644080517448472
Ni 1.1793630816085048 5.349070501268714 5.39569540322606 -0.8753891497499634 -0.5597512696991264 -1.247111274388878
Ni 3.823693753953342 1.21166266985176 8.279898339156448 0.21363990364978047 -0.1915055336445863 0.009975880265789272
Ni 4.533483126279187 7.1810565096828505 5.035317256227707 0.6623385429447497 0.0915109608268037 0.44146844009511715
Ni 1.4134485633522793 0.5854341358415253 4.69061615980055 -1.3703571044251173 -0.15566332713499645 -0.9079920233866492
Ni 4.684077906997107 3.4169430170659822 7.579338851987651 0.23766532003010035 -0.42855944534293283 -0.7378256175394712
Ni 2.230702837565865 5.745756081639209 12.63514621643679 -1.2086704539141764 0.6042218413076755 -0.7155876320768773
Ni 7.597872403087074 2.2122212062783397 7.1632607664367 -0.44486332470927903 -0.2656453501827941 0.36795571561794693
Ni 7.392925777178092 1.2022533425378055 4.891336330846342 0.7597311593633109 -0.03367013855893556 -0.39661965921154274
Ni 1.7336480629335433 0.8563134576162662 11.885486072069666 -1.5163667105204337 1.8470260036807677 -0.4881190500741207
Ni 6.914070262926487 3.4430942065319683 5.224291708424182 0.21043502355923757 0.6625074644224461 0.07930079191385697
Ni 8.629765001430405 2.080636363705844 11.792537767413531 -0.3054763661368029 0.2201723054516595 -0.9859221602052246
Ni 1.221071997165715 6.959932763435454 10.281152953967439 0.7386306299392699 0.29683874506646296 -0.20343159565821092
Ni 4.947748572783209 8.323246827720931 9.703055907333455 -1.5323887969803027 -0.011651982416631547 1.604692074530404
Ni 9.142987787662213 1.93405853685574 3.1965743852758224 0.49341835079984697 0.5570382416433375 0.3292073912051556
Ni 2.3479960687583077 3.791840493917621 7.1468495515078025 -0.3596088863151484 -0.6809214481532596 -0.5888278753501085
Ni 2.3471580647768135 8.512271377981518 6.946289694267165 0.19890182610865745 0.1562505670970341 0.578669446759868
P 0.5641488347115649 4.345715581990842 3.4108392511094663 0.053505171006991724 -1.2843030529478268 0.06343374297461334
Ni 3.051054083015409 5.887151036038548 6.432718043334365 2.413666030079927 1.0110156128387429 0.5787087846382356
P 6.452330069123016 6.928480287912621 3.4854434664359073 -0.8464788944735163 0.2783501993439722 -0.13556912748828265
Ni 3.153746005704203 3.577402562044321 11.573366934792572 -0.986433038403372 1.599179115131975 -1.1180508945533907
P 3.029712307704087 7.112431270589594 8.585791653375372 0.20741192046219759 0.012260305424591788 0.6425086527030159
P 8.594532399251918 7.910739367830261 1.3222218103537802 0.42048103921017266 -0.5545848950068384 -0.21472439496321086
P 6.141767615328938 2.17779928186456 9.036384572477182 -0.18476744358980435 0.17454885118558972 -1.3741973041068138
Ni 5.339715826388335 4.977452170431618 3.922118232453764 -0.30121553397791995 -1.072212238952721 0.36645727669554956
Ni 0.568305152284999 3.1578995906559584 5.6063213278574535 -1.2493918428929385 -1.3532433275629663 -0.24667163729376873
Ni 7.30210254131416 4.707141233966064 2.83383616402089 1.8104574605281143 2.3749135919020774 0.9027341174218195
Ni 4.817985477996571 3.743946744627425 9.908655629823668 1.1984811720860005 -0.22853636114563866 -0.49812449802626463
Ni 6.833612771964085 4.482465079536244 8.077352776829228 0.1925494015280684 -1.4578226915379537 -0.09496189548988163
Ni 6.70381324222173 -0.05444475432814077 8.463287312641484 0.8636708328717707 1.360231071734709 -0.9377456004999979
Ni 8.462628750816897 3.402742493075222 1.3094950803217789 1.7202402788120696 -1.3610268281631268 -0.42840697892546864
Ni 1.963370458730189 4.91383673774947 1.484842859080039 1.2512967732251354 -1.1141618439116294 1.347348559345086
Ni 5.636587845571691 9.028718657794293 3.4348763022699647 -0.5776451192604116 -0.4684125727841288 2.2285013510517038
Ni 6.924891444774482 1.9975373384539485 13.417281747708506 1.5187853472642554 -2.052466145128575 -0.7803670904461076
Ni 6.775726736068459 2.4931893672911603 2.9471279262016963 0.1309380564741745 0.6380855839346559 0.8645133833777241
Ni 9.193085851773297 1.0193134298819837 0.5414079571007042 -0.6219012608653096 -1.4098628758292235 -0.563415605924591
Ni 3.8003662735554347 1.5158034627006896 10.86328881544267 0.8054764839192258 -1.282811556003965 -0.20729904903341714
Ni 1.1979904527188987 5.934434499820483 7.860207727746142 -0.010975782285213355 0.6877664960995511 0.8851559993287401
Ni 9.049422821380565 5.555337894322442 0.9969195952243288 -1.2101220987590384 2.0345882364068895 -1.60348031361049
Ni 7.604931675757272 5.939344110103369 5.12037192772772 -0.7271712231494185 0.04155905438870908 -1.371648312432715
Ni 2.697553033908668 1.8536465895879846 5.891883025912313 2.007062777293111 0.6802655597368156 1.1108520628121061
Ni 2.0028204070329356 7.48020571359853 4.760379991259967 0.17748787920925563 -0.2982651931003444 -0.4809803821468104
Ni 6.737133009225066 6.382520693968951 0.45939196090750134 1.7318356969591528 -2.5000178153032944 -0.46661897121881574
Ni 4.775301927373928 5.981617767474195 1.9654190141153858 0.21515171230861654 -0.7745116601065952 0.24444043397040485
Ni 2.99679332521364 8.166367017141802 11.269447484299626 0.32044378607991264 -0.8284261507368637 -1.4196991451933547
Ni 5.359463572387031 1.3663199481321426 1.638489067339271 -2.105158333315968 0.15851236654801734 -1.101885854757754
Ni 3.545585736964318 7.806498959523488 3.0870162951821314 0.7439119329428672 0.7082697582592253 -1.0268705775931284
Ni 8.562815770300137 8.290209431624403 3.9351300660142523 -0.778242330793621 1.3124031536181526 0.8362271348385212
Ni 4.520858414123194 5.050777518812387 12.915468567859524 -0.39385289509968296 -0.4888651842115258 1.2734411705326585
P 1.5251945725367855 2.621622586194122 10.04422372392994 0.28729686701429874 -0.8135911426065601 0.3091227046401386
Ni 1.1646524682377044 3.3914294393250466 12.647304561159604 0.14789782425696463 -0.19365420455647295 2.668880928958017
P 6.91288612686568 7.415442579811292 9.903122981798019 0.6026066743017557 -0.5647302109709564 0.32098937417073753
Ni 8.509903105859902 1.405624156612021 9.327212943380957 -0.7109316213621046 1.031381063868972 0.770960452420227
P 3.7141247333729352 0.2173090063838118 4.850301461969899 0.04019765526480819 -0.5232781144737568 -0.3313102964807713
P 8.447817941317874 0.0673837179771945 6.4984421490786435 0.31249290666395213 1.357045732028192 0.3824551947857026
P 8.573190623940596 5.017157163424385 6.755621016629843 -0.21270633609191752 -1.359969590543206 1.0237844824686368
Ni 3.008498054737775 5.38072336904799 3.796961426943667 -0.1291969054133517 0.35617852047736076 -0.17620387029050943
Ni 3.2596806394518234 9.070664400563665 -0.0410366906242287 1.280786040933504 -1.080239737242888 1.9053972445308092
Ni 7.21011338686728 6.691161203848949 7.491856701562983 -0.699057495632338 0.6889756859163038 0.18427199201062458
Ni 5.532666243127443 5.218751773407388 6.180271165656932 -0.4537236033133863 0.8369267320087069 1.401494192149554
Ni 9.020912468531893 8.076154066786133 8.367579970963668 0.325053259827466 0.7248114646679904 1.0280879949399973
Ni 6.546869670470096 8.342183895954921 5.8653128344555805 0.9655888479645113 -1.5792479234256867 -0.8388645724613681
Ni 0.31556132971847073 3.910563797121962 8.618747070821538 -0.3094973143707379 -1.9300554093991211 -1.1768221990553283
Ni 2.7465033969146617 4.531032875507209 9.284538501497241 -1.066217969042499 -0.6154724745208303 -0.5984191185829694
Ni 4.855786744553116 7.966612372422514 7.4149734797564335 -1.1899093712565894 -0.43149384538090846 -0.770888204421395
Ni 3.745477012767545 5.883407344338611 10.714428338616887 -0.07490857638343229 1.333846153983277 1.2116058823934166
Ni 5.271983243710149 7.549659847934352 12.232146458240512 -1.251072315919155 0.7349763210161342 -1.226556333055662
Ni 5.049784666269095 5.940218549040581 8.815107799415772 0.1575237773825029 0.09732525351573561 -0.7791087925589744
Ni 2.4165484379401296 3.0300584397834 3.637223294088528 -1.043543410263119 -0.29960345229579366 0.34163610388681165
Ni 7.471807456305726 3.6595633871864997 10.205562262214956 -0.3267969819914501 -0.7633985809125692 0.4515474215976739
Ni 0.7541407330464416 4.655467358020212 10.773740803028838 0.34492300216819954 -0.46317934940964745 1.1354840024281734
Ni 1.786369443856263 7.763806300161915 1.7440083425917157 -0.6978524195806433 -0.31622691978508766 -0.23186413996729097
Ni 9.316418176875857 6.395263819731026 3.208159790319984 1.0197185399293793 -0.6094267825473827 -0.5756005780265571
Ni 8.487331650793127 6.535465529330628 11.989032394470026 -0.6613170436587708 -1.473702595993004 -0.7443238236693052
Ni 6.11525207630578 5.5680536938677285 11.345211242091766 1.8389221436267105 -0.050427817633248634 -1.4555261821942933
Ni 0.9239631507701959 7.923209231424456 12.900963811988525 0.29284685029825047 0.28196619883000473 -0.2815046858125539
Ni 6.250571501839284 3.797706521788083 1.0631610773397906 -2.5281379705782783 2.1890508583655657 -0.7562982224223619
Ni 1.7229817296473469 0.37136328614707537 9.416947684942839 0.5406574862924689 -0.033048960035168884 0.6239828259846867
Ni 8.350281564863058 5.7644836488778255 9.502509713201214 -1.1330427399765326 1.934958246017377 -0.06457788388138556
Ni 6.454998929629297 1.0445446367161115 10.873926911638186 0.21050521467554068 -0.3279652912679384 -0.26124542134288553
Ni 5.6172955365194595 8.022867944049798 1.2569704481599322 -1.370048057825131 2.430200794510157 0.9280306872050792
P 3.8136285974364785 6.834077317649479 0.32553448797214823 -1.7684451206520704 2.2054663236091114 0.571013472876507
Ni 8.774612167883943 8.939616973587997 10.978313059767828 0.09245609834889239 -1.5114921560369516 -0.31605748408675893
P 7.728455284377348 4.120155879884881 12.380860284369533 0.21294853400971067 0.6298503405090572 0.7111923312226591
Ni 4.839135969790378 2.2421889573556975 4.227544268365616 -0.4232115507674582 -0.4209723770242944 -0.8029462612982042
P 3.988744103352042 3.804301248772888 5.359620242696615 -1.0203644010434945 0.9629480679075546 0.988720291775652
P 5.3031533483261715 0.807438697143385 12.683006263392949 -1.3015705817790229 -0.3258132779219421 0.5049152956958529
P 1.402973513583598 2.242844786558606 1.469684095753918 1.4892505710299322 1.7741498843463315 -0.03158163146102303
Ni 5.395024089166972 1.0964553398741244 6.249008442239019 -1.2308711583809318 0.9018879673714403 0.8664172852686562
