# total energy = -340854.1392230872 ev
CRYSTAL
PRIMVEC
9.41481258823495 0.00000000000000 0.00000000000000
0.00000000000000 9.41481258823495 0.00000000000000
0.00000000000000 0.00000000000000 13.77952988671856
PRIMCOORD
 96 1
Ni 3.2501062115709507 4.492070601585184 9.687367433210447 1.463271373357351 -0.57465466917352 -0.19941861784407588
Ni 7.312738976034638 3.3535467551978524 5.220167941491395 0.5040940853461383 -0.4129083690692373 0.40754170544068524
Ni 6.518222959226207 9.139683318512139 7.571492855062461 -1.2137609810632064 -3.2205067413365316 0.1592245621236935
Ni 1.3702412087014582 7.090662381598364 8.878371434960478 -0.5625671418813667 1.354370499188874 -1.0288752667279828
Ni 2.5297318422606394 4.74765451328442 0.4489566261491914 0.4952770012751405 1.2823955515124688 -0.02926840994681411
Ni 6.53896379090092 6.250738724677749 2.754431403426181 1.0912340314708626 -0.254842088919703 0.20345576402792703
Ni 0.8460112746059841 9.355969803334277 1.5096435111789723 -1.0804469681576878 -1.2305148034827775 -4.305057447249947
Ni 8.002872967978098 0.5363995205787845 6.195772225555428 2.0246131274720485 2.3176425260947506 -2.3367219113237048
Ni 4.791800568537586 5.069669341141972 7.793825532395492 -1.8716831401078153 -1.8933297718433135 2.023277953600393
Ni 1.0692402420776592 1.0126948789190926 3.1628431400578294 0.5485523156595133 4.1195726658781435 3.0498538827712376
Ni 7.8464646898973 4.168219885313393 11.460737727316737 0.2084519316909378 -2.0746452523287755 0.7219017472203632
Ni 5.408084772166728 7.089984515106952 7.158727709185971 -0.06394359273149633 2.2078600206522685 0.7792707720581353
Ni 6.092240358248433 1.8073427031008547 4.1411485337938885 -0.7869231463970705 -0.2729557678012783 -0.7162304078671987
Ni 0.3776497786589036 3.609987414823733 13.368555308144566 2.03139441205994 1.9992306828432018 -2.1330339766803137
Ni 8.181575521776425 5.395638390199423 4.8146230152296745 1.0792994848168056 2.372689073446933 -0.41183853304382617
Ni 3.294063970576503 2.817213138305733 13.00414181421171 0.027337254362372273 3.57674979650324 1.1717578971585432
Ni 5.517155373597295 8.697610803175726 2.969502435969968 -2.7864777882385945 -0.8055142791356966 -3.3155552830029484
Ni 8.159102364623662 8.643776905982806 2.593390096172835 0.10483390318795495 -0.16272614751904876 -2.405139994886787
Ni 6.688207396759994 1.1318581592217862 1.8996596458999433 0.3983461549843462 -0.2274948072550018 -1.1028183938743525
Ni 2.3592860789201975 8.056132561615795 6.646652297873999 -0.33227060351151166 -0.5068971020125722 -0.6659211180896853
Ni 0.6518448914723344 8.381451988618977 3.947862435617836 0.07570510414279864 -1.8334855459921713 1.4611689823023675
Ni 7.158091267869035 4.6871549289259535 8.843633601719358 -0.24172792013524824 -1.353071577871792 2.0954328784980882
Ni 8.644784290907541 3.0936979334901533 7.581938589398863 -0.3488053679417412 1.5370067553682885 -0.17262206647652206
Ni 1.829269801135537 5.474223829141241 3.1463210858109147 -0.17392381600708112 -0.9004877445898041 -0.08173356972506568
P 4.809349778815236 0.28890952308324824 4.922681524329317 -0.20545968183183322 -0.8152618454407637 1.5617896187399232
P 8.433289945587187 1.2415501382694818 3.7412383727420253 -0.8276841303645165 -0.10021157392459516 0.4708774893848536
P 3.0767324415801074 1.8001780308791315 7.933881222852228 2.0760395615731406 -3.6317300093938614 -0.47271942768959885
P 4.508292323317154 9.09629044824943 11.566799354710428 1.4206121439259274 0.11535948530962714 -0.3179421027039815
P 7.952277766244142 9.022723104306534 0.34972262069399246 -0.2805500352087684 1.131774157676754 1.1915597623758187
P 6.430636959648427 3.8232235004345188 7.102397003749685 -0.13800190529949138 -1.2919088903195428 0.0936622028418516
P 0.8186047557657264 8.14600636060209 11.321771330652448 0.9078009904217657 -1.568951426595685 0.15263713871416293
P 2.0721907901827126 3.6290335802699176 11.344865865422339 0.37483855878070926 -0.018088482070594655 0.4674154989781821
Ni 7.133866955613458 6.321905291463564 0.1443187175027228 -0.5397408880154704 0.6228001185304951 -0.08562930523504607
Ni 5.126694859731955 4.642246273869949 0.8361144238313778 0.3798522099452168 -0.06346382488160038 0.22295809572691278
Ni 7.071474993966469 0.32034275717873717 10.92208241769153 0.2908593875545765 -0.8897752432683064 -0.6104323409937616
Ni 4.7186757207765835 0.9826333829874735 -0.04571927040198398 0.3105974894134522 2.4028203456146744 -0.8050584225452005
Ni 4.957877858933377 0.41817866299540013 9.424247905681689 -0.42168714370313176 -1.2422560031791057 -0.14372595226746215
Ni 8.623553888989031 2.068217739358052 0.465479621877344 -1.3325981405087888 -2.254375904825621 4.103577576001468
Ni 5.197475419210161 7.077321592454892 9.85155046335524 0.3647148400831461 0.4435890859825457 -3.4005333278072403
Ni 2.076559263127364 1.1480987105785174 5.591774352083119 0.2817569110326761 -0.8375545954006929 1.0627629206143632
Ni 2.5365669960490376 1.2700487753459024 9.853728109458897 -0.12681400700347192 0.15736282632460644 1.0576559384051012
Ni 0.1705107255458684 3.4171814720790965 10.171194641455328 0.42692139551887764 -2.002148113600313 0.0997577742166282
Ni 0.3551596748438547 7.583612543040155 -0.011581160709515969 0.5030093369223918 2.426362651710989 2.8478363938517344
Ni 3.517694009055597 5.559776229244787 5.593483140530218 -1.5779402603578567 -0.33292520637637507 0.5123141592630854
Ni 0.8623770429673788 1.107530284030022 8.105422870353785 0.02912879904515629 0.3431913641890735 -1.1043623413227046
Ni 8.043102461280888 4.50810402706954 1.2106366018174084 -0.019407715102650446 -0.8153598044712087 0.8519712850466553
Ni 4.303416591100442 9.502087691482952 7.075581735126937 -1.357515986796391 0.2581163887956006 -0.7923836552910096
Ni 7.620669244570643 1.3518352504971627 8.423701900658669 0.804571455606453 -0.3321163373218345 1.8226558023665191
Ni 9.21460639543786 8.421220156115112 7.257443899960231 2.2561628215227145 0.4417785151363681 1.674381568606742
Ni 4.248961316290393 6.596893131479451 2.7629471012245372 -0.13973174350640452 -1.8583285731777803 -1.172943175715896
Ni 5.1755859804250015 7.016511319287862 11.9914836530609 0.7925754595868415 2.355040764237551 3.5545092399374845
Ni 5.279629072044269 8.36089945319188 0.4420800471863181 1.384334906761448 -2.3275826680265976 0.2758356604522346
Ni 4.829186788501401 7.432937885699212 4.870030127571413 -0.08226116009376155 0.7684466848594379 0.4574223923212122
Ni 5.367026775374434 2.6877312236337767 8.952436822478315 -0.2155713163445384 1.0465739695593266 -0.9955213738578856
Ni 8.89883358818872 3.499626984097007 3.4417409516554267 -1.0513685627344926 -0.8792779432814083 0.4354001224138502
Ni 2.3505397182185144 3.579558741209267 7.757627461754124 -2.6708923029610907 3.349455278184503 -0.8273354887758462
P 3.9728907728507252 0.19629224776921494 1.787108388332225 0.008322146712450183 1.8569684596054599 -1.1134085106853728
P 0.616792603497699 5.75556666751411 1.2204091770685894 0.04093941852683917 -1.10468141522502 -1.1050226006145227
P 2.500696560878518 3.2872853056623894 3.8697467958138154 -0.2510723374646257 -0.14725042048095288 -0.4758119505719935
P 7.694528447697342 8.46642067035492 9.249605960463162 0.5369257871641785 0.17319079449579852 0.7050597359623599
P 8.76614122249494 6.563451717903155 2.8160118082459538 -0.8077526815479121 -0.12545235076925493 1.2844318652162072
P 6.485798345387028 3.2615263789887563 2.568586772955845 0.2823456936566105 1.6313258750678488 -0.6959302628572659
P 7.150917180834931 5.9844313416768795 11.737031401809826 -2.4607169608211428 1.920396031932486 1.330896841546966
P 0.6588090281903484 2.5035115897803513 6.261721103319851 0.028843663704569682 -1.55969982609043 0.12692045067434918
Ni 5.458425773966404 1.8529574690854127 11.231363711804168 -1.7066779667466023 0.9982470003191647 1.403251798270609
Ni 8.54043051047971 6.279604539437018 10.203879104116213 1.0235533402944372 0.8466596430257548 0.21381782398854143
Ni 5.955264252921429 1.7659457730628563 6.518034662978592 1.4297110209034023 -1.0072317203162782 0.41467831648546655
Ni 3.3574915615853715 1.2182202331900733 3.6720658632184455 0.889788613004745 -0.5722967104643046 0.06478280080334003
Ni 5.0874350921043785 5.071693525803825 11.011139010963179 2.182963514520905 -3.0977265380828003 -0.6011282899840164
Ni 0.07961259497255344 0.4064289771442694 10.319723663054704 -0.48715694327116743 0.16421481624943332 -0.6702572835711941
Ni 0.29462337271710337 6.150621609821239 12.334745829499248 -0.049975046366546184 -3.227242260288152 -1.762761440003732
Ni 1.032079977610982 3.5344900343427894 1.8307620488978802 0.7426484928494113 -0.5212921943919796 0.07972425260452076
Ni 1.444938330130041 5.500924237052946 10.396627616505327 -1.89533034721311 -0.39709042820037416 0.126408286924621
Ni 2.6186829896336223 8.529038587499047 13.780218920972514 0.8376918923095056 -0.235381151981614 0.38989776710667695
Ni 7.855860672653253 6.640464883177394 8.077739556029535 -0.2548150923365095 0.679486772589262 -1.1372562638372479
Ni 5.86465609856944 5.372035455560975 5.830174348225076 1.4174247473368815 -0.07405368458230471 -3.0909110578228636
Ni 3.033584356439296 7.9730185979188555 10.399273178784307 -0.9408844032392958 0.3216897426718718 0.39151601943639025
Ni 2.661416823029682 8.229995901850437 2.609236166890814 -1.3109913608722905 1.3467278950419517 -1.3353481924501003
Ni 1.1028699519015686 4.213881725359855 5.2601291126413345 0.3071851212977935 0.7252176989674736 -0.7649574407592568
Ni 7.9756641601978355 7.925982195264809 12.321117888578163 -0.25502489435447045 0.7289442558894413 -1.5652032724071625
Ni 8.603151990560026 1.8570905717205461 12.151808493092075 -0.22700089833771872 -0.3024391219723759 -2.8567447520849574
Ni 3.1611174049484445 5.880341175995709 11.806369612031308 -0.7856612489655114 -0.25839201105449044 1.7814466751180609
Ni 3.53911270722172 2.78829083467218 2.0387088929131805 0.29611343686466424 0.4018953057881853 -2.176632172986239
Ni 4.548446498120898 4.012621281097337 3.998075395969134 1.1084989891988972 0.14764302793368123 -0.36951380413368623
Ni 4.168794188868616 2.9641501151315324 6.362807943851575 -1.236248363532445 1.2091242536221434 -0.5726571791275169
Ni 2.90093906480742 0.9701022677087435 12.21512593079609 -0.20957704643431652 -3.4252238885753847 -2.32869955523986
Ni 0.7375865293047325 5.976447580778035 6.764797836958337 -0.4713050638405754 0.16912690883907 0.41548230044400064
Ni 6.920640284815054 8.933696638434505 4.3759379493878425 2.5341270982821777 -0.26071911652577034 5.232993774969008
P 0.1724351131964863 4.7959430859851 8.601113683679602 -0.0006116654420699144 2.594622327453757 -0.8454427398995181
P 7.917292323437411 7.407357840460811 6.087382315059985 -1.4954446156557857 -0.7986646032037148 -2.5783469873325013
P 3.802332031761715 6.683066909200123 0.5466437779302391 0.0418246493452699 -0.8925183532310822 -0.4396334437689074
P 7.237326328865122 2.5148846831362537 10.125377457004584 0.5025272550796506 0.2982628791074992 1.179551167950717
P 3.3391797515048833 6.6601795003026085 8.01170782791616 0.13327621768904788 0.466833401222467 0.6132119606214278
P 5.45851992209021 3.059286794238645 12.995750391936777 -0.07753958624837613 0.8589400030550045 0.9283736723667947
P 1.1368480097835645 1.4259768979952836 13.131299211706866 -1.795388996230766 0.4010920931605995 1.4577656130477734
P 2.6136272353851795 7.047580200144218 4.270331057432138 0.16803264733362674 0.42190877279563466 2.988410687864092
