# total energy = -381173.1672281608 ev
CRYSTAL
PRIMVEC
9.18569807929106 0.00000000000000 0.00000000000000

0.00000000000000 9.18569807929106 0.00000000000000

0.00000000000000 0.00000000000000 13.44419764363164

PRIMCOORD
 96 1
Ni 1.560117358618881 7.963338994316773 5.389375913621167 0.21452976245390148 -0.6755265023899334 -0.23200246531736818
Ni 2.7338291355344033 7.172386076907674 3.234176873780409 0.6044930926911912 0.41552780896995534 0.7765965676600819
Ni 4.539406722230049 0.31870147433629803 9.325150906717735 -1.6289720301236914 -0.04426514046596247 0.6062689536446914
Ni 3.5528627324297175 7.142064087053569 10.474267058055144 1.7614103252924764 -0.05193191298260088 -0.5936677199409129
Ni 6.376601482230095 2.722475612523293 6.000885297555885 -1.044753114300504 -1.042924031511565 -0.6292337899709809
Ni 7.016789534605739 6.940382896736474 8.004944695875448 0.1948687936898644 -0.35889489096725935 0.4387911503732701
Ni 8.71625393535936 0.8446754735017163 0.4940298150040624 1.0524216865893552 -0.01040988247941433 -0.1761683890668837
Ni 0.508151907461409 4.661052923877402 11.805296777120725 0.0757909789883856 1.1963340438360106 0.43965684080767503
Ni 6.990132638345027 4.37355894070449 7.3091133579074885 0.5049880579153174 0.0352487958999651 -0.49222767292585545
Ni 3.9449634470350894 1.5081722351335842 6.262899072411227 -0.051350329447518016 -0.29585092723189693 1.5731014442083167
Ni 4.8118729031002285 0.18328958532288497 0.15093939329980482 -0.41365681719948755 0.2017927745032073 -0.10309198079618374
Ni 5.245327631132799 8.251411676478115 2.1960689669712865 -0.18186929610640293 1.5080551053309446 0.9012140812328672
Ni 4.20481766423678 6.9257500794575915 12.831007665599916 0.05920942048062062 0.1502295577139348 0.02607355715860026
Ni 4.632650744953169 2.5736030013250257 12.996035164273621 0.0675757901674449 0.5797439107709693 0.3592633300502716
Ni 7.20018199974879 0.5982764670659433 3.8376735731499227 0.46504314209126363 0.7753650092458259 1.877271175718554
Ni 2.935666482721393 9.011794590180923 12.150086552997358 0.15887129254933285 -0.5623624820697282 -1.497083179700473
Ni 0.9891619137956112 3.129723543508374 9.636236518652327 2.1810722110354632 3.5030398684135995 -0.2782260150612821
Ni 8.993423193722817 4.889078696715423 8.254791094856584 1.0252818929497698 0.5705969541643786 0.24052850051050834
Ni 1.6776116246667026 2.079798235927575 2.5720368397769717 1.2914993135859498 -0.5915635291137167 -0.24064625703529524
Ni 8.520901691122083 5.325500405275977 0.34266328673660656 0.7723385637146764 -0.0755328402309925 1.2068506270966182
Ni 6.880730972437002 1.2120620670218203 12.548975498594 -2.3242443476819843 -0.4856106818299702 -0.21959509279195086
Ni 5.070845293271931 7.379064287061375 6.428208572020563 -0.23530376177645926 -0.6529661005909141 -0.45865266518388753
Ni 6.004672560935725 2.26673638058704 8.4419478591339 -0.32118143557688555 1.5303041465371323 -0.7602867747564648
Ni 8.136259763478702 9.243568127896397 8.535452755686725 -0.2627711139587926 -0.0169098883814612 0.012011936859211569
P 1.040776352144662 0.8546107247062604 12.328692350793249 -0.5767850852529615 0.19515238636855423 -0.6391420502236284
Ni 8.57808266259794 7.391887521789134 4.498737961890737 0.840851778094726 -0.3860717084923674 -1.0036643146799942
P 7.746437102034136 8.984099710020327 2.0939873839819936 0.9190642220404107 -2.7363407623728873 -1.4375850243348403
Ni 0.914719178207717 8.90887802722261 2.9823537125403794 -0.9621600247886204 0.8282176342704832 0.27962752339449903
P 8.19129128156896 6.074878852500379 6.4418144282374366 0.6817218325673678 0.5113481958053904 -1.1528294356851565
P 7.9726532923210325 2.9640962187403126 9.519943741932865 -1.0737579861732864 0.7799194613857278 0.31818841438683265
P 4.920300884995975 7.194009210538866 8.683365461420058 -0.20659713787038614 0.4266174911252137 -0.3100056214657242
Ni 4.182092246818102 2.4695565974845377 10.52781508588141 0.09577410697853182 0.23459825106900242 -0.3944262511046498
Ni 6.356503174504926 7.602561510672473 4.283495925278091 -1.2935464259229659 0.891996419289341 0.5910269398839564
Ni 0.7259475681817329 3.0294524616400276 0.33800154488536205 -0.2772181426220581 0.4264087175485173 0.9133018656353367
Ni 1.6745436014581987 2.7361806742810413 6.52343394985169 0.227243353365828 -1.5964213498811797 1.2303924189723003
Ni 2.645793403707156 4.6969781896512295 2.631056788038286 0.4140311698197708 -0.8213414759759403 0.898852008758594
Ni 7.90922604604942 5.363501638849571 10.1846383186138 -0.8091217939812967 -2.301731768401765 0.11841652696839605
Ni 1.4718336129394494 7.3431114641928605 11.35795419193565 -1.6396518784350405 -0.26361932089170087 1.0661470065952479
Ni 6.257031248382507 5.400979287624108 0.3903021548921231 -2.229506909498083 -0.5932889964452557 -2.191888842034993
Ni 2.077759010920725 1.0320223817323744 4.990876441629438 0.6202837798665446 0.39481654456453297 -2.5085631337701444
Ni 4.31000309465767 6.283035960068958 1.7100481622531358 0.04168066756823789 -1.4293474669163966 -1.3923852878697505
Ni 4.057019779731311 8.880677933659417 4.625785354096775 -0.48095647088741045 -1.656339880613683 0.08450521893293188
Ni 3.1143466846729386 8.512166092106254 7.178811472818897 0.23097428116316995 0.21897905647450677 0.2179169337585795
Ni 6.310905368495905 3.4575794846997465 11.286310338598147 0.4587274842858809 0.1838261627224576 -0.38406290559245465
Ni 8.717255176466328 2.6531235908939403 11.564551567944935 -0.2780864041596243 -1.466942394451035 0.37093253885808375
Ni 4.640137089009848 5.881336190814225 3.989498467759008 0.3935207085712449 0.03831020843410821 0.5441032787492242
Ni 6.391959969669072 3.9154038701339955 2.0406680800416304 0.06635014529045993 -0.4701118148634226 1.6221694053795612
Ni 1.5412774915510925 5.472526691130205 9.887898011603523 -0.36733993641081897 0.8303876453386088 -1.195200958672832
Ni 8.320772883805697 8.873604946023045 11.729834429029408 0.9995438647537173 -0.7621114866700295 -0.9909404393554223
Ni 5.776316102961458 5.865738875221291 11.013634723808346 -0.4771751494681073 0.5861505856282614 1.4464213916795476
Ni 7.088924822798496 6.628804012806984 2.185408045606647 0.648337086459335 0.27484604284545566 0.6696667011750467
Ni 3.8552283610354667 3.318572313399482 7.7862607781363735 -0.3997245233891116 0.27580634987619596 0.9601046849214885
Ni 0.4428829286948704 6.69958900336007 2.3365881042000534 -0.5570487831662988 -0.4150488124510078 -0.9825529866226757
Ni 3.915587584098576 2.723504410724947 2.103116130882027 0.7312783033392567 0.2983816640735506 -1.3229235935335024
Ni 1.916081536391157 8.27978629830766 9.218377269073041 0.45123528967389387 1.0669203944261627 1.5534088508753956
Ni 2.961726308597217 5.049084374167304 11.757059001440677 1.0847263122593318 0.4353466434680954 0.494749925127077
P 3.1444390320713174 0.13018798243055038 2.677089077573541 -0.15034834267998623 1.3659047250807184 -0.49282159775611256
Ni 8.988518030868502 1.4224604849582874 5.206036725527846 -0.8083700034169368 0.1866654319434656 -0.18111210622540422
P 2.252985390338147 1.1359218144011967 8.54459436256428 1.513886367300741 0.8278923897205807 -0.34976156120742347
Ni 1.2853363817949788 5.776509002624268 4.305006993390887 -1.0953166861806685 -1.3198033027369658 1.3313542407993586
P 8.126550480450593 6.4493522122041975 11.961370057160748 -0.10421529576734956 1.4296660265980798 0.6882604050168339
P 0.48644426540651015 4.488894567668484 2.1657258500112544 0.10581272216145646 -1.0337588200725294 0.42977557713822107
P 3.0803963440183577 6.240350020398547 5.488540118852914 0.37120044780748973 0.6359335705886596 0.6698862733850205
Ni 7.726265308723134 3.3768004544734516 4.3245550777921355 -0.7006716341969933 -2.264149953493249 -2.318673538462426
Ni 8.582500983446113 2.2489712402120507 2.4277396248665957 -0.34176877280993395 0.6944518785395266 0.1529580123886914
Ni 0.9071244429119356 7.099038276548684 7.763701621855641 -1.407446553078247 -0.8636399796338353 -2.6617330050593253
Ni 6.052098320892327 0.07850648848442746 7.601026580498398 -0.1387279848322385 -0.36594177051171173 -0.5157177856279956
Ni 7.154703607816748 5.416374517856002 4.438736062488738 -0.7463483102985018 1.3672437556071164 0.5196826838130147
Ni 2.1568019441817294 2.8664155037725596 11.895358873977303 0.09520949272431346 -1.603757992751909 -0.10334497734725427
Ni 1.0151941825767485 0.5060098026343939 6.8888336768448495 -0.8400976735375209 -1.0924537628105766 2.1770535767943735
Ni 2.3914230483482104 7.929544810532086 1.0929070267341856 0.8313597794438908 -0.1808259424435531 -0.969193277486318
Ni 8.786138727485998 7.297063558970616 9.655864518628167 1.000227006863671 0.8841054465770386 0.9385498415688481
Ni 8.09145192751738 8.397813334852767 6.462101961346124 0.1825184996546276 0.27736135306814164 -0.8502543023555486
Ni 8.831525262435752 3.9806682560514193 6.111328621643086 1.184497970433031 2.0031349029936147 -2.1639514921947764
Ni 7.377135290433275 3.161460130889753 0.09635062586418652 0.4378254440258912 0.694946815898074 -0.20586360213847127
Ni 6.530131242430493 8.133099883287908 10.053328762429484 -0.7183474542102015 -0.8733983445721797 0.5246536546650448
Ni 3.0634303593892964 6.017569281249315 8.101568136977036 2.3359413244039384 0.9079912520557007 0.8228399148983376
Ni 2.5264619980135237 1.0649806669782176 0.527191104180768 -0.1347142356871551 1.3648783406987333 1.2722672048292154
Ni 0.3375284814265658 7.657730814236167 13.464901677549014 -0.7883382815770423 -0.2803721148700074 0.15132407632969422
Ni 8.757130292478648 2.465964989476978 7.587394085756659 -0.9446670102101796 -2.2317892777743564 1.6361970871172211
Ni 3.505271629904992 3.522182500344679 5.2790795607056324 -0.6836360188709452 0.5038169204253516 -2.0572190864325277
Ni 5.738397540671925 5.071056564331199 8.824650685881128 -2.8436305833005027 -0.045985722701494994 1.861640668270149
Ni 0.42332474002556997 1.1527408278585933 9.698899514831282 -0.028547472620389543 -3.2369520313767475 1.6360333078458469
Ni 6.515369825376404 7.650768054978545 0.10403078815349803 1.1226775946921246 1.0970902331413235 -0.8315909216180905
Ni 6.507589538976395 1.39604241685153 1.3974303758539397 -1.3246668014768541 0.25457315152903254 0.953069889561894
Ni 4.977243028317877 4.877642502420252 6.310168675497935 0.04768933565616303 1.01827666527653 0.09921192901548719
Ni 1.7946557915013004 4.9073857932859255 6.731738028591933 -0.529480643740043 0.5745893631532234 -1.384942972659092
Ni 6.74877841737665 1.242641256426339 10.257237484567122 0.45550563491447355 -0.3579708364910932 0.6702380002974844
P 5.197369100678911 3.8154726591001236 3.838117242374386 0.3626798119309883 -0.2899129644809072 0.505423088570207
Ni 1.8483645690465755 5.482493173708728 0.6004755232219786 -0.13859711568132907 0.6992621554439764 -1.2584423831309812
P 5.019837111005997 8.91606124323773 11.49253018241022 0.5285756154272704 -0.04477550444347773 0.028733877599582774
Ni 0.9388518445950859 3.3239459468634784 4.309591575377008 0.4168501273258047 0.7479454795822925 -0.6719123026761138
P 5.732344165538979 0.701835110330468 5.600771898385311 1.5502121983149688 -1.7772650329365456 -0.13204877303985002
P 3.350382386366694 4.311895348492855 9.696936531119734 0.25836141492687115 -0.09014879037195442 -0.14130345886889858
P 3.787428722406824 4.468676845866337 0.35621862161322065 0.6884414106793886 0.08741519349087526 0.3710983750119867
Ni 5.112070706923922 1.6234343765117458 3.753700675649386 -0.26349539371932684 0.7289553116330348 -0.4008714925093612
