# total energy = -340864.83951257064 ev
CRYSTAL
PRIMVEC
9.25778239337607 0.00000000000000 0.00000000000000
0.00000000000000 9.25778239337607 0.00000000000000
0.00000000000000 0.00000000000000 13.54970032368967
PRIMCOORD
 96 1
Ni 4.920594569543749 6.215647208622929 3.180074114084752 0.261940133417065 -0.8844342906713673 -2.3509079730160996
Ni 6.890854296997921 2.3914240139521508 11.745977830687501 -1.410133870102423 1.4038025285677564 -0.6092750874608669
Ni 5.914380459645785 5.390436274950271 0.7967247377841862 0.06100482181814655 0.05273075473481242 1.5516054791180698
Ni 8.10374411888172 1.121645120331381 10.078592003203726 -0.45362435873136076 0.8543626680969674 -0.6245330420612019
Ni 4.671532454500663 6.651559142196089 5.31136092812499 -0.12736448019030325 1.2717915507443776 2.011570692465794
Ni 1.4728298310344408 1.3427024441613926 1.504829355275099 1.3361102674271055 -0.48819772583085597 -0.2855436317686179
Ni 8.130369500544132 5.867647175003274 0.28940567839790715 1.2493851580247193 -0.14124509482713737 -1.6896942877044128
Ni 3.456355960408724 0.6317769804282903 5.391032476125186 0.7352285462362564 -0.9454460544680492 1.174396363222655
Ni 4.2935464642730246 1.6515790901227172 12.325443712686214 -0.2602938560628937 -0.08719459283963693 -3.1200064325269237
Ni 6.1989276539350575 2.334488653304082 2.1892794134177387 0.8050108571367168 1.0692189606523521 0.2575036949122662
Ni 2.868338664974139 4.839116828232586 4.753397171108588 1.6015918383385257 1.563419183923546 -2.6287359813080147
Ni 1.8771912428045743 3.3633522802346603 2.641513742821567 0.657398682440971 0.7133800829025972 -0.37739654931587263
Ni 6.913822854683752 0.14820598399069812 2.3540299800123656 -0.4950031787884636 -0.6706334359636903 0.7989883050917208
Ni 3.461605122927009 0.4561522228389932 0.4612069719306754 0.609317510663028 -1.3517628863626976 0.9298543706773793
Ni 8.949025924405598 9.108972627806683 3.7611258541776125 1.1250952029946817 -0.5385597232231757 0.2864442892060164
Ni 8.287899922786007 5.609466144474277 11.44308726670911 -0.5936240111871712 -1.574446131161669 0.06046000505827007
Ni 0.7666823087046665 1.2465233446861437 7.117033951729815 0.7326193907481835 0.09401778640905743 0.46773508710112993
Ni 7.743644163901571 5.176016780971424 6.418763876290357 0.22335970204070565 -1.3615212513010424 2.042298203456638
Ni 5.973833937057475 3.210311882369097 9.373099931855071 0.6032412225619611 1.433831213719363 -0.2691875590080977
Ni 3.992548190980238 2.3338498663309575 7.302096092513363 1.21037303842758 -0.8929189311036105 0.003801118913645066
Ni 3.407021238962617 -0.004412259005669801 8.290099571841289 0.9376743809424303 0.3416494736232503 -1.0131748252735906
Ni 2.579329219655214 3.1538301530497694 0.1366837482406842 1.1448651865327573 -0.5458405731553051 -0.05994758419822579
Ni 8.473222207249913 6.124717271665966 4.5324287219878805 0.37306963980574454 0.9058104423542981 -1.4118030302747298
Ni 0.8186453145228034 4.452317429332272 4.3918779981142375 -3.2132603441867627 -2.2105673922811024 -0.6319786997059696
P 7.634402333715034 1.39964706259168 4.367447636615996 -2.109479072178509 -0.4280549949026886 -0.17988697556905148
P 3.9379643070158465 2.3406728518265063 9.468584697663879 -1.044377733238956 0.48985840136273057 0.9667296464371737
P 5.0503979340391245 7.478917881343603 1.0914999298692283 -0.005900681755151128 0.24806826053097922 -0.15729674897336138
P 2.948298130001353 5.460675068647326 13.019270052660456 -1.1867703114069754 -0.39638106083817537 -0.467415241867866
P 0.2539391147161593 2.979765331764407 0.9570176822402694 0.5132559543510644 2.3412118287742585 -0.5960634738665993
P 0.27861388166498796 9.250949975920305 8.856002802888874 0.8273018073244333 -0.7126522035976371 0.6089339020713642
P 8.688521190539584 7.655019414717188 12.286095360919955 -0.4393724767980368 -0.3527224436079603 0.13281701866444223
P 3.9499809083363653 8.048327034517598 3.4335614490286144 -0.5627723159136372 1.246169222190583 1.2555177532850184
Ni 5.6469694202442495 7.749134028757555 9.151237180971988 1.443842575208778 3.8180216029376757 0.42105413810482323
Ni 0.7401809813239901 6.193187828959155 1.7576538330120668 1.244688009659366 1.0426034149473529 -0.4776788285774032
Ni 1.0021456674459723 5.9159450248408305 6.017110365819338 0.37422766466958773 -0.5801064363167105 2.4418052115183047
Ni 5.103296901639623 3.2280868242299574 0.2080964287231343 -0.32362398358010713 -0.20109343444333752 0.47322310679889473
Ni 3.37236010233394 4.505799637212579 6.80441531019549 0.7296739349666143 1.8325239534098505 1.783734185600657
Ni 2.298809160631293 0.2588411104012247 3.290125074437247 1.0161339079019145 -1.4531396842399877 -0.2848661460856191
Ni 2.0069483183888543 3.4462557200075787 8.383579102021418 0.73776725349771 0.20475828488943446 0.02134992643068581
Ni 0.8179944924327939 0.07048134759119877 11.079169402341766 0.024523181952344864 -0.4463111128993991 0.0003581546703671251
Ni 6.954233074070551 7.808319030484888 0.3091691918794512 -0.26891399363173685 1.7308903023267483 -0.660535685408056
Ni 4.784088570721673 6.5163214595380445 12.628496287853439 -1.6214705795403237 0.08169474606733027 0.1833199125100004
Ni 5.205808324152803 4.34462164877634 4.9078234589723655 -1.2390400673449693 0.6654596050722346 -1.706282788190713
Ni 7.360862642484388 3.5914732918979198 4.851144538891769 1.5720542338907249 -1.559189976333547 -1.6644491399843786
Ni 2.2497614304339817 7.916486957934 9.576386016937109 -2.9413247901198827 0.9924188236731618 -1.2469847761133428
Ni 4.30596115022897 4.126573104167568 11.778157881681434 -0.671760864699914 0.45754374839042494 -1.5438242925107541
Ni 8.564161401989097 1.133374730403105 0.9672845627213601 -2.3285951684515123 -1.5350917977337628 -0.7451347496063748
Ni 8.042846427443834 2.212767332686066 7.917048905314704 0.6195538436790555 1.8417290169478864 0.8393808499761544
Ni 7.892490786421837 0.40665641598227265 12.233251940012773 -0.6053793519508864 -1.6688187298069839 1.1786816208615702
Ni 8.508707286496099 4.606422472153043 2.192287266860756 0.15100037444168832 -1.365685667091377 0.856705457297531
Ni 1.2010213450787854 8.841617135098462 13.462901125047985 -0.6664399667076328 -1.3224109155631418 -0.6908973284190489
Ni 5.64245162252128 1.02756753741989 8.744339136873794 -0.11871606048668587 -0.7439890660377058 0.5486129936941196
Ni 2.732730671027326 7.501617963345076 6.471688765681068 0.4155545484428327 -0.7250590619024223 0.9341373143234494
Ni 3.3326719899602373 8.427238802967157 11.489644653489457 0.6883051422118404 1.0492224629257672 1.3113975951717738
Ni 9.032531120022766 2.3822588095551445 3.1071903720076715 -0.8730016233543934 0.16066849365907168 -0.3074666570939544
Ni 6.872616466026102 7.815660451784713 4.434654506636264 -0.9123994084257254 0.33151804161620324 0.3520375017257937
P 6.895057330125438 5.315735230223561 3.292048841582397 -1.379813621852327 0.03855729144790779 0.6296654781917608
P 6.306012420864522 4.581676420281127 12.200176661478245 1.6914824899530871 0.3824567374475994 1.243642084893355
P 0.4713257278962589 8.458400497916978 1.8442492763340017 0.19722469551655064 0.005122408828229888 0.827245500165201
P 6.063153019908298 3.7293124113595604 6.648119876101657 0.14530435249817555 -0.4735432091424748 2.4993938085660505
P 2.5103865154688454 5.702293926786177 2.7074467420084742 1.3020102404196028 -1.6440150404997427 0.6912593397441579
P 7.514143742687651 7.194379944836549 6.508896718198247 -0.26069417682510587 1.0745658267865623 -0.04282198026153271
P 2.10016492755396 1.175719826273717 12.421660769068561 0.7342155315907096 1.4078666713348014 -0.967165962643644
P 4.134071907765119 1.595615796607665 2.107438767043584 -0.21367204243929655 1.470515970734906 0.41285489012348253
Ni 4.158271750486103 4.027153780915601 2.1963792066016414 -0.16191547869229533 -0.15896153827029397 0.5633940086580361
Ni 9.304811752871599 2.3337943196376423 12.308426057410882 0.4427303375266763 -0.25077460371854876 -0.06318048931322667
Ni 7.117207072257314 5.87670128601365 8.7252070041396 0.4063643973031324 -0.43672758297602204 -0.02369040163840436
Ni 8.645481761002532 7.436952354543977 9.980763166937015 -0.35257949027219276 0.9040402378277528 1.2535657717649702
Ni 1.911907926126567 1.406099736798461 9.350309123587849 -0.4375703905922916 -0.6648890772807452 0.5925323207848893
Ni 6.003023724394606 0.9990257948381025 0.21350389931736788 0.7697443206249388 -0.791486854508353 0.3712711531444251
Ni 2.1841793011931823 3.0978298284058403 11.038926748813132 1.1562842270029763 -1.1951878460467091 0.7080548140349419
Ni 8.067046270164818 9.30629299802667 6.132824311555317 3.45807718765998 -1.3599225393553547 -4.522521095521192
Ni 2.9986604652737903 6.086769622349472 10.341279722117026 2.4570140580482587 -2.2253625483124058 0.9583869308994334
Ni 0.08549469301607229 7.082138593210992 7.8822803784122835 -0.11240477355667738 1.2086069476660926 -0.9719554136124873
Ni 1.3168362006409533 1.7761610654464657 4.7472453748239305 0.24481195837721062 1.223279719186919 0.930009665308321
Ni 9.354526043388693 4.663626308485468 8.269734302515497 -1.5025089787017347 -0.5025671071786506 -1.3578479162145132
Ni 0.9422015275766648 4.447679280440454 12.865792687474148 -1.1064079109978235 1.770713090750641 0.07485972542336784
Ni 4.284816375640322 6.5066655926834205 8.108641485675674 -2.2623396397573874 -1.5043748282658802 -1.484634412414159
Ni 1.4256429150631882 6.85253633639266 11.948423309144038 -0.1465726776876379 -0.6282631985275954 0.09490738810286235
Ni 1.49592799767134 7.327460564237522 4.319915405367967 0.550305036684562 0.1665779171649712 -1.464790895325671
Ni 5.006256828417988 1.9535679461129585 4.12643886632539 0.3585825019331631 -0.15157604443950023 0.34909924503307616
Ni 6.4709212955350965 7.233457043583784 11.406164453884282 1.2424951157731055 1.345576555046328 -0.788473521603326
Ni 2.898528292790944 7.466577257645411 1.3057861117841183 -0.21181879128064163 -0.21943362751342207 0.163968247456266
Ni 7.556479580776044 9.041650035508676 8.076420700439977 -1.1779267449734165 -1.6367892121752647 3.1796511407727497
Ni 7.370722180547834 3.4337114251005656 0.4121259137173749 1.3710531020508774 -0.3093970413474478 -0.9445304846323153
Ni 7.990660309074214 7.185057358141816 2.3313613744704367 -0.6339525356028889 0.03140165423973302 0.6597910939325475
Ni 6.615463049323436 1.5806829938880984 6.398480075448093 -3.858744020357703 1.1298491727398994 -1.287478365352015
Ni 0.9996645818112271 4.853475648454563 10.353190784720248 -0.8878949955264579 0.42603873580360824 0.029355827454297826
P 5.353590301717862 0.058523996076882544 10.85647993150651 0.35812073180539616 -0.35544652740734267 0.47945391819995486
P 8.251831603260012 3.4131128596628497 9.78700241398031 -0.0701324951510276 0.3781383125779036 1.067860646852245
P 5.348415201457331 5.864082928848883 9.994096224889104 -0.9598758567401341 -1.549436753601525 0.5373988701458552
P 0.2717520134841183 3.259998399539533 6.314905446464283 -0.2983006743239701 1.0007499692466766 0.059376542186104206
P 1.9559657117077305 5.977444472122962 8.271983943594762 1.210938681123063 -0.5770095425589417 -0.006748374467427087
P 3.3405225892821178 2.8203926108609125 5.297662187775243 -0.4803324641501663 -0.2784784973917204 -0.8484416746268421
P 5.011144937429726 8.92234499604987 6.968773346824023 0.39129773277799706 -0.4387191594847541 -0.32459431791317644
P 1.47780126008615 8.993759528088765 5.7997052370748 -1.5251226023361928 0.33340317445405804 -1.3716087174440315
