# total energy = -340893.09706135467 ev
CRYSTAL
PRIMVEC
9.04623401233026 0.00000000000000 0.00000000000000

0.00000000000000 9.04623401233026 0.00000000000000

0.00000000000000 0.00000000000000 13.24007788439667

PRIMCOORD
 96 1
Ni 6.344042561707812 1.9409690357962526 11.480525043705164 -0.6009621967197972 -0.06753053875180627 0.5521904266327329
Ni 4.728737953690443 0.3672246365039324 5.997967115917886 -0.09358481263669689 0.05760145256355241 -0.17271822573475415
Ni 2.9650931988197926 1.7655896952032186 4.8507544639216755 -0.7418231687346385 -1.644605108675258 -0.16490052946254827
Ni 3.3394173198493045 4.242792350039719 4.902695226282176 0.21287088669423984 0.5259286647227265 -0.28661423912497735
Ni 5.212440091283136 4.405742164972525 2.754372935448876 -0.37591585100528807 -0.09684728543805256 -0.20749933796968134
Ni 7.368772822416385 5.904884080847987 2.7388296960097187 -1.1065459792375845 0.47484573000398217 -0.9550884626538195
Ni 4.845108709216764 4.352486984796573 11.19524029110063 -0.664768492542481 0.7498308695304635 0.8175010191839276
Ni 5.685702874718693 7.621081337838074 12.67873855433837 -0.6652762854168348 2.3456354117632507 -0.0821194923095747
Ni 1.8666904075603523 6.712522815505514 0.37856318633110053 -0.028743904901911792 -1.2987328552199116 -1.4701663007049712
Ni 2.4175246484460193 1.5731491570882132 0.4549278761516068 1.6634847191885802 0.1201975301282188 0.3907855690282689
Ni 0.5503158916714523 8.923096766332158 4.665168257388005 0.8684613122818785 0.401338919064083 0.6683487536945716
Ni 8.617876827630504 2.357982335567113 1.462128344411571 0.13180117580541817 0.4847609322351652 -0.4906040212795035
Ni 6.993363153294276 0.7020682780291282 4.733062958216029 -0.7708997743856207 -0.08759697048437817 -0.7123341581365861
Ni 1.1721476916831475 7.3053858600428665 2.5177858702782117 -1.4045378640718844 0.43368313972274336 0.265171238759853
Ni 7.374752383159769 3.585031622033318 3.676769482091809 0.807858353887841 0.04226173688268851 0.29863723172778245
Ni 7.710494315731588 3.803461990731899 12.570937296379686 0.18742853536173526 0.10148838375448974 0.06003577303665789
Ni 7.789974528577846 8.900463088601525 6.819884426486696 0.5966671688888693 0.19984876340295907 0.8375993325956994
Ni 7.380532926752845 0.31608717973195316 0.5707477160209354 -2.2092299044166017 1.7387370520646765 -1.0861895270684199
Ni 1.9313890738790904 6.71242330693036 9.219450490987532 -1.4624460492425781 -0.761014911171741 -1.147457886960598
Ni 0.13927220178646066 4.9626645214108365 1.3626559541933316 0.05240551018490975 -0.7574724452361213 -0.09962613373477036
Ni 6.573708353164764 2.0424587362199 6.983016070725013 -0.20773767923273256 -0.30623355601780167 0.7502574155449208
Ni 3.1350990763544746 4.441348142409683 0.4485629458353506 0.2840973862403946 -0.4899746152256207 -0.19896481813610895
Ni 6.051306426071015 5.645067191119173 4.870256335405167 -0.5508997328457673 -0.027315399985501344 -0.3300895366997928
Ni 5.226850742212351 3.0391909023735937 9.12265216757072 0.006700294838311041 -0.16461487990132942 0.24627517318629844
P 0.32900610665725943 5.472799755058248 12.475225425678882 -0.47576387094287736 1.1984714018939877 -1.0435845479136994
P 4.00315760859909 6.1870903999866 12.538949812584516 -0.8563537303850671 -0.06465373142464349 -0.540835663741546
P 2.565819564128776 8.472720955182172 1.2441141024818179 0.2638797736419391 1.6052134942515128 0.5182613779854558
P 6.301814740905816 7.681519227893372 5.6739292010310765 -1.3033749819776133 1.224061077437634 0.05392914591828777
P 4.730574339213751 1.1134738172783187 12.76325028259381 0.33890122145415186 -1.677558423672827 -0.18998395479373734
P 4.171372331780988 6.064305864479855 8.049782372072556 -0.21267599707461435 0.799290666823488 0.6971499941969801
P 4.848139197641928 0.9778888605130435 3.7470876690365533 -0.12410277871989593 0.24431650679803082 0.5282331444861871
P 0.25549188520322885 5.662074111236514 3.5026629466373436 0.6280387412216151 -0.6652960829111768 1.6210964840303566
Ni 1.5199573005509956 0.9174690629259554 2.6462152558664562 0.044001088171298414 0.9514416099298517 -0.08072338329299647
Ni 1.8980627474363847 6.51531491201719 4.8141452591222755 -0.15865352011157194 -0.32458197661800225 -0.34490243334290926
Ni 5.933207839830645 5.600876337516398 9.293739974704359 -0.15606081968373123 1.0022453228452801 -0.9880842008535498
Ni 8.37190067608229 2.421866840816404 10.366504833886905 0.9132447871451563 0.313098401458435 -1.364909708157301
Ni 2.3304275064833777 5.3799220695025305 6.880934746590901 -0.457373798471464 -0.20029382136017762 0.8591333500127334
Ni 0.46519263799051513 9.037115500991186 9.21007587858455 0.1045672797901296 1.091038884740921 -0.16679003317577729
Ni 1.3122286267985925 1.114287978347766 11.2802025218145 0.8586849496214051 0.3313180097902552 -0.16706257011087358
Ni 4.076269272635449 6.739770072629681 1.5528756418355674 0.1535174844365872 0.32425210408240934 0.22966121877870127
Ni 5.681396867284728 7.850973285147652 7.776691943041521 -0.8129635363248903 0.4228518534351944 1.4261042773887505
Ni 5.176463218247674 2.798027347369225 5.179148140530028 0.7522338225450013 -0.6592658175566968 -1.5019178820849552
Ni 0.845819270320959 7.764545564508778 7.121361033515714 0.11090299220017029 -0.778168283022576 -0.5722650858954209
Ni 5.103252045636159 4.373881328454824 6.913968879672017 0.5406970812811527 1.188459011963308 0.7558117697042467
Ni 8.138842546835976 7.25488978126893 9.325463308463663 -0.7490420550805809 -0.783570942095386 -0.005105182437049272
Ni 4.576761220726964 0.31570995176977595 10.42886504868951 0.20732501717534618 0.17534846426874962 0.24154820002427435
Ni 8.113865894472156 7.1440100898443255 4.867357017374525 1.3263097363969159 -0.4771396682444815 -0.9228373159295978
Ni 7.325260436371484 6.391734307909209 7.080184385116716 0.9088322598997575 -1.9507504758546277 0.30199252135326055
Ni 2.4502358309695875 5.127088872502752 2.6614672065674343 -0.49927815201473374 -0.395688405646525 0.11372246392683641
Ni 2.333403717503913 5.391890237223405 11.443121579551349 -0.2510666810376708 -0.318081199385007 -0.5437682640073087
Ni 0.9077624537313238 3.413107942868382 3.8008422013351004 0.537266715443365 0.5483170597202557 0.024467389013744956
Ni 3.6725720294671027 2.6071518077543794 2.7025913868086233 -0.5109807851636426 0.03826187169467604 -0.7921977645324486
Ni 1.0977333699356726 3.355031119914481 8.185598912430917 -1.3826117534227544 0.5730042780542906 0.10755155922943414
Ni 3.448107822620507 2.735572147108519 7.181060750868046 0.9456342592194552 -0.23620724742733515 -0.1226256799537372
Ni 4.0829182547026015 6.949733166206011 6.088013330198748 0.522496499112726 -0.4839975717065793 -1.4508398324622174
Ni 0.9254116564701182 7.612062242435421 11.409518438345032 -0.2329720283194891 -1.3149603728223676 -0.17348981379345604
P 0.19340305742377414 5.734054996009752 8.021183607573107 0.5659298877060124 -0.3285368475006923 0.03283195892835636
P 8.508155054171334 1.6487213968011243 8.110937628492378 -0.23264241289421225 0.17464423911287344 0.12314915655737502
P 1.982844053468154 3.3468714167517994 10.404080176488716 -1.4292878173230545 -0.10691058321132556 0.5673128840964682
P 4.08768562007592 6.030690058545791 3.7695558006830647 -0.23543154560357515 0.39497389607800365 0.24792890673963752
P 6.844109336796392 4.034376162495338 10.528192699162068 0.258233116879123 -0.6185752818158701 -1.0600565774267936
P 6.291827698453931 7.8372682404786245 10.571977376853528 -0.6193779802228235 0.19445818851500704 -1.7292648509081832
P 2.4710964468156456 8.42050609192829 5.692729989371433 -0.4229804085932586 1.5483183237263658 0.8988152419833876
P 6.860736315081326 3.9325969825803315 1.337843943290223 0.36446981395187555 -0.37373581263483374 1.4683680711539677
Ni 5.061874570840032 2.9433912832019717 0.5258114527279124 0.14404425483882935 0.17036849455565498 0.12356567526950332
Ni 1.5289040260808098 1.2173064923351529 7.166761368618322 -0.3203016040750935 -0.9635209096918891 -0.7677704847280196
Ni 6.7280461532296405 0.5893395363534676 9.282380618538747 1.104047638295763 0.1749265462399826 -0.049693767680701516
Ni 2.8008497724099755 1.7496773694125782 9.275509099112615 0.4069470092794798 -1.0454084884963157 0.06579658677983506
Ni 6.405249381662032 1.7641061128100037 2.446316097731904 0.2805058122343943 0.37029979037009125 -0.13911956384370233
Ni 4.0016378412694555 6.920495737578751 10.257723868774654 1.4114248209997047 -0.15907826635381636 0.43880966231603136
Ni 8.2324620235883 7.189702618308523 0.12111550531437738 0.704865874783999 -1.1269301993208913 0.2691636477486978
Ni 7.45911756242271 4.031598968625112 8.204783261097326 1.1872950735621939 -0.24469651584526889 -0.038767093465868714
Ni 3.072698153498399 8.413992803372713 12.147268682177799 0.9048390795799642 0.21719831042500012 1.3964589437184918
Ni 0.13331887512198057 4.902850821508782 10.200129210098547 -0.07428765496998173 -0.11662883894035399 0.07144787152834148
Ni 8.759405160202743 2.1762253999300762 5.760731435761896 -0.2769929139851294 0.9244062030786144 0.13129775380643838
Ni 3.4270753283264543 2.511533113264857 11.819695499002766 0.14039997321802272 0.6644715301273525 -0.8515362543917657
Ni 1.090948694356946 3.357319817143038 12.461229996895085 0.1854863240336999 0.16446215637354902 0.39885420496901625
Ni 3.2380361742349173 8.566711327532799 7.898222670501315 0.03236787480774425 -0.23393850599781646 0.3129078827141837
Ni 5.503258425289679 7.765992961965573 3.4436380783492417 1.3164616399582425 -0.2186260440104622 1.1896571460364673
Ni 3.1101043315224457 8.195300093885088 3.449702673693213 0.691017656046997 0.6847328514795497 0.9935904753837598
Ni 3.0286429934071997 4.471996783557318 8.995123786899331 1.539631337475329 0.22504223194945114 0.46783613145536845
Ni 7.09297123702409 6.049451948079497 11.382693640353565 1.1146812067502094 -0.7821979730072594 0.833177806489236
Ni 0.6351731860697035 0.17531511233088862 0.2868750805601873 0.10338534366688645 -1.5800007424313112 0.43143419578756664
Ni 4.722731254244744 0.14897157399380842 1.683833449856151 -0.286677488262745 0.47237001476998003 -1.7749692949238334
Ni 5.726555667936734 5.528624065720011 0.3152739232859164 1.4359210063688561 -1.6994961042861827 0.7006472087169611
Ni 8.00593527536577 8.78967385951797 11.512671741220583 -0.5370029202590171 0.7566448071285033 -0.8126400915472005
Ni 0.17887480545119394 4.913661071264219 5.815690926443224 -0.9279111309080792 -0.447758643979203 -0.019425712824779447
Ni 8.255900816154274 8.735767350486459 2.5756184449112784 -0.040482533495078674 -0.11491519868335692 1.0637013732682326
P 8.696805220196358 1.681215469706173 3.59792521950313 -1.4109782203805894 -1.6147116635499352 -0.07043459977247869
P 1.6313345348513737 3.2200793995365538 1.6804971987182384 1.4142856874872676 -0.23727065569484296 -0.2657019144523424
P 4.87863405280978 1.0691291776957608 8.280701971576457 -0.5734624486376317 0.13901234884187672 -1.0130287866140295
P 8.625349017001207 1.6720425883237342 12.41488975806897 -1.486453467900769 0.3615945492866095 0.5533291682228664
P 6.613140887628324 7.609574528056554 1.5071975873459367 -1.1025083188331013 -0.6355723305944989 0.28846003408446447
P 1.7295585447631272 3.154358508763954 5.98164228185206 -0.5486225067758165 0.9705006834438318 0.06316454847362671
P 7.047866713776714 3.9634898720488008 5.822496408360393 0.0009911602686757124 -0.25676733096687393 1.120726898723657
P 2.427584060770745 8.61928804015088 10.030669725103804 0.3165066558090356 0.6218557523393549 0.35080722886311844
