# total energy = -340871.5805348171 ev
CRYSTAL
PRIMVEC
9.23374862902239 0.00000000000000 0.00000000000000
0.00000000000000 9.23374862902239 0.00000000000000
0.00000000000000 0.00000000000000 13.51452448018700
PRIMCOORD
 96 1
Ni 4.354922075555949 4.772028966318035 5.6286235076453845 -1.558040436110136 -0.8099244923882504 0.4466080753145276
Ni 4.713357727853892 4.904200843462472 8.417724357725765 -2.0505563297003717 0.20162925234214948 -1.1372642342570478
Ni 1.7636644458810753 0.3210602081790701 11.35401116013829 -0.29592188967914845 -0.6704079502164454 0.7123783811109602
Ni 7.948660087090546 2.0805020608354594 7.841478427097408 0.424332808856095 1.2193955536411645 0.2324547223634384
Ni 2.723531078053668 5.679272465345027 1.2591333469580412 -0.0014264480338814142 0.2279041268782785 1.5654040755640588
Ni 1.196426036990486 6.540531896453944 3.228931072717885 1.1005396251425044 0.1772459384017786 0.8502221635660325
Ni 0.23380590099195575 1.4680275176616095 9.97497574114616 -2.3078630781104836 -0.5037945518278485 -0.3396964636619375
Ni 4.307128192916603 2.367911719071993 5.12112652867912 -0.000340671168870381 0.08207552644551672 2.1943648143793113
Ni 5.449213619525993 3.2159761234630544 12.74183156752746 0.23764577964607458 -0.5081188902348153 0.6400879590766655
Ni 0.038102140131954995 5.224888931573852 10.848284290774414 -1.2208536262439298 -0.4864761151540589 -1.172845216685451
Ni 1.2210709119449712 2.600888429441651 7.704306475098025 -1.6886558191375691 0.19527477087903145 0.78718617025047
Ni 6.341840094554126 5.8121738086271195 6.306376959765742 0.6901982454694952 0.03309061190638172 0.1275773675320577
Ni 8.039021550674132 8.813862328842237 0.5982674976118527 -0.2609695419736796 -0.31412581428168485 -0.03615202444052484
Ni 2.0646292470300045 6.031189091146952 5.553023114538471 -0.7474320302809837 0.5188275349015711 1.5368961979323532
Ni 0.6622638388808864 8.460339030787752 9.350618286927377 -0.4554357009084866 -1.1398772463998625 0.8505746618094449
Ni 1.0519548067402513 2.98708072996484 11.428476725544977 -0.21478301611528816 0.878107577122391 0.0955967008604031
Ni 5.345767934207484 2.8724806763641966 9.52298282488181 0.5995992549339996 -1.6886249658996337 0.12466070810589498
Ni 9.242151289132192 8.57121788371149 2.841617795117336 0.7085260972444056 -0.5965473554815532 0.4618230924920691
Ni 0.8681976697903716 4.568932666346547 2.1241721513599043 -1.2880355234070657 -1.271748356211268 -1.2748614479189526
Ni 8.280400972249703 2.1847418485316696 3.832110924573194 -0.3589388568313174 1.2152571059927586 0.7916192663211592
Ni 1.0843467967516167 6.20908649124928 8.67766269056811 1.0292035966016793 -1.2053079651998468 0.23578841472236167
Ni 2.1488502678092702 0.2877900886779439 1.0413563101225076 0.456886060201768 -0.7170102234560168 -0.2530672564074674
Ni 4.046145523110094 2.88337649968615 2.9464365388493814 1.0182679235257817 0.11177845282658813 -0.48683067028000027
Ni 6.596737724047782 7.829018406766354 10.540342469200004 -0.5363966541335858 0.26758319063545527 -0.9995901446106205
P 8.017386877756051 4.359169599901795 2.8514027984853643 -1.7762651309171216 -0.6096975197102661 -0.6101050395613299
P 8.21179422031571 6.767968357676845 9.114276798575922 -1.2660073399624328 -0.25516167704265086 0.8307427146851821
P 2.328612885124339 2.242766724595358 4.077615985013383 -0.4488853013844785 -1.0932112098018916 0.5967635852574175
P 4.028093544640249 8.904473103637429 7.826031289101396 0.6716297384386885 0.7833354290458122 0.47996428217747017
P 8.784535943358744 1.1800268995160887 2.1043463697882387 0.6733660044035048 0.8740249224125851 -2.7285585473243072
P 0.08747037690383785 8.13347356487774 11.912174640926493 0.6276175945237965 0.30809991980257906 -0.3346321617651527
P 2.5617188679740877 4.8059999273362255 7.532915174243704 0.4958878953862621 -0.027910867477655157 0.4611301801901026
P 5.956949752580425 3.6338217141113747 7.077583334493577 0.029807827390051892 -0.009391982737861244 -0.05911454677396916
Ni 7.643152281641276 2.2758881807443796 0.3496866755203572 -0.16691113213467382 -0.602647040621388 0.0648751034068302
Ni 4.754577181505754 5.620001033223317 -0.010568948622294419 0.09983722130431193 0.64080092598329 -0.3060044707261311
Ni 8.515510678540862 4.948744446602388 6.956195552313299 0.2738811078290251 -0.8318328624255674 0.15409212599313463
Ni 9.074207869996869 7.309195296823416 7.195605415317199 -0.8775473337435468 1.5140370339459925 -1.5449028702869134
Ni 8.577007444069851 6.343372896818061 2.001487950879287 -1.9384796289070743 0.8987026276649231 -1.7809946751823071
Ni 5.553388770982157 8.00550304333626 13.199014773867459 -0.5741831288537401 -0.7127185380591984 -0.6419622932812428
Ni 1.9295856740778325 3.698568759139793 5.7559707511578555 0.35044290354516416 -1.7448657906702338 0.7319498754849845
Ni 4.465025293599142 4.3631308780417255 10.901639660182246 -0.22636814984972625 1.6261389315502703 0.3786005969263028
Ni 2.6221352849194592 2.400839266500878 13.036610680504035 0.6569590238003912 0.17939435220334912 1.153791799598426
Ni 5.08926363246127 7.852038141971125 3.774957714375262 0.4026720360532097 -0.7541724343286109 -0.2024214092261417
Ni 2.7295422483778977 7.3590760066413745 13.142807099523907 0.2048099640629763 0.8941808285351697 -0.907480116747237
Ni 5.6181081147648415 7.2396928712773665 8.385897473127368 0.16229600196016564 0.1491124133903561 -0.5440055768290953
Ni 6.9360041142979485 6.366531138251501 3.8635998539736387 1.3579163075586034 -0.14324129932155977 0.4426596321897409
Ni 0.21595891174053983 0.18013750750733262 5.209767744902639 -0.0219469365847364 -0.2260573034775268 0.6167778235958152
Ni 3.963882057029349 7.991347706766299 1.486192147864106 -0.28489468533070933 -0.9721747287121449 0.7503402050667142
Ni 7.45358342333645 9.005241001868338 8.199518874956215 -0.22357721736815045 -0.9048151683205643 -0.12598765444743462
Ni 5.584284893723898 1.4294673836001894 7.654140442449009 -0.10222809013399169 -1.0412402160512388 0.16401401309253688
Ni 1.897710773986831 6.696249832472092 11.093640687862498 -0.5832596372337117 0.7810823713455773 -0.813494983348328
Ni 5.924936346260755 9.154061327698775 1.9528085517513172 1.4066816498877646 0.24674851327829117 0.20407668544137755
Ni 7.297625409855276 9.035149113512242 4.169325575889347 -0.8137862893365017 -0.6919993032339758 0.10150715280756713
Ni 7.70849952032726 0.49711178194067035 11.707253752236005 0.36851904432058463 -0.3159538686293591 -0.2859714633346559
Ni 5.06878317811543 5.161850130032349 2.7735724550968817 -0.9816744406724642 1.8985910202422527 -0.012540041448539693
Ni 4.280562698257909 7.064851841954332 6.062845151396657 0.13427689103942037 -0.06821496641334059 0.6683780642706103
Ni 7.53653942056054 6.924498863569853 12.493907264959853 0.9912787965314477 -0.13063620896303954 0.2984911930682214
P 4.003679513400211 3.894158021517428 1.0889913722863136 -0.8411513116130159 -0.9780792671220381 -1.4435055035843334
P 0.5528937804747808 3.776935583320654 -0.05264898764162006 0.15621739986625352 -0.42981954300227915 0.2461471322488664
P 9.005702689297234 6.583330321112633 5.194725968469197 -0.4338024389094271 1.0639589978049935 -0.44845618426685996
P 9.08257364620847 3.4520923083492074 9.389229206605977 -0.3164269516110357 1.5206967053543552 0.7443953003371889
P 6.610523710674625 0.9753793297835088 9.825086147230397 -0.2601832986269584 0.34651142970124194 0.2352785649654787
P 8.97500047527563 2.809792757268655 5.965202877059375 -0.17654659834190883 0.2132619514850714 -0.32088884403713125
P 1.1572657092715006 7.547943100054279 1.1434935732675235 -0.07384902477066638 -0.3002277161433539 1.1185404325952994
P 0.28277800994984553 0.26037785927465423 7.496235954767607 1.1310367652900972 1.0268291828322316 -0.6577974605412864
Ni 7.666319756823294 2.904595653918224 11.432354899947706 -0.06267552465235013 0.7223977130201753 -0.8060848069271859
Ni 0.09713257141577991 4.627530034822066 4.572679721519469 -0.5113862481321773 -1.1898792893496022 -0.5032201673816172
Ni 2.6130031075758904 4.849176935686609 12.536896828214104 -0.5777891010374436 -0.49552896938494667 -0.3613523513688164
Ni 0.36121685736961373 1.1947916634921931 13.241098506386217 0.9651746432452282 0.4112808607681433 -0.32917988040132984
Ni 3.80073095340597 0.4441590039708365 12.412104562933147 1.287998242411227 -0.3882987980506732 1.2637607100201007
Ni 4.5975849881838515 1.6286024054317476 1.0863403630695911 -0.9159223339773195 -0.5796408095342017 -1.5965118527124569
Ni 6.2534823544119496 3.9804289344809933 4.555259331452353 1.2367070483364184 -0.954575527573143 -0.5268948852907377
Ni 2.5618204392084447 4.499107059600268 3.7130611275328484 0.3063230304078144 0.22368366103902768 -0.9790174626655913
Ni 3.2905940457212766 7.195869500526528 9.275221036289178 1.023585221973637 -0.30866813360122325 0.7104557101669506
Ni 2.254789065243818 0.9569857026162796 9.094058582689694 2.0219654054365566 -0.21539108201293228 -0.5421086169166985
Ni 6.100331400498464 3.4335140062104195 1.6722060129664311 1.3870291657641596 -0.35876196493382084 1.0841419005107717
Ni 0.5306062815322402 6.06098639780792 12.992850099243526 0.07876908778010305 0.28300595294842873 1.4163891069835155
Ni 4.4316822274842504 0.15280007146752408 10.183951168837215 0.32971878362393536 0.05592997839840045 -1.327601972845778
Ni 4.3633709555047515 0.040759612972682185 5.497573530953166 1.3793166276112503 0.4320749146953591 1.1544371464919085
Ni 2.262563881546432 8.16139642057739 4.427033958450123 0.5591606873029789 1.0402238589715826 0.6443696171711548
Ni 6.912568860407171 4.906093761920946 9.084354836309153 1.3456068940636308 -0.07373023980461496 0.40306232951309295
Ni 2.234631792098205 4.6050643245319725 9.788218559283312 0.8949076793988654 -1.3812364703417825 -0.04013543456830507
Ni 3.536110186659758 2.387394928571417 7.581621351242549 0.44035309554375135 1.558557742066187 0.002285453600067032
Ni 1.7864071686285077 2.40314770364536 1.943524017556212 -0.564199535278467 -0.14650865721892187 0.09560235728735793
Ni 7.647344403495655 4.838567358570572 0.315757266370767 0.1825696646075372 -0.6038004374995408 -0.14560285757520086
Ni 2.268732025596487 7.911392677830035 7.319803950564596 -1.2685645591666475 0.48084668478242354 -1.2642415063112613
Ni 2.358502529271086 0.978103285613997 6.105267762488223 -1.078169999198053 0.2106170576630566 -0.2323253958744257
Ni 6.780701696965806 1.6021477157559887 5.660179843410448 0.258315135069968 0.48166892357340274 0.2851175999747928
Ni 3.751856722183006 0.4286850881039477 3.1835758230779687 -0.6219863643799483 1.241309065884804 -0.1325768776291781
P 6.170600227176483 6.644116088001121 1.344462417566658 1.1492643440417174 0.8567676779940342 1.3392454706219774
P 6.304443412813524 5.2068369531040055 12.05669942691848 0.34750927483813704 -1.6114826150896764 -1.5531764231496155
P 6.110867107625878 0.7645793133734564 13.108831521631428 -0.5578165145702587 2.210545537904232 0.9397320348024074
P 4.195104355169201 7.345262318768796 11.39027116742895 -0.24889949818302295 0.6625074644224461 -0.1663863699794554
P 5.785783755191406 1.5966351678549668 3.714534833805886 0.2549109944844255 -0.44801009786837687 -0.8742789474049201
P 6.4258210378703655 8.024995486584263 6.2262492597310715 -0.13606637883967532 0.617509302445201 -0.32174939226521365
P 3.5850398203741896 6.377343857836253 3.9418484861727014 -0.5402173134312568 0.3973683644521092 0.17962292327438742
P 3.1811094888328046 2.4060378669502507 10.869435115267013 0.5477989824332565 -0.4684256854102513 -0.44240560719740585
