# total energy = -340890.4989271308 ev
CRYSTAL
PRIMVEC
9.09199906608133 0.00000000000000 0.00000000000000
0.00000000000000 9.09199906608133 0.00000000000000
0.00000000000000 0.00000000000000 13.30705966655978
PRIMCOORD
 96 1
Ni 6.332377235977522 1.9132747964084005 11.335991558438659 0.5995696872476448 0.6520063077808061 0.33828158559228194
Ni 4.6188627482244735 0.31618971944902713 6.250099191592805 -0.7804077138760559 -1.3474570598984923 -2.369452054566874
Ni 2.7690137364039273 1.6438334078962091 4.764459291609581 0.8495950715049949 -1.828894069966747 0.7172200254739778
Ni 3.357184239668383 4.320390607104912 4.86089539673974 -0.9176675988032003 1.6028221112012009 0.28104085880225793
Ni 5.22557183732245 4.472936165277935 2.702916722528242 -0.040697991939994425 -0.019372748099656955 -0.24845084068137857
Ni 7.310958173617328 5.8959703789774665 2.3762412007046203 0.12203304067506081 0.5309135195318276 0.6956829227331502
Ni 4.8840127132381745 4.601915262205012 11.381261530348262 1.3830382994372115 0.11935292273973638 -0.61603168945841
Ni 5.586606023130805 7.767494716264963 12.703518209424987 -0.3004606580897664 1.8302909503142737 -0.899239731115316
Ni 1.821463791137737 6.571251324061909 0.4155007146432168 0.000415233160547672 0.4984659405260835 -0.0362551256772924
Ni 2.7439380033343594 1.6831835792976184 0.6474312431390508 1.1128163856273288 -1.0545713859425063 -0.9660904701912782
Ni 0.6440662943322897 0.033617666071328725 4.665907478326671 -0.9951889302191311 0.11543353308067218 1.0542988490074099
Ni 8.46775138243066 2.173887853952299 1.3024733985886652 1.6251788816298463 1.0197807606258824 0.3334576818410773
Ni 6.659798301714017 0.8920851149479928 5.003307922096943 0.051523621800588684 -0.5437988601349281 -1.3440086963385758
Ni 0.8630479979413661 7.400832583114308 2.5357266816666213 -1.404427049525633 0.5356682606079937 0.10608140244181086
Ni 7.710415146935469 3.791554488906444 3.8776238968480894 -0.43397238882838807 0.2361108310587869 -1.060426816282019
Ni 7.649044154107486 3.797891612165867 12.548025025196432 0.39586401199244076 0.21075641145439833 -0.7744406976593436
Ni 7.8390578399018604 8.84204170268986 6.9401637269495895 0.8729298895761933 0.8872830729740718 0.17933521683063952
Ni 6.878806372120012 0.6750318243135558 0.19237760551811886 -0.9518673846133607 0.2311285473528471 0.9542862784674985
Ni 1.821500159133487 6.516190178496536 9.407744967379912 1.1800234796014453 0.3885895898182146 -0.14769187889374563
Ni 0.026502267702857636 4.690016731909184 1.2725716324830842 0.324647282638299 0.09987090275572477 -0.2240703549544851
Ni 6.094339611795384 2.143402381514932 6.908666315030481 1.9689052923867831 -0.17804118060956434 1.9310134024370162
Ni 3.269182781952524 4.232898301329551 0.4355976690946205 -0.36155855384235147 0.9940656152479656 0.07362508168531837
Ni 6.181186385646184 5.668179437597867 4.801546464475452 -0.37448117544129056 0.13051408156287847 0.5598068055274101
Ni 5.307563483740635 2.9504082072055713 9.391723046852286 0.9677501172818881 -1.4540390561258054 -0.6344014502148494
P 0.1519509414425121 5.617236967551171 12.327793171733452 -0.41323772738419795 0.21589373268096365 0.7250441495040867
P 4.110265419660834 6.078855937604857 12.648040650308277 -1.091926429552197 0.88239257765099 0.5930887075089916
P 2.5008906877376704 8.431537950662682 1.720628976921626 0.25863806562702557 0.5202444698537556 -2.234577639152771
P 6.298200411971538 7.765385372511468 5.819017518370431 0.060638182507347184 -0.06522014545107478 -0.450915701550946
P 4.7557791602239705 0.9387761662915226 12.620295506350667 0.1266165462806852 -0.63910142679368 0.4163865574258248
P 4.016890590572924 6.241993674540042 8.433136324075889 0.22299331984022241 -0.6020667426378857 -1.5733192166460774
P 4.6470206689338465 1.2467494463007498 3.4730490373280407 0.22906986505160548 -0.7534376130451154 1.0974825834837358
P 0.20772217212490224 5.607126664732695 3.581901176207221 -0.8279129585458709 -1.0366523395702405 -0.8948842823600976
Ni 1.3300958005606203 1.0301962156078743 2.7268695937290306 0.43302956529914455 0.9478898880228513 -0.7562465432488202
Ni 1.3850478421387435 6.8147714236033465 4.94264064998672 1.21414793208898 -0.4023575901365844 0.4190805593182202
Ni 6.354825381354158 5.774155777213122 9.108429088758951 -0.7895400151946274 -0.5387571839459624 0.1283569260105596
Ni 8.823339460875465 2.250260645027123 10.376232876999222 -0.4982929052833289 0.7171673178591713 0.3082654988461659
Ni 2.389259124783303 5.338885420080251 7.107327401014292 -0.825883586820668 -1.1627222693188362 0.020023494309778418
Ni 0.43859530114430734 0.1692966570154346 9.353585748109136 0.6629643494542067 -0.35576431575807765 0.4236440103191865
Ni 1.6605263179454206 1.1484740297855391 11.675094933609921 0.2590404432717668 -1.2293688628037922 -0.686156985520586
Ni 4.1879201825858425 6.812698447845602 1.4933717358796563 -0.10270502977041022 -0.06485787701564959 0.6317922947267764
Ni 5.732250754110281 7.824683389581706 8.010663864647414 -0.6760558925308421 0.6265765548537918 -0.30128469665295854
Ni 4.98598857332094 2.804008840314284 4.987245996773994 1.3039066861113673 -0.09922709852413877 -1.01266214730323
Ni 0.9091898925490721 7.600511063779223 7.2986957946503495 0.19401107367525944 0.5723257639300273 -0.4115613681230396
Ni 5.12873295663936 4.580149016748687 7.407667038715611 0.7065630599807639 0.48218288709534374 -1.5363287554646574
Ni 8.508083489717317 7.130318338727494 9.496889289362212 -0.5462509212198463 -0.3029602845831686 -0.6373772450137216
Ni 4.461725730588023 0.43857075274717616 10.383405554960998 2.4740131637094165 -1.8978114617637507 0.522946442165951
Ni 8.076995452095687 7.335679318728333 4.44964155480022 -0.3144747129806713 0.0458823643544113 0.41017657196037105
Ni 7.6299600483377175 6.406213359348789 7.1392239516867555 0.13677626042250637 -0.85136064804585 -0.909081656906402
Ni 2.2086101978945316 5.374298755941732 2.572268334596243 0.5287928736443991 -0.7858610236811434 0.5103464940137534
Ni 2.252915508716867 5.469755652786325 11.624994382664834 0.2116771234964548 -0.91136505362394 -1.0184229610464073
Ni 1.2023441234901022 3.145840724366683 3.9992902990297527 -1.0486699328564069 1.1760156439936327 -0.6576341954905448
Ni 3.4237558558886048 2.9446347878802723 2.8078429362662187 0.22062559093899423 -0.060281827609192956 -0.4412506676573562
Ni 1.2379483913292701 3.256263051462366 8.299133897735855 0.042124954194508096 -0.11366101456128165 -0.4878007475027534
Ni 3.7832080338818384 2.655963821615313 7.154021179957502 -1.1709045480193123 0.22401070536114326 0.06153883994474562
Ni 3.9143055665613486 6.614101915054247 6.02636782773879 1.119493283426872 1.5606807019464606 -0.7978436499643162
Ni 0.7684593869953028 7.610603182599824 11.473386209582266 0.4092900555903596 0.07018237455235656 0.32547903451097493
P 0.42263975220892536 5.598934773690027 7.966071246658655 -0.6271848778617521 -0.42268190351623336 0.2358768606711099
P 8.582483317022708 1.6765373280743214 8.02011136074335 0.7176679116446738 0.1305179382176204 -0.6308443289912102
P 2.0332255383905613 3.2773383049994425 10.541746353256771 -0.5030990684227206 -0.01228344535304336 -0.2975074889987135
P 4.182501351219105 6.18260473748043 3.7648594708261114 -0.2669869518123531 -0.4681132963761551 -0.035702338497615935
P 6.986564743527013 4.004370908036016 10.299051807218856 0.25021795988413037 -0.023485998937082135 0.7277214392259338
P 6.431398196405606 7.853686866192263 10.113737775675265 -0.3640592087770182 0.6496815163023715 -0.15494059003635893
P 2.41653512159574 8.576900829675097 5.745509616160806 0.051267282815408474 0.35851642458191807 2.6614668958821324
P 6.8708963330444055 3.762741944273573 1.334219022078767 0.19398433420238204 1.6457343371836948 0.36241987340138226
Ni 5.134642755948722 2.92603255805419 0.2183279888854715 1.1860984821509315 -0.394810631027262 0.6010048770322747
Ni 1.7196424950369094 0.9573602121197298 7.463876503746787 -0.9982770822261519 0.6702655111013102 -2.600499869280457
Ni 7.1165348683382765 0.7038552793451519 9.219516950176857 -1.7782163411062213 -0.01373663285980215 0.08186161066249772
Ni 2.8206744743666827 1.5239008499119233 9.425563466897584 -1.2861485907969978 1.7639431190166588 -0.5825569547397321
Ni 6.463838448614532 1.9183299478176388 2.405782923652277 -1.1952675502447092 -0.16214430687364978 1.040582527862582
Ni 4.104810220298346 6.880488391923445 10.4481042194001 0.9377566562435915 0.5381563171371699 0.261440310962511
Ni 8.154331995057884 7.515346309731857 0.07118307808131084 0.789759330294285 -1.2341413444917715 0.10712552743560905
Ni 7.9310506851512725 3.9339806522620533 8.13666805952215 -0.4299103029438725 -0.40465924168656764 -0.13236244762552687
Ni 3.257626851302988 8.31807889592188 12.278343607912293 -0.7271660809430961 0.10479636508180017 1.0991280895069586
Ni 0.3228687018684992 4.647093404925346 10.03590480957108 -0.8541053006705226 0.8485553173865709 1.5158537754397572
Ni 8.557307571964829 2.4852797255620187 5.679013463531766 0.560906466349492 -1.4396874153898238 1.9012881074584416
Ni 3.867754532001456 2.5897831613494025 11.517286926451884 -1.1193482732085756 -0.3084115375057269 -0.04347864000892512
Ni 1.1345178114165089 3.2251502310983127 12.551550902384387 -0.6086441387450874 1.4370155249846155 0.7453106130626067
Ni 3.305723525682252 8.44668522089252 8.171678619830699 -0.4748467584452468 -1.9117553255383528 -0.01800594965911738
Ni 5.682153839964772 8.082459743457111 3.6408646077165603 -0.16301539662469344 -0.46234219822033285 -0.36580884447827317
Ni 3.142667616737503 8.390596679447214 3.7779810436926815 1.401014424299658 -0.43756756237881417 -0.4962331945408228
Ni 3.512721065491837 4.220078582827705 9.135309583617609 -1.6787570719666187 0.8773120778042891 0.8684597696199818
Ni 6.969708177496928 6.263923575977243 11.308139128893584 1.4419864958366457 -1.4777824224893323 1.5937952251122423
Ni 0.7110825093005539 9.287658754613583 0.6017666784755623 0.0461592721648818 -1.41272682764058 -0.5857011567956687
Ni 4.630355034881447 0.17193606430698474 1.5273312611110341 -0.046181640762384984 0.027443183812617254 -0.317047358803854
Ni 6.073227990262557 5.714139492226823 0.22236392721381845 0.6545077340464213 -2.0956038568583133 0.9582848581039303
Ni 7.812600122993796 8.985931677874403 11.500519462011386 0.3277197509160356 -0.7996760751873647 -1.4660538211984946
Ni 9.220741642433737 4.85791867628761 5.586489645544405 -0.2091466437651172 -0.183299086574394 1.6095316620108926
Ni 8.004050344620293 8.948154422289178 2.5396126020125 0.03639602213053087 -0.7979274679273741 -0.6528465442939144
P 8.341118021229454 1.5471672751929322 3.6918843597542237 0.539504089414316 1.282335644808811 0.3451271477592056
P 1.65768052227799 3.2025020617450526 1.6023429799449174 -0.9931377041170574 0.5611795175052207 0.3847936131108921
P 4.669405170317919 0.9862000327494133 8.178159396673333 1.4073393380764214 1.1049881478321615 2.2676296845117334
P 8.726600592180688 1.5041075682250313 12.56227673353093 -0.05995684016960643 0.7228085753053487 -0.8306771515545694
P 6.501979384157256 7.80151697628901 1.4018589481741421 -0.8429531407084451 -0.4827937812064653 0.7223038677547883
P 1.9061103012456668 3.016998007423668 6.185387798355192 -0.8535406864163043 1.187609262368503 -0.4027993056596934
P 6.995602190470867 3.9523101221200103 6.135765486554219 -0.9279926348782921 1.4765225819403023 -1.2143284235309022
P 2.419180893286546 8.571163778345547 10.202509325701127 -0.9364618486915679 -0.2672402054737398 1.0465140628556686
