# total energy = -340856.54554698727 ev
CRYSTAL
PRIMVEC
9.32320752269915 0.00000000000000 0.00000000000000
0.00000000000000 9.32320752269915 0.00000000000000
0.00000000000000 0.00000000000000 13.64545661373142
PRIMCOORD
 96 1
Ni 6.422095748978316 4.198576005382902 13.861055101477342 0.22683094841875773 -1.4303913347998785 0.4676978061052913
Ni 3.4211510187399097 8.872001618849906 12.678266372788315 0.7928333412339184 2.3322057686209057 -0.004433610291321397
Ni 0.32527365971497263 6.610806793453897 9.730683953412042 -0.0853804224490336 -1.262762864883206 -2.8673405253229327
Ni 4.689340328793312 1.1812410762319876 10.77892854130113 -1.7899428855145303 0.8542012028184385 1.9565292873199336
Ni 1.6151151870348195 4.956953678955216 13.47069892666081 -0.127286061543884 -1.6067417579705812 -1.6667281658265425
Ni 3.1169347556482534 6.882121457022095 13.4405159744655 0.22408089647744633 -2.043697654907325 0.6059935884961176
Ni 2.2260183632248522 8.541195567761394 1.5991659758404921 0.4270090701366775 -0.5036405427484875 -1.2423675890563055
Ni 5.62715245530654 1.792153575629593 2.548562187762588 0.16921689744971502 0.8404270318524816 -2.1523051662051
Ni 1.001265877251867 6.799219495287158 3.6102060895749175 -1.0313280991438496 1.8728571058112586 2.2368373817212253
Ni 6.2264389148612 4.168200995111599 5.870944077799872 -0.23863642569411803 -0.5360495552068123 -1.2435775502040067
Ni 8.33522726606906 2.5409469918173455 1.7874863779187844 -0.8172462228606441 -0.5189684313548094 -1.0279064750568103
Ni 1.7515789762739422 4.374271852087231 9.99552924324566 -0.6342716095052044 -0.5999188430569474 1.78015700977236
Ni 7.531343016335227 3.131143323988789 7.7622863264728545 -0.9968979424904381 -1.6970525278416966 1.0329532934520984
Ni 2.6079715310562643 8.739658687357842 3.833281544842087 -1.890145717688377 1.8195743352277178 1.9419465044097524
Ni 5.42344969305433 1.5751932122092456 6.9011212217341535 1.0280733396519777 -0.6947560400435067 -0.29205392208330994
Ni 1.7701414825508495 8.236261417686652 6.3804517777140966 -0.28464554543438075 1.789078994852338 -1.3176492325084403
Ni 0.5195776964133146 8.139654340820096 13.417796249932001 0.6666628813517164 -0.9396289335656399 0.8625529172172436
Ni 4.778843121489602 0.4608349624610744 4.005992100481692 -0.05565924123551705 0.7256069639860923 2.078612978727272
Ni 3.7829101189692214 0.18653314318663816 6.007098336547586 -1.0505653501069068 -0.45943865142029267 1.6911577596238168
Ni 6.9746356457643115 0.08489339887242982 1.7175129081246745 1.0250093560146736 0.38006072641159705 -3.9484271839471483
Ni 0.9551999086359959 2.5199045123261454 11.3148125277588 0.3735656056055566 -1.4550944939735133 0.281412897429696
Ni 1.806399436800419 7.642596852298228 11.111304620544857 -1.0446371575479299 2.3894948321503624 1.4155013050619234
Ni 3.78246260500574 -0.11727010180955501 8.846103612854932 0.15310893614425888 -1.0725292559725077 -1.1962556251895915
Ni 8.70512552650919 3.085254496316796 13.043637283631224 -0.6544773950291181 -2.2492270136348296 0.07200451536275987
P 3.3179804037422915 1.8893480145732189 7.712357752959685 0.8155474950019825 0.7405121632326989 -1.0273184637638242
P 0.6997682614883606 3.458919332616229 4.475286941494081 -0.36285593249753634 1.2213382791898322 1.9069969849177608
P 6.088800401467939 3.0295949471087917 9.74667698368196 1.8901732284922028 -0.6885684231755561 -2.7900086842099885
P 0.21635994885267637 4.628664893911287 11.715102580243864 1.2783681755206306 -0.07880431189341268 -0.3985402732730233
P 8.35048003365772 7.453317092160722 1.3460986941332505 0.6841924055950475 -0.05341209707255318 -0.2001189863452102
P 3.0703466874083203 1.8661425509251917 12.421513627127652 0.46244324257457137 -0.17247782758917393 -0.5942133080317379
P 4.980970261662054 5.763401810771494 7.870999588372341 -0.3815223985587881 0.8657590828593671 -1.8337025470989838
P 7.216302509251864 0.5759765759818208 8.057287531199822 -0.07492503144366451 0.3681845437993014 -0.6310628727599197
Ni 8.58356022297097 8.568549858779198 4.859501919482588 1.245010168885475 0.39745989572465096 0.38699807696137867
Ni 5.788882137067219 3.0250172521906795 11.696612794986022 0.6812263809881881 0.3809235886325246 3.5491310063447075
Ni 7.264615370892714 7.746476031071358 3.223984757316801 0.6308193892905458 -0.8909715775692527 -0.05016479377984909
Ni 0.1300708658066388 0.35941244888330603 1.640238434480516 -1.5907492391970668 -1.953368630203765 0.3373441613796771
Ni 8.488976282147654 5.179852925599265 0.12937255755945629 2.545399071651571 0.9108271788425991 3.3008107777039215
Ni 7.243759355552964 6.810519222865064 13.096022522339759 -2.0011728941712374 2.3964676639237696 1.1535097495816327
Ni 6.622041258578796 8.808836887546015 12.001984203495915 0.11873611509134391 0.968231684903997 0.37305678428993816
Ni 5.898868016800357 5.9225769336573 3.589096482989195 -2.1332859447901193 0.412919939033463 1.0895563866581235
Ni 1.3564987321804076 1.248508018867792 13.663877652205148 0.1630007413366741 0.09808321472768268 -1.6015231898841193
Ni 6.980220247100257 6.364571558255806 6.141138091817852 -0.6256974946829482 1.5539045595648917 0.4747248881554017
Ni 2.8733193417780427 6.249327389451762 9.765043702599844 2.7974324874778858 0.6617407614597507 0.868580354358246
Ni 3.4729321135977416 6.674232574569819 6.594835206561396 2.0298975157994397 0.6975256323688439 -0.9399698618448263
Ni 0.11190459585156394 4.797648031163395 2.839169364760622 -0.3947993181733524 -2.3247904499934413 -0.6941973393265592
Ni 1.6926842740382695 6.626367226892451 7.942952375134099 -1.8575168759097622 -0.13177520766348919 -0.3383378927515141
Ni 4.077607387129325 3.6349041987553066 10.148139895679648 -0.6954556372136925 0.9298705686272952 0.42682755025349073
Ni 8.383176522614582 4.081979971480841 9.757047187464886 1.0409648509026652 -0.5570521256004084 0.3321469334494538
Ni 3.448785005984889 6.861395966588361 3.282537297834562 0.1544662215031017 -3.643819079347912 -0.49301777292731863
Ni 5.34178771792654 5.57825223158862 12.14015786900384 -2.4951152357953545 0.3914088044345646 0.05456112307533185
Ni 8.860142498817646 8.991907391440215 9.410029943049258 -0.19816906170769097 0.04581885810632754 3.01156758559653
Ni 5.817187395257421 6.192334621560886 1.3137602163471727 -0.17728219095635273 0.3196778544481656 -0.3507218682381637
Ni 8.906012680074495 1.8671028413051622 6.1555881312345155 -0.2210122848544516 0.22825199713600045 0.8073420763730548
Ni 2.757292023537906 1.8689581596120957 4.132512688844711 0.2347941691298924 1.002428899610996 0.9857329270125539
Ni 9.01377963640537 6.795508858673291 11.66821616936161 -1.1901531118362791 0.17819236147544798 1.8845463692237285
Ni 5.741883847694095 7.824110380527816 7.99416382200925 -1.9649609630270548 -0.31445774369980684 -1.9945330202572162
P 3.896858361920684 7.908243005662327 10.832609705862243 1.4629929228849836 0.6206717593335827 -0.5393364534882001
P 3.148633661394856 4.533894488936519 2.8040050227593105 -0.26879572288631776 0.9237688266049315 -0.6137907159430332
P 1.6660199003808336 9.193931976329369 9.032309511455775 -1.5457546767642476 -0.9366209999772513 -0.3533431079110947
P 3.1338377309772505 4.879692257801659 11.94902651984243 1.1577119605884383 0.5772301432101801 -0.4265347016034202
P 4.514800559827977 2.7502623250282183 5.069287142355116 0.9333261312760636 0.09204215073992536 0.9835701150332801
P 4.718512645287759 7.644536079473315 4.898391815229882 -0.34781986410002036 -0.5451890556142353 0.10301021971565485
P 0.6690604127067183 4.024353225475033 8.305048043156779 -0.7744918626122532 -0.2499387380808147 -2.8712907682199322
P 1.0853612095560883 0.8233921292585948 5.231572487287118 1.1037622458448602 -1.974371200597361 -0.47978301940459955
Ni 3.120738624337846 4.703921825436749 8.033735244230098 -1.0398078544800866 -0.057290349081036814 -0.3036357133836384
Ni 7.763220511871622 2.743400444254836 4.371458108041842 -0.446542769294231 0.6593141542961292 -1.3985343381902817
Ni 4.9786021669386304 2.0967987062695856 0.40317651754951944 -1.021281770651441 -0.303271130955368 -1.207803735038507
Ni 2.194543214459991 3.430875124238059 6.279270735212457 -0.1038993071888275 -3.479973987733071 0.26754179587455856
Ni 7.87162144631743 1.6473268691979108 10.832472654710928 -0.40846627413748365 -0.4185773944295566 0.42972466929562764
Ni 7.9238127623084536 5.5697774359051895 4.265242533451036 1.595700669665071 -0.30721983119047086 0.4254352978916544
Ni 0.7380726598001004 1.9078545816046912 3.0877624391538068 -0.45376396963301846 -0.6523721757606571 0.8865428523739378
Ni 1.5301621196339255 5.962983715276645 1.7109624224842148 2.178185633516288 1.3509786998985056 -1.1496034725486912
Ni 1.494202508026677 5.388944501828397 5.694507968414283 0.4286332360036618 0.5706797436861719 -1.7042624153265746
Ni 6.25433395191821 8.962268914567142 5.759146698835392 1.0778092734245242 -0.4135400891159652 0.0370879059912329
Ni 5.936804148412982 9.186203037251742 9.714459707594326 2.6569088441978046 -0.9815592552508385 0.15639352043280164
Ni 3.828164968526283 4.909116300900564 5.0417911385822105 0.23334380983661102 -0.2411759042865201 -0.7426299809066501
Ni 5.096633974806861 3.582890023708161 7.777856083118979 -0.18864003917133318 0.2576733877209111 1.6091143719678158
Ni 7.701976361327672 7.050023102195789 8.32240505869456 1.6875355894901969 -1.0472432277122092 0.9793625047098361
Ni 5.0309146846280965 8.28364195857025 2.441418021697558 -0.47278113416546963 -0.9032411389652251 -0.900175612666024
Ni 2.0991015385400003 2.957060392194508 1.5018736432173547 0.7938556118508457 0.4417471476778005 0.25185215305344366
Ni 2.6314660141390402 1.7204487861892643 9.70354316384765 -0.8603278845414667 0.9401413544256841 0.867990286182731
Ni 7.481743552049367 4.96994090710375 11.749693544979465 -1.2875274734223956 -0.755994318028698 -1.5860772876426943
Ni 0.4297206218292698 1.8299591823362025 8.504694277794181 -0.20575947246043919 0.14103452147822806 0.298582467230447
Ni 8.589415197326518 4.502139643944481 6.32898114566843 1.3922600751457956 0.10417158701360768 -0.22343966334902166
Ni 6.28215440331464 5.216371929660865 9.327351738296061 0.69391503219945 -0.03614456824135711 1.3558013180981294
Ni 4.190362259511503 4.392265642702214 0.7989280325882759 -1.5631055093378694 0.6150377009762569 -0.24356394490272246
Ni 8.915969865761957 8.813125563029379 7.207407236906913 -0.004070827635263958 0.18529863350292605 -1.3396254796692155
Ni 5.142905053989328 3.733170806569774 3.1915763554739294 0.16464521891863257 1.84391239775245 0.3941179758356116
P 3.4159766385371557 0.9043240972334566 2.249726347761039 -0.022785887546263983 0.5552721508818501 -0.771196479690433
P 5.322712435233143 8.151028654058583 0.37298051286360906 -0.30699151722974877 -0.6734701340815369 -1.893874845713506
P 9.45140167665236 6.79332722810132 6.194081790659977 -2.6822429520872193 0.9884287286771621 0.24712620833268406
P 7.358294960581496 4.334303261223795 2.2506409544239045 -1.1976437637863695 1.1137137006306175 0.5749315769839906
P 6.521108213398586 6.907974711620722 10.692415701273353 0.8839447526294583 0.43873612876561857 0.5160371166406273
P 9.393318093475497 9.468183450282913 11.898374465421632 -0.20280501781780558 1.0936446977948844 -1.5086145773788406
P 6.901597637641111 1.4805440089329205 13.012116451149257 0.3325477684322983 0.9711120917755854 0.15894765431322305
P 6.995603539594931 0.7136775548658182 3.651428651856859 1.835159848370801 -0.40105661193697384 3.2436322716104002
