# total energy = -340892.549675252 ev
CRYSTAL
PRIMVEC
9.06853076514889 0.00000000000000 0.00000000000000
0.00000000000000 9.06853076514889 0.00000000000000
0.00000000000000 0.00000000000000 13.27271143592971
PRIMCOORD
 96 1
Ni 6.2407722216883315 1.8944704237473429 11.398020100963832 1.3441809602503818 0.9483064067349798 -0.007719737241760899
Ni 4.508728246964658 0.22325452392016668 6.055700745259324 -0.2609335465294216 1.8641179261660479 -0.34908253286252783
Ni 2.825608994059013 1.807185818094235 4.744210777353672 0.7997444665314549 -1.2844195239210332 -0.16438682305092334
Ni 3.4184913783072095 4.302382904935483 4.638480780750078 -0.12212688594044775 -0.5427115406080202 0.6520284192679933
Ni 5.051189601869345 4.662104302591777 2.761413773803658 -0.0008518064773340169 0.22227855316138495 0.4199228527138575
Ni 7.184960407328295 6.078862678900737 2.519439082460145 0.5402743919214373 0.5897336749938296 -0.14508195207472432
Ni 5.141249177842438 4.6366852117195005 11.597721837579869 -0.24455870471582397 -0.6344269041361461 -0.7828199228619744
Ni 5.372805034543369 7.962586894055984 12.351107235541706 0.020748545401261042 -0.910487021894361 0.3795177094239335
Ni 1.7632034453755259 6.564591307263519 0.3449487615410827 0.681032519809827 0.4930157160447896 0.6156318829168301
Ni 2.880056450925637 1.7076677648540057 0.5262840034216139 0.04446028719590408 -0.6779590230908259 0.14983052250330325
Ni 0.6165340185343131 0.03210350467247455 4.86059992465697 0.021644831963285305 0.48998798496205936 -0.05305599928471508
Ni 8.475031413146459 2.1553539079477178 1.3709514152622102 0.5600096655668356 0.8677434602792474 -0.010384942778749857
Ni 6.895139242438147 0.6897306621217482 5.012399869690581 -0.12569043492199 0.041400417323657734 -1.0172191705462932
Ni 0.7902181412678804 7.52868491725762 2.518404363134948 0.5394439256003419 -0.2623571663498256 0.6407065664972708
Ni 7.523515854896864 4.057432828748874 3.916312892035021 0.4443884419553895 -0.23097659515601512 -0.2200324374396856
Ni 7.44920831632839 3.815928794136104 12.728078791834191 0.7687125369263148 -0.11881787617187278 -0.25146545913798624
Ni 7.861772040960337 8.394647959171483 7.125852632659579 0.13613759839724296 1.3682930228072372 -0.6694131904033439
Ni 6.788094308918221 0.5369549432109139 0.20924999233470226 0.3882142087566669 0.7363706302604995 0.18908484001823564
Ni 1.649910294370406 6.390339494523315 9.413351352727396 0.619884744655913 0.41959786527427084 -0.3436827020031952
Ni 9.03859523842567 4.806166977439077 1.4034829545722771 -0.1811406454704945 -0.38148974554863974 -0.44166590081790386
Ni 6.500195672485056 2.1726113214082754 7.047477858180931 0.24931216024040936 -0.6966756256637228 -0.7027480571100477
Ni 3.2389979549625894 4.426939170768775 0.5652977283026773 1.0746856401938782 -0.9581976977067627 -0.12723772480445183
Ni 6.302447297329557 6.024052480815815 4.87004933339365 -1.2361354921036647 -1.7868323649100064 -0.9121476974262355
Ni 5.4885557573024615 3.0383385815302444 9.162205656532247 0.8377541130060088 -0.7638166422865942 0.39809932908086276
P 9.235300732578558 5.590594862009866 12.391535651174133 -2.148598406777474 0.48129379962217106 0.9196550615468742
P 3.81898488890027 6.113431917004598 12.630232068757273 0.37580195113524306 0.9552082760611357 -0.2402065983947153
P 2.5390706371944667 8.60610795237867 1.556039215046041 0.10090037246150364 -0.9002355193696817 -0.9843756416537112
P 6.215062937841416 7.907858312745178 5.807475115871481 1.6402470888168783 -0.15674987533095586 0.05925081524151732
P 4.7503229668820035 1.0332683603236492 12.742864123892042 -0.6471325246282725 -0.023548990964533636 -0.7243885181979589
P 4.080276456971231 6.292354022930398 8.275495630637796 -0.20373832826535232 -2.3593450480398594 0.29601470650327083
P 4.818273465599795 1.2071392947846402 3.930846118946156 -0.442473998541496 -1.2102552819027932 -0.5940945230656866
P 0.2625248882131764 5.497352231846204 3.549906173725483 -0.3557761428326195 0.4325587963103131 -0.0024870280879118463
Ni 1.6179890671601267 1.0448670107787479 2.7095045986120785 -1.0673639097214844 1.488962864586184 -0.030222289219651175
Ni 2.0386691265515062 6.3204483302876255 4.827974979483192 -1.0100074832892025 1.3685321354012365 -0.056501277520838174
Ni 6.150748919837069 5.805437417077688 9.274200193975858 -1.3170087707109641 -1.3003217969735865 0.8644748168303048
Ni 8.652094470328478 2.1867310233305495 9.925081271617824 -0.14842952839071857 -0.07684821660830636 0.29832792801747976
Ni 2.4379383855328087 5.265751032492986 6.855806305284981 -0.0019355264598160211 -0.5983553552245694 1.5276497396334208
Ni 0.7022488615652339 8.934116699025207 9.028270716499843 -0.12559761809786754 0.0649488940675591 -0.36777239596254724
Ni 1.2533615945263432 1.1198909632533622 11.32934684036858 0.32940588036920687 -0.21409216069585066 0.013436585120880085
Ni 3.9905614851555224 6.734372334488193 1.6728663723704351 0.3171165214788925 1.328811676883163 -0.3687013355347199
Ni 5.661918854057835 7.820854831536252 7.980256925652356 -0.7448215892413301 1.3466885571635838 1.0975080374050323
Ni 5.415300168267054 3.002898764502468 4.928515962959024 -0.4281532110434497 0.1713941076066919 0.10847895613970994
Ni 0.7619742031581034 7.3731414828511666 6.881569093461595 1.1918708658583343 -0.3107514984928132 -0.1714910381958724
Ni 5.0627973208549015 4.75946404558313 6.9746902053171285 -1.3590941299167885 -0.6815786221212842 0.3950571998204293
Ni 8.118302630541129 7.05980561848481 9.213996033974835 0.8490209441690798 0.3974277569351349 0.07141933228325119
Ni 4.651938479948957 0.4683388143575449 10.35088323701158 -0.26179152365434266 -0.6217073996869487 -0.7449090067488139
Ni 8.475058618737831 7.059043861926383 4.6924476055024575 -0.5213641852804957 0.5551433386134697 0.1700990429443522
Ni 7.053430441573211 6.072940928512013 7.065263060114113 2.0224672847736396 -0.003009733360601268 0.706701385330841
Ni 2.244941920337022 5.353217008755243 2.5791535418164657 -0.38348723559464276 -0.4621056567294945 0.20011924345552634
Ni 2.0371184078432796 5.035863785396229 11.729691627062138 1.6756460371414625 0.0673004250188712 -2.0770227514220165
Ni 1.0292963439832792 3.4073008117226964 3.835574858519158 0.04300529991693238 -0.3083068936070626 -0.6771702086409435
Ni 3.650999430706174 2.7945583457726495 2.5782775217742744 -0.007063077494368481 -0.6308278739309782 0.5322078128632189
Ni 1.162041492819663 3.4323027501939296 8.34580122671539 0.8742532363733072 0.02707525895023724 -1.3325274351718537
Ni 3.612911602784818 2.7566246828690706 7.318851818414503 0.45699378942422586 0.7095874486293845 -0.7342253017827226
Ni 4.309392878979104 6.956714564244339 6.104451351292569 -1.3851825994737241 -1.1400924477344625 -0.8062323882486437
Ni 0.8316849036376884 7.603464019409882 11.57321957513684 -0.010678819870084833 -0.3083025227316884 -0.40769340052720104
P 9.331789896645994 5.5943492336192575 7.9624853265148605 -0.4472302822795588 -0.9313479245037702 0.11988077021874839
P 8.79236649944456 1.4199051563777019 7.491409629665252 -0.9581599024902917 -0.4577021283451601 1.5512316407184188
P 1.757889286527451 3.1921408580888637 10.473403617757171 0.31850466007567085 -0.06708805189774898 0.0177318700621243
P 4.012198998827036 6.235693844632151 3.9226572359430643 0.7982894792524833 0.30214370221914416 -0.7876268573323145
P 7.044071718141107 3.8898101117730777 10.440752373845067 -0.7086888480745149 0.3141024172429171 -0.03471889153842408
P 6.287121480856439 7.87775986015685 10.29670330179345 0.16611923236099777 -0.46983850659737797 -0.3357081684381508
P 2.445855212622176 8.412449484459488 5.835665549651559 -0.322499897277993 -0.21150305981243575 -0.027434956282501137
P 6.786770303471431 3.936603728933601 1.6909562769269877 1.9971262349056895 0.9022546066822397 -0.061873597576345044
Ni 5.366484268814515 2.6995201465784087 0.7427715899144195 -1.5148433318973717 0.4217393370973059 -1.6560076940852448
Ni 1.8585681116662358 1.143859089252444 7.00500539578339 -0.9903861095138492 -0.23962090109457437 -0.6304967158438045
Ni 7.0510544865933555 0.6282813928889143 8.937538255566809 -1.278558437154566 0.5717889175899507 -0.3035902048576836
Ni 2.5469874642838346 1.5766909794568276 9.210372249204033 1.2853001267537736 -0.45203798808084733 0.7855427211097762
Ni 6.397603387419745 2.0747981518940497 2.7145485152525213 0.7677303755187037 -0.873085184207135 1.1931340488414743
Ni 3.8770869635412533 6.891539035846532 10.404929864831985 0.6049936864766935 0.0674973715210257 0.6268511486714172
Ni 8.420583956279835 7.375889247579779 0.5234256026214207 -0.2662464741019028 -0.8742565788074169 -1.0200653817458367
Ni 7.861073764115112 3.722359696875972 8.201977961072165 -0.3452888701480505 0.9018805111722726 -0.5981977466007826
Ni 3.0321719808191676 8.5901110646517 12.438680220463361 -0.058496710684312156 -0.21915183460694518 0.7722331484850636
Ni 0.026467412993159578 4.6341278861304955 10.125339816003947 -0.29319832010039826 1.0461875327541854 1.2590915866792056
Ni 8.607168970442194 2.334575275378614 5.515196379227359 0.188367759346553 0.7019605282117459 1.4063193814523394
Ni 3.600179386022536 2.6347164279293582 11.634208163022436 -0.03621424513702795 0.3109114211094452 -0.5487641745600033
Ni 1.0933020319520725 3.0799359307386402 12.711806220781314 -0.9594043164203543 0.09225529519199595 0.8703747272545074
Ni 3.0899566568941395 8.107919163167331 7.95189328294054 -0.6707355087591933 1.2412381034375526 1.0136638490948673
Ni 5.734222247395209 7.838085039405437 3.510910585905334 -0.5213765265756698 0.9530207814915135 -0.30297134032676204
Ni 3.1293412846709137 8.419813131190951 3.7307462738430366 0.8709969342195387 -0.14205602076420695 0.09576613655873185
Ni 3.65280406826721 4.272483960017218 9.230175199164 -1.7298690601510853 1.3691579419106934 0.643356345415292
Ni 7.057774267662338 6.211807335407186 11.67259253188975 1.359642803331407 -0.1663622016097393 -0.36404712459216015
Ni 0.7822296727878989 0.27645052358366085 0.31963758618125 -0.11453956051149304 -0.36615028697809204 0.30888487759771965
Ni 4.796128114222664 0.23059731303157668 1.7064462338013848 -0.8176110623992305 0.3070254557914777 -0.03244089413752478
Ni 5.816020392121551 5.478553168207877 0.4967487065746936 -0.07358188715220876 1.15820329840256 -0.4470042823116818
Ni 8.08415961336877 8.995211388717154 10.860886507702906 0.05672393505460553 -0.05854119076900241 1.6903923422127014
Ni 9.185151759148775 4.761504464936059 5.78727405742443 -0.12443753635149535 0.2607319720415768 0.7695496881156295
Ni 7.935199932074437 8.887885330753045 2.352667900494304 -0.0639505347100318 0.42807453528671435 0.8368352007361652
P 8.579800145521562 1.5773711192411377 3.5483400385154784 -0.376763543717564 -0.48001878956448946 -0.3576080538350357
P 1.7194024432659663 3.3136410291579903 1.6864700749096795 -0.382579893289025 -0.6574976699126805 -0.4789957476166138
P 4.86667221265129 1.1868892662731192 8.067366508667634 0.037741994635464036 -1.1206317679066895 1.1794005013054658
P 8.353975600069749 1.556277717397072 12.451528514415498 0.7577442108402692 0.5625655992194699 -1.00342417364473
P 6.377534729517373 7.777153583261724 1.1880282736985768 -0.4972127848452727 -2.1189219627589635 0.9787261566774177
P 1.8716721381772738 3.189909999596327 5.986576778700338 -0.4857258672515957 1.460892074491897 0.5039490751278418
P 6.857078620108163 4.121329694352179 6.10645549652367 1.7722153863277803 -0.17907862073514322 -0.7312240530625536
P 2.528696238351126 8.63891789557378 10.327190794338405 -1.150119492953161 -0.16891684971079296 -1.0877730695054557
