# total energy = -340889.60014178854 ev
CRYSTAL
PRIMVEC
9.07091991174498 0.00000000000000 0.00000000000000
0.00000000000000 9.07091991174498 0.00000000000000
0.00000000000000 0.00000000000000 13.27620819347530
PRIMCOORD
 96 1
Ni 6.903332722826988 2.1904275455203606 11.225352014557817 -0.5522264220769909 -0.9772074060400459 1.4081296951882007
Ni 4.514369957995534 0.771854534651718 5.589788262710638 1.2471845508289745 -1.5180381846855855 1.0027595434775374
Ni 3.0100214234220606 2.064368974552834 4.497634111162758 -0.5329801722528691 -0.2942797260900351 -0.35224678952312244
Ni 3.7802241435977626 4.5395417601423915 5.233614065522365 -0.20420241238596445 0.24854288617455259 -0.9373475937306308
Ni 3.9193629807619637 2.5539718649588394 1.9723399588119515 1.1589859422048556 0.11248730596815466 0.4731241193271851
Ni 5.343624365369812 4.405328432371252 2.637013413468332 -1.0860455452913875 0.5388458870050268 0.6376713792153728
Ni 5.117903599740112 4.759266647855308 11.3825955003364 0.8859090754446808 -0.21073712818068868 -1.2565616211685005
Ni 5.813742920276195 7.993140227450402 12.510236903905518 -0.7162820870407406 -0.0599558117283419 -0.1648730186587225
Ni 1.9899057947965968 6.735157871726898 0.02886910901354616 -0.7079180313467615 -1.3226078620652963 -0.00912098846466171
Ni 2.486275591293253 1.7488914585652382 0.3496939321599068 0.36770966104541186 -1.4378809583087042 -1.972541089367158
Ni 8.016443420140591 9.207255615540678 6.457626734089195 -0.03737329844213564 0.08350531691350781 1.3107391356521685
Ni 8.6589638747238 2.3350452181788683 1.495087125567368 0.5833915348258856 0.8288704373631337 -0.5833779079791308
Ni 6.8425122062883625 0.7264110411759235 4.510113882475784 -0.44955970174368376 -0.2047983940987505 -0.25197787999803056
Ni 0.7936029717066034 7.3516538577121455 2.018354920228377 -0.4833553101368901 0.42299557810191024 1.1325794271868688
Ni 7.585846862334698 4.125436134337575 4.001395843001643 1.1021784462975082 -1.2658929258717553 -3.4991978689596897
Ni 7.7263463374527825 4.199618115583343 12.325392423686408 0.5011373167106595 -0.5763032605205365 0.2723777838106213
Ni 8.135208971675299 7.425191803659742 9.04250503662453 0.23323505217288865 -0.6819907699580383 0.0665684319488531
Ni 7.152066411716715 0.6297694627713735 0.28408124874770185 0.3244459652607703 0.5070164011992558 -0.3450633844008057
Ni 2.101142482986478 6.6962254844064235 9.089117771648695 0.4176574537184485 0.006005582764131593 -0.7007315409006513
Ni 0.07801898027572127 4.960740845146792 1.1945947689118839 -0.2676037594607456 0.22097243275545167 0.9836120240148092
Ni 6.568334587661 2.071208448001025 6.7609882226434355 -0.7299138188915623 -0.6865740184533466 1.8691611450169099
Ni 3.4464324407508857 4.389109627960952 0.28637709852188914 0.28685592282213823 0.3161649561989006 -0.08029760860948752
Ni 5.951947452712062 5.581318744993693 4.914905487940278 -0.3690957427596611 0.8547146521197473 -0.2374074383830234
Ni 5.181019058960954 2.604977646390113 9.606358847265966 -2.23204407409764 0.5132549259097999 -0.854373980950877
P 0.2516563392146716 5.758274246356182 12.103932269036306 0.5361338873905025 0.10339485674858323 -0.15029897749928953
P 4.034200824069792 6.228891701845656 12.55334463556048 0.11251198855850301 1.269299637560459 0.20339739998616582
P 2.4414017515741517 8.691074930435466 1.2896697994855286 0.6884717496966918 -0.32936165739483275 0.5871980530561693
P 6.307536575580165 7.922586614081657 5.759285653901903 0.004082911820122001 0.2920485227666712 -0.992990894126548
P 5.178660619840889 1.1945584852331137 12.5890713598616 0.11044867827157108 0.5146939723491716 0.9731535476856464
P 4.196098598742629 6.348718550984394 8.387522952567682 -0.964284527330791 -0.38711480504490103 -1.3952952624276937
P 4.731799903026233 1.174901802259333 3.3772811915666123 0.383619647407449 -0.8765726285351032 1.0692724395981068
P 9.3581957192249 5.592058713909685 3.372117116985637 0.19684365802804807 0.349244769472005 0.8884902059082956
Ni 0.5739243456841188 9.062438382648933 4.5956390487971 0.5827999239884738 0.5570562393654664 -0.6800125631857451
Ni 2.0621284573887713 6.41793873915833 4.796520915032659 -0.8275465763453876 -0.02776637147999089 -0.40639293654822267
Ni 6.102506577769197 5.873964756115111 9.20297414144579 0.4180207505951381 0.0008569486836565887 0.7657873928597199
Ni 8.949396581440233 2.5699729672965184 10.060630505469446 -0.49975020655514574 -0.30415944709759235 0.14213058275588425
Ni 2.36989569163769 5.33976015358078 7.102599058265302 -0.1968552279922739 0.4417489474500134 -0.7583504769657003
Ni 0.7938660283776877 -0.26718847500424464 8.704200551230603 1.2275143260935568 0.20594047812299368 0.5266480593872542
Ni 1.7333257603728027 1.0524081027309826 11.19282551072423 -0.5114770080737707 1.2988819792032662 0.45609827419314997
Ni 4.126325084467447 7.01612960920399 1.4688794243916192 0.05247313019805157 0.13176440903021178 -0.44065725704773134
Ni 5.926385601018424 7.947005529894033 7.947297613508135 -1.4574025732813998 0.9970527229007475 0.05253792199771597
Ni 5.5554394111108145 2.7516362759794464 4.802774407068711 -0.7972299276397172 1.7483727753822276 -0.7720678265517928
Ni 0.56945963901144 7.593919980861078 6.420652758330345 1.2875308158565053 -0.8948909672283168 1.1956982100242246
Ni 5.567839358330547 4.571970298043299 7.273795432714983 -2.2589457835844904 -0.13590465645083047 -0.3973524236125092
Ni 1.1287398919438876 7.6231283422711265 11.056956740109198 -0.5347287795128597 -0.9755878681587521 1.034476157854528
Ni 4.553202565199389 0.6449315050374901 10.703451207494476 0.31805266013991673 -1.2964471445095285 -1.187447025759026
Ni 8.180418435423025 7.153644751743221 4.490650410091455 -0.24685367139758777 0.07225982590667555 -0.4277847719604374
Ni 7.38729350118422 6.39580569510848 6.801068988396988 0.49573337208626883 -0.7252117854302026 0.2136913257130062
Ni 2.3525430222658197 5.4109668731673874 2.5889665660407726 0.15733582974141289 -0.7032054563624406 -1.3119323846293214
Ni 2.692022191759933 5.430795903615327 11.057926421424332 -1.333966224500909 -0.7468995548162815 0.924735561393575
Ni 1.2492924146580295 3.420253766518153 3.724652968285224 -1.6634476953030577 0.5735048718397929 -0.8361574579428502
Ni 1.5680173198955623 1.1347448407803633 2.5826867683376125 -0.23616276734264488 0.358900290283898 0.11037925848621637
Ni 1.3659625837437552 3.235642408935142 8.060981635831068 -1.6803583550154675 0.27371038657911567 -0.0037214147156452034
Ni 3.598424771119446 2.8534301367693717 6.956201671163113 1.098067252342612 -0.6138791618917815 0.28159004643750857
Ni 4.142444108761128 7.2508487271687105 5.65530570146607 1.3403032224625306 -0.767245208352169 0.4648991603142316
Ni 0.7670342479270909 0.07365042535178368 -0.010885103631073773 -0.917715164211684 -0.8341262864454345 0.3338142938495477
P 0.28822575195523326 5.914466412542398 7.8545102688809525 0.5523521490215778 0.0813425049342341 -0.21574949379361555
P 8.813214864095807 1.4816077389042217 8.183454472244126 -0.7386026049148119 0.9074556912672048 -0.9130586392762792
P 1.8821614106883515 3.35561439278896 10.394713384838454 0.9004790028390557 -0.6244548805250988 0.2695665396140712
P 4.138489187775171 6.22394805061321 3.5006837972481573 0.14234758386269677 -1.2415443218240618 1.5982563462073893
P 6.7028381848623 3.8597035419439867 9.845715019377524 2.1933507712925002 1.8264852034149384 1.1535187484426974
P 6.466849138140622 8.015309555179021 10.271270867110262 -0.3870857515791785 0.7671400502328724 0.2838446467996402
P 2.5914438342088113 8.756231346587136 5.4967877514706815 -2.101683744503806 0.023726397082662366 -0.044818441866271194
P 7.012501241326964 4.056687633987652 1.273636948928926 1.155445533151765 -0.5799686251872658 0.2547101913275291
Ni 5.597573833082763 3.2819494539656686 -0.12345975247560799 -0.5817750822683851 -1.4677126969581562 0.5501710822098589
Ni 1.336600016698934 1.186875416253514 6.823373472829027 1.4672997777904535 -0.3375974150410637 -1.2166845824679047
Ni 6.977033945329049 0.9371167134385263 9.148382625460046 -0.4230531708127231 -0.9152253079102947 -0.21319021770687155
Ni 2.8730505360643823 1.6073851113612792 9.03562746531363 0.29183203588049095 -0.218943575250881 0.17050630568509992
Ni 6.301413704787686 2.174934414685466 2.3176009325181033 1.650117553853055 -0.009732911017047754 -0.10022597210229835
Ni 4.357252558000677 7.2324710438715805 10.522642379446586 0.35355650947348144 -0.2247871785158516 -0.4912691656673281
Ni 8.220784028054924 7.1937926423024985 0.11520340137143854 0.9144632329332897 0.5361092048001542 -0.03281550386812413
Ni 7.72650961400725 4.259431760036093 7.9939230478198695 2.2460437308108414 -0.5060244695996317 0.638485647586552
Ni 3.281604759017351 8.552961107196525 12.551513216874552 0.7980385395839417 0.49446890355154843 -0.4562535688240917
Ni 0.3796959990430539 4.905616866175095 9.79729717133454 -0.23869478973587924 1.2540997898915693 1.0430191623285325
Ni 8.703284388341654 2.546542781730632 5.7265595898350785 1.0509283898732804 -1.0268086140069412 -0.01669880081191963
Ni 3.7180520600249465 2.7508743187252716 11.536851932260225 -0.915815633196126 0.05232452043532925 0.387778406770829
Ni 1.1462014123520683 3.826349770234438 12.846842406041029 0.4544198580494626 -1.3033937510306908 -2.042840963333985
Ni 3.2980049818215025 8.73535008945486 7.500871393746752 0.10044760119480121 -0.49908069129194693 1.6861099127872639
Ni 5.847640947167297 7.65756155342409 3.535096145285828 -0.4470096816283205 0.7978896727109033 -0.5609997973942468
Ni 3.14901512587118 8.235705690949187 3.484540281471306 0.13431262937336222 0.926205203960566 -1.1909689228693554
Ni 3.319149295624863 4.255966668713535 9.025976006760745 1.4109285980895765 0.24129186103909417 0.24158393835821623
Ni 7.266269290646064 6.302719917223414 11.367460670829361 0.15888954738177796 0.2283342724371616 -0.7813988741447316
Ni 8.091278507604223 0.03861036967138793 2.466705989148521 0.12034562567030888 -0.926562587299985 -0.29794149121233854
Ni 4.889261997969408 0.2943486227477122 1.318359304289162 -0.42785753417990185 -0.38930667048989726 0.20721034597435284
Ni 5.920625567013647 5.716919923477794 0.3039175359313953 0.230682460954364 0.21655630596562706 -0.008971864481307129
Ni 8.351695541057971 9.013092579521398 11.198335187345492 -0.9536630430612026 0.28972938771519136 -0.19492252974593527
Ni 0.07460287191950261 4.911095701669402 5.661267109888022 1.1764465608834642 1.234246759721384 0.6423150486349712
Ni 7.278061486246395 5.903027982810078 2.4606783630128137 0.6208483941207631 0.42460868822530096 0.30836782875198504
P 8.582432525277657 1.7756960262567572 3.6670217871105035 0.43981419232114577 0.1588491810621458 -0.6257556016143933
P 2.0452565467606068 3.3098516029399874 1.5723541266005758 -2.485181007400778 1.8564696655921704 1.3517687998999688
P 4.923132812101432 1.172516150380189 8.095937331958323 -0.08998038311489019 -0.7167178890265786 -1.4260762523642925
P 8.776550206698474 1.774897785323812 12.438346236974093 -0.007129669066245787 0.9180612346971931 -0.31735074897688575
P 6.596554218824558 7.605530758067556 1.3865136593992227 -1.185735185274242 1.5786344582114038 0.025989996305858465
P 1.826565743892642 3.4159541505838793 5.842142155649666 0.2164994845857626 0.366660136734975 0.34414755745475567
P 7.133362175310654 3.9830317660840526 5.918161905225148 -1.6544056397054474 0.684539247411505 1.8590507960557854
P 2.6860625975219197 8.641701914548854 9.970259653848364 0.23447355256568006 0.1351631502991156 -0.24355057516628373
