# total energy = -340860.9080666607 ev
CRYSTAL
PRIMVEC
9.33971272491506 0.00000000000000 0.00000000000000
0.00000000000000 9.33971272491506 0.00000000000000
0.00000000000000 0.00000000000000 13.66961364554334
PRIMCOORD
 96 1
Ni 3.3905118112708816 4.013834891126888 10.98581734371447 0.9653273667730083 1.6361670052102337 -0.27929919352080285
Ni 5.740224728746626 7.49460568505751 11.522841479057233 -0.11706798336030161 -0.22230657818584296 0.20112608745348587
Ni 8.748462102904181 8.299885045974886 0.0041982008180415495 -0.005942590736680088 1.1582948296751021 1.4013008451918252
Ni 3.844487222088558 8.345248030119999 8.655885937545984 -0.1923030898452172 -2.8014755471990074 -0.34782912007140093
Ni 7.5069901439779185 6.869853629172226 9.641861652293686 -1.7260023781068274 -1.129728330891319 -0.5381460327245248
Ni 2.323505683893042 0.7189916240592618 8.424870014088599 -0.4083076370724323 0.5651708980528007 1.0662444514050606
Ni 1.0979579349662478 4.267370729628681 10.075749209230507 -0.05242093680387746 0.40370999039942085 -0.10689721347488686
Ni 7.587909414028 3.8927361774300544 3.0926814517465218 -1.5438551457486895 2.10095098010284 0.37971105638166214
Ni 3.0749602810409553 8.62041464302576 2.7933305870093093 -1.988209392032034 -3.3164857652370174 -0.6791697555694755
Ni 8.513558991058657 2.0192178470703643 2.7652806281287217 1.8945813848622273 -0.6535888217765776 0.42018099147125054
Ni 1.2660540825148838 7.953250952180016 7.152803024595618 -0.25210412116324965 -0.6749125229550182 1.4473076509392429
Ni 5.663330874831306 8.210401259461747 4.322864500041489 0.1207300055929211 -0.7053914082701658 0.16174552877333434
Ni 8.38733277513912 6.785805555397909 1.8917513173162657 0.021241168766963418 -0.4176168302885001 0.9292702160391351
Ni 5.427306997472623 8.729418428893087 6.694460364161664 0.21498201949997167 0.861865918452548 -0.34975976143521054
Ni 8.793750369348416 1.8625161489055122 0.17242417037195162 -0.5574460186047174 1.0985087107554048 -0.41927956270290373
Ni 7.785593771124035 4.078970046866647 12.236272238228702 -0.9753546691020233 0.4334828507864793 -0.9978672483822428
Ni 8.037308365666943 4.377345845607412 0.8007878931233909 0.17969414283195503 -0.07310263352294506 0.45435789446327557
Ni 2.7051636999741318 1.8303875375282863 10.98458730356378 1.7095174930779267 -0.09338838035517466 -2.905014385724623
Ni 1.9573422510313763 6.142159260903284 2.538515207879993 -1.0000208043901357 0.7326307036020931 0.1544353682651663
Ni 0.280863837597654 3.436846125527398 7.891877832679428 -0.44243774598692187 0.11948147789780068 -0.41044782334388663
Ni 8.460798954526695 2.9397492615909275 5.337656030103771 0.8117723442302665 -0.9164807775839506 -0.03908025383091334
Ni 6.103483510986688 5.664694472872316 2.8884163331457215 2.5478835286363215 1.1867422863825174 1.2484454198192692
Ni 3.8024398359198748 6.912078469880493 6.81133565981641 -0.7869486003183673 -0.44015512060033224 -1.345601494746992
Ni 1.149961454776827 9.180657303916133 5.209735590316844 -0.4125710403344765 0.26779324976373237 -0.770894375068982
P 1.7266513495728084 5.071846875261627 7.250049046258643 0.9513863312118841 0.4695844816050429 0.20483721775648595
P 4.224062482257694 0.5538711089480632 9.806567484165015 1.0566601501507351 2.968297976274617 1.5647376456246536
P 0.9350453279159726 1.8822509616497207 4.303276320785253 -1.4370749174676412 0.928820530096226 1.9088584636065316
P 1.4980338643135847 3.246474763404726 11.955744630284997 -0.3808631677082344 -0.2630608772850695 0.9833590274637388
P 8.560182836406073 1.847553929304839 9.10657376952506 0.7561845796626332 -1.1680652787983044 -0.33539038008741595
P 3.946168673269911 2.839524805576681 5.4944604651073305 1.2518158789533989 0.1045233139260716 0.4971996722191502
P 3.9303845589595885 6.658430554827384 4.045030465214409 -0.6209532951297435 1.066183259149822 3.06396178292753
P -0.17147992542711515 7.981951889029497 9.206853329843703 0.6582198927906858 1.4036688312033696 -0.717408744446016
Ni 3.3478293246447417 5.587006743385176 8.756112261502752 -0.5256291312044367 0.04113456525678077 0.9695869133803108
Ni 1.713883962435405 2.2561196574143554 0.5628447048234232 0.7337308786448073 0.23666438956941174 -0.5086279686607499
Ni 0.6564603801950754 8.065009953267191 11.689488103208848 0.7464421555638887 -0.13060844104889766 1.5291036984711277
Ni 2.683971892062817 3.0053887618116084 3.7834484642993953 -1.2600626923432234 1.931938999575079 1.4294186864739642
Ni 8.027940633919457 5.784233454563338 6.753117495235364 -1.714428557226299 -1.5127949340087754 0.40335749215600863
Ni 4.780401143277229 0.4978094840085873 3.006467498618024 6.254471977901971 -0.4189556037045817 -0.8538353348385875
Ni 1.276495881212482 4.094006984168198 5.3296864533339505 0.013063775162493631 -1.1528016677710147 2.380301595686868
Ni 4.915546784738989 3.085598213703357 9.428575305283218 0.7555896263911115 0.11932669748749125 0.6564406894030759
Ni 0.0411582455282436 1.0622241945216941 7.113242803894885 -0.8334194901863968 -0.19142762921879936 0.2127685567884207
Ni 4.437783125904512 1.67243431787374 7.687708913118508 0.04796135837062707 -0.8743668791330361 -1.2183632557219082
Ni 6.714104581693559 6.307901800874286 0.39320003292410594 -2.7252652212850164 -0.3438086860580982 0.40730927771490505
Ni 5.70180115107049 6.065190689287088 5.565227467550713 -6.556313061279031e-05 1.628617989218382 -0.20457136568960896
Ni 5.718257724688709 5.415296127056603 9.80767424010926 -1.0997058163872995 -0.05944364797861375 0.08290213611187013
Ni 7.493578316670448 0.512454153380532 1.466613203152171 -1.9890563134133614 -0.5964080016902116 0.15292613070949146
Ni 7.539548382135188 8.8355082244262 7.989027655302575 0.062067201644389884 -0.3441948657529233 -0.35381567667213903
Ni 1.0917376863682153 1.070648615295606 12.195591252014813 -1.7851048406959387 -0.29548274525920076 1.4765012417840637
Ni 5.795609224521902 1.639381074948158 4.9423993924630185 0.40508475925976045 -0.9923553174250782 0.16251248884634592
Ni 6.48890543124947 1.1575546411284796 9.528472871356124 -0.45311810851890344 -0.4866293529024715 -1.4936828957696726
Ni 5.661042645241941 8.53781422470594 13.829001448691615 -0.5078306695704351 0.606110059469324 0.7256131346336794
Ni 4.045010851817929 2.742812081503666 13.069052382925218 -1.2577348155409953 0.7131054890849718 -0.44551072848529083
Ni 0.42839673989360444 4.519300137561612 3.382545970386104 -0.3243408071414737 0.9706832317682831 0.2599285023036749
Ni 3.5813034604609877 7.161897102763642 13.648275207780939 0.08603373976231635 -0.5729279162904004 -0.7807728105249585
Ni 6.765958666102383 1.9610874757878491 7.26980160445681 1.213174255321801 0.10245126188839129 -0.6328500465673295
Ni 2.1617792203441937 2.238532978570368 6.76331459346259 0.03551721907000335 -0.04563245312713432 -2.5992770526169497
P 6.50013176580628 8.06372107292706 2.3207999691500243 0.18238325962834398 -0.9533727655142935 -0.5232773431428085
P 1.273086886109957 6.891157513634858 13.524496930536394 -0.36618345420887255 -0.031230675879507508 -0.16658588758477116
P 3.715197580433054 7.074953718080329 11.002657779520945 -0.58006529866613 -0.951084483700749 -0.09647216148682096
P 6.274026663239054 2.1856795449123103 2.6421720082782896 2.3632299849165626 -2.6849261553463375 -0.8055394759466771
P 8.813485182092624 5.44682699682681 10.716265766029634 -1.0684013498470633 -0.38841166947945366 0.05971258536928426
P 0.7466212958724148 8.016817036201353 2.2260962172593466 0.3914617691596871 -1.0880600046182551 0.15868180224634607
P 6.3734572436814805 4.08080063053814 7.8397416889497915 -0.48242637056471754 0.6607539720664491 -1.6035762157584061
P 0.650369953602317 3.8606169057654385 1.4625532300807522 0.11329848901554036 -0.5476933100933277 -1.0866422983351223
Ni 0.8550777745808147 0.3891307201400777 10.045977007344698 -1.5584947500387352 0.6212032063570204 -0.6451792575566437
Ni 8.339774958530738 8.977070248450795 3.5213331657943696 0.0966454538398916 0.02237836769520017 -0.1608222456281166
Ni 0.11195326710945594 5.962500549143892 8.37388265500995 1.2981183615643646 -0.3851463684646205 1.585844859916914
Ni 8.30032401246754 6.493547268416472 12.508324990950404 0.5171642882665352 -1.3330953918601816 -1.0605378879385863
Ni 6.350378813823014 3.9566665102431675 5.125626808410563 -0.6861485008801539 -0.05044041603873893 1.0678663032791997
Ni 1.1054483844791942 0.6736744045059372 2.6423093020536514 0.49328002544976984 0.08840095444291227 -1.1297758962998026
Ni 7.321830341491436 3.539816457048884 9.591749424286563 1.22842398239202 1.3143471647184009 0.7729517718186429
Ni 3.297600350229998 1.6666530357683613 2.250428036550029 -1.5579481335066458 0.5327868252951404 -2.856624424457009
Ni 3.104137543233529 3.97330053840097 1.7827914280982051 -0.6294271369287096 1.15413221365698 -2.125137604651372
Ni 7.828761922805877 1.9702217147200953 11.275571653745258 0.8903755958564665 -1.5831112630358348 1.2316275769309821
Ni 7.984146721492767 7.50147037382561 5.230664018332566 0.44862330597234346 -0.9436151719068974 0.49523046430792134
Ni 4.181090464540655 6.119687912364445 2.1389118679907058 -1.0889526916358534 0.6268285229635979 -2.5475156037739417
Ni 7.799547301762865 8.574930242616723 11.157193598331618 -0.1552771474401713 1.8654978372327098 0.11489848651280858
Ni 4.962702993705156 3.5289823904216804 3.106761068505582 -1.7229998438350778 1.958071434996073 0.8581007949831608
Ni 1.7592656260057362 6.308574260182182 5.253259585049113 0.661877287037615 1.123622217993581 -0.411646214527362
Ni 6.060436775568772 2.684326801141984 0.4326902057802645 1.5792975457166993 -0.04566793435076006 0.6128540630613768
Ni 3.239180447856583 0.8446733347336549 4.530561029055078 -0.4366882450976544 -0.04464540662351666 2.767713363146898
Ni 1.7024614939137923 8.946267876264141 0.31869994735064205 1.2334867416269077 0.7914791411988692 0.573462962858264
Ni 3.475391119467459 9.219174278718365 11.83351114150609 -0.49167180042238545 -1.7341185794560587 1.0263172761928194
Ni 2.737918072096205 3.218689118390992 8.686984378622363 -0.4270337527270259 0.6627954279765101 0.355423130368575
Ni 4.458040962554862 4.5257351995496675 6.892178344223093 -0.3144898824893229 -1.0431014376296939 0.20840616605466689
Ni 5.649844329822959 0.831481924643773 11.594374337934607 -0.27399526480938613 0.4881283060455012 1.568055654254293
Ni 1.6779167291756096 7.2863954718503905 9.930372846576127 2.592183893215594 -0.8873877168727362 -1.2631220479948375
Ni 2.1596217467313625 5.130388193898967 12.731139712765247 0.7661725441132804 -0.02977543149021969 0.6102521066621556
P 3.7669209088653433 0.7788862670537415 0.3154226421959128 -0.1488679014797178 -1.0674688107304648 -0.360827846323914
P 4.703656724763665 4.966765768690357 0.3976214528735183 0.019915507977004414 -0.2848283508691482 -0.5221272886987653
P 7.636419881322568 0.09304034907489724 5.738202680966634 -0.7766724152033398 2.7784415481976796 1.0367189311421177
P 5.550451108230972 3.492277319865722 11.660713382629751 0.8350511122525489 -0.21159433397466137 -0.977531365038368
P 5.639692062216261 7.188393867437243 8.259891462609067 0.6345243489459588 -0.47500488128966584 0.3220910918753485
P 8.014500787474159 5.456091991735591 4.672342536326001 0.04312125666950638 -1.6868462767326562 -1.4993508926887273
P 3.0601101379915985 9.128270855888559 6.665878041662326 0.12455580709691451 -0.17108043302101505 -1.8041572293416992
P 7.2976124666945905 0.4137586083204865 13.002877717172003 0.135065962599619 0.9705263944754446 -1.3821178445054714
