# total energy = -340856.64331653714 ev
CRYSTAL
PRIMVEC
9.44007156637530 0.00000000000000 0.00000000000000
0.00000000000000 9.44007156637530 0.00000000000000
0.00000000000000 0.00000000000000 13.81649895444821
PRIMCOORD
 96 1
Ni 0.6787779640603916 1.5231933123655381 10.325994939514596 -0.6992948084541246 -0.2080217861320547 -0.16720603766727332
Ni 9.25841629867055 9.427044297597044 8.535307758393465 0.6203020346989897 0.27566673897453814 0.4669272464878539
Ni 2.1364770036972653 9.105005695157454 12.157220620092147 0.008035468709966806 -1.2316805416561047 -0.845772098214479
Ni 4.257094687112579 3.47850590205629 12.473783981005827 0.11257600902721904 -0.2526383964001649 -0.5548288926968444
Ni 1.0072367591926954 3.808209842632159 2.220822155396781 -0.5963203270724117 -1.3911411310500041 1.0123253327891018
Ni 6.757420370349893 2.2919455428183784 1.622001597757898 1.7046064289295546 0.6917943863120215 0.3043818475210435
Ni 8.774622069426643 8.755760806377035 6.297435889686426 0.09448855539788888 -0.1339135941627307 -0.2028052749281217
Ni 0.31328104801961193 2.7708970153333325 12.537782002386463 0.8897042808210549 -0.4089632683785602 0.1685900624989935
Ni 1.2279928334745114 1.32541437234936 2.29794659633221 0.07511092220222548 1.5493951017303123 -1.5416373121617644
Ni 3.7058322661692 2.7400091010699117 2.8431173390744315 -1.9598195280354311 1.7573171290597087 -0.2044662075703124
Ni 0.34881253350130215 8.664003310460027 -0.11983226884470259 1.4946897397676324 -0.3971094543637677 2.5616957519290655
Ni 6.575642351689613 2.9736508730808136 12.886772953240937 0.659074013260865 -0.24977470169912466 0.2820595298747594
Ni 6.332381146721979 7.766035379995663 8.470411986204013 0.8069972914391262 0.5300203182935969 0.11410684384944865
Ni 2.754556251399964 0.45856752591684763 8.63090453142873 -1.0487956598009938 1.1905786294094722 0.3442977098793748
Ni 4.6192913541232565 8.961828129254853 7.103932358403152 0.6818755845364128 -1.9854030329314905 -1.3272271060048626
Ni 8.349941568519393 1.1774978905053672 0.10650666377922423 1.135884837411018 1.5914359808514462 -1.2626276248569224
Ni 8.351593581048764 7.937523720615867 10.205073286407668 -4.484068962192581 -2.552044859102863 -0.17046671069641608
Ni 3.3307782216442248 7.118068865618762 13.610840604792218 -1.3775950169344535 0.5627347778074825 -0.8410723787459644
Ni 7.47315715871735 5.429768701032185 9.077937233861936 0.1566819982074979 -0.23615351137126425 -0.29988910185701256
Ni 2.649818657037905 7.825734392771297 2.9450701123155527 -0.9990916077076472 0.009896433178105539 0.43925960536925635
Ni 1.867567124202213 2.7650347308719683 8.683545202671734 1.766031369004255 -2.9858907496557157 -1.146340228416387
Ni 2.2634176464540574 5.118331298995351 3.9478851419724945 -0.6483543128505157 0.1547824671919399 0.3397537992624342
Ni 4.716542971709371 0.7575459214607537 9.834680749236997 0.6033666923962319 0.7481725079914341 0.4074859125020853
Ni 2.3447344231854474 5.146849755288075 12.474267312671563 -0.1924774106395524 -0.5061306561601929 -0.5014317080226267
P 4.7631580452523945 3.278244223210258 10.11457509604162 -1.0763316604377333 -0.9766299362700214 1.0339313410946516
P 5.698131056374647 4.478851408983613 7.298482793933361 -1.0071342755064656 0.5119331217745828 0.027441384040404353
P 1.6465184077009085 3.832451946491714 10.485451908885187 -0.37935907235888217 0.3518513538569166 1.8012757940288464
P 6.156191650446768 7.554039692155306 0.38429587461785075 2.875158735815771 -3.318484797944917 -0.21914463551809357
P 5.530598105753335 0.1945268353512182 2.478030122140936 0.7910939899453084 0.2742490326914051 0.41169969347311675
P 8.253624518021324 1.4348059220084441 4.5198052715902755 -1.067571654856916 -0.8254133320524688 -0.06693044327396215
P 0.7667037349164215 8.409385699361923 10.359473209424067 4.132709460370418 0.33442235974719176 -0.483712950586625
P 1.965894909950316 1.4594728290898376 -0.4076477797258656 0.28871380196648344 -0.09012050823718028 -0.2127019652165434
Ni 2.8465403090352863 1.7811055084507847 11.237027929068377 -0.20401240786234545 1.6281343647137445 -0.9145887027675604
Ni 8.70364217109331 7.893759548694955 4.053484614871304 -0.6246986211047887 -0.47833625965574395 -0.3644564442154368
Ni 4.2503450359211525 0.7596057450830883 12.77843774759349 0.7757234210265093 -0.1616714810022893 0.11114056213227311
Ni 2.5086046260273562 9.325639048508515 1.0428192210610063 0.4866686907808393 -0.2697362324227161 -0.7440587429333767
Ni 7.805249437407109 4.219853604664781 6.906729262754355 -0.3729986773584931 -1.2506331714992074 -0.057355140880701226
Ni 6.101193793326141 6.61078773824301 6.356183343245142 1.2475455337128192 1.1711801702782023 -0.4353304455181793
Ni 6.460114755492868 9.275691629691963 5.260244839311193 0.5909624051946081 -0.041106540232322755 -0.10912970234983141
Ni 1.3510536068051826 5.621959118663295 0.948600698478816 -0.10674294728520971 1.0763082633989658 0.5298174582541714
Ni 3.1218505570726984 4.52086916765919 8.005790542372393 0.21516148250062944 0.3470603602261765 0.5317123612840391
Ni 3.574256548258576 0.5429343897810347 3.9517678434200936 0.7456219736554385 1.9790835184713658 -3.359921724933465
Ni 3.971919564256929 7.986866974850249 9.00935228169261 -0.3976640413156571 1.1209176745782243 4.211875526478623
Ni 7.314856598117317 5.4524437530067384 1.1574160261983453 -0.06893616085008128 -1.0938395874145097 -0.8148460980595837
Ni 2.4661809442731344 3.6200597756443087 6.068289479769729 1.832378943191554 0.7578370276643915 -0.4863573301880075
Ni 7.410833806037917 3.517380116890265 4.298023061525932 0.36018712741612163 0.9492638855522426 -0.4751969426958138
Ni 4.927462491387738 5.051589992808802 5.2464425106300965 -0.7780435845192536 -1.6486725938764122 -0.9605327735978425
Ni 4.248296540384734 6.408760766008452 7.730041331005749 0.8116427606309377 -1.610838039527142 -1.751802884109699
Ni 8.136539310011173 3.429266488609467 10.858732163957198 -0.24484126895324929 0.4681338652014454 -0.4371405021437246
Ni 1.764934665806151 8.149443887883452 7.5823702910232615 -0.014201488311362637 -0.459687277095989 -0.897602452622209
Ni 4.155953760028749 6.052190381669229 2.9592311637173125 0.7716075990859228 -0.9562860825063466 -0.918428902449257
Ni 5.22091655703343 5.812016080113618 13.151234670999765 0.09432863278125689 -0.1958203589698563 -0.4760842303967736
Ni 1.5277056665886173 7.4667567901749905 5.230760663694157 0.06388702846194805 0.2258603569753723 -0.8740316072808043
Ni 5.7174832031472675 1.8476485731338088 3.7524369556334674 1.076748436260178 0.04405893799242734 0.732980373632028
Ni 5.902829568870986 6.389040456443572 10.506922407724039 -0.5940664980412285 0.39972555183037606 -0.048734746201541876
Ni 6.245721289467027 7.136071082153096 3.7543023137809164 0.07155020143416065 -0.027203042777353147 -0.08231798147362597
P 0.5731039145959698 8.378714906745222 2.274734404283822 1.3890924760510914 0.5278515927770522 0.03788443375059927
P 6.729751520500844 0.9029645603603391 11.985508549775108 0.11745699126860416 -0.1520622400472994 -0.6912644819504804
P 4.093205604127477 2.649337213386489 4.994208517610084 0.7704850554457053 -0.698149639106088 0.9784081112163666
P 0.8021153314888374 6.6189628402454925 13.002969850513864 1.1451140693187696 1.7792869484625806 -1.1320490086046955
P 3.80592534530583 8.20926562158984 4.897755530081025 0.8867554826053761 -2.766646098224648 0.4060810617347587
P 6.189581183683235 4.984348362827644 2.911412481045748 0.25390697869994333 -0.13784712488918194 1.161409978265316
P 3.056600782198381 4.45452434447969 1.435755593211042 0.9170703315388335 0.14444714670420283 0.6310320195219843
P 3.9725709291970808 7.332471771716199 11.347034971395546 -0.8278096001987872 -0.395466519443706 -0.21416697979784405
Ni 2.6892592761676646 0.327569540387923 5.8921292477164675 -0.7297664946804207 -0.05812647182908699 1.495031182267451
Ni 9.461972562503727 6.747999178896686 8.447586837091077 -1.4762523589980512 0.43832603781139357 -0.8982629690243434
Ni 8.136690351156716 7.206645057407783 12.836564044441163 -1.3913059387626425 -0.12471238727943684 -0.5579435270664262
Ni 5.875689363031336 8.076783656805961 12.215622567030435 -0.1896332563225379 1.5877199654524399 -1.609536547106899
Ni 4.251194642364829 1.649123867461515 7.115649375268604 -0.363956878871199 2.8776717320456116 0.28536005500290207
Ni 0.10194994121964192 5.189433918259436 5.540567765366292 1.7839565860241084 -0.007257195783045566 1.5673128625509976
Ni 6.347013257696399 0.16519842091552245 0.26118318089339915 -0.3615631818280418 0.4959485734208685 0.4397864244070039
Ni 8.967208970064801 5.503590060916035 3.5231517766643043 -0.98962429164716 0.2948700513758664 -2.583796697593163
Ni 6.374700987688641 2.2433669343833036 6.0627906380648255 0.05430375564888713 0.5096795498537158 0.4413830794701624
Ni 3.506807236702297 5.097279939335379 10.283454200872578 0.990631649865752 0.03876889323808162 1.0814409566398406
Ni 0.42944490504195343 4.3492203458218475 8.727412271373046 -1.8052080392037169 1.946704587920028 0.009335932688945212
Ni 7.262020517392266 0.5330732909914352 9.601997144493128 0.3553503681491106 -1.4370237525147316 1.5137647541212123
Ni 8.956315127442556 5.004748357547465 12.926675191871759 -1.7261967535058207 -2.6272416561506753 1.1053992672276511
Ni 0.14256396124883397 5.8971749659847434 10.884251509503747 0.5148904046306939 0.014316159512355991 -0.6487944857117278
Ni 8.22053706707594 0.18530671742301424 2.1647556821714415 -0.7048113673969798 1.3003094556784123 1.8594693716504425
Ni 8.972873013022642 9.40283051395228 11.842908716254207 -1.5498643280572468 2.1997934415940503 -0.6056835134548666
Ni 2.046465921025591 6.6371538582117555 9.307498062921713 0.8439916092752885 -0.2656906015984327 1.2880326951935883
Ni 4.616279971284006 8.010618194986792 1.531613856229527 -1.754903891632526 0.4459922961073996 1.612244175846049
Ni 5.220623914813942 4.06348825874201 0.9676677550892249 -1.1320788334013663 0.37606497498864266 0.881962689202423
Ni 4.708131867916978 1.7240025153641607 1.1030015655023762 -1.7245088242804365 -0.9656906636496981 -0.8580866539157739
Ni 6.510137694882193 2.4720904290924812 9.056023995665212 -1.486081172163015 2.752651583717769 -1.3071460189842714
Ni 0.889638011287701 0.2786643054756128 4.127057700872168 -0.6571639407223456 -0.4779572790497705 2.3265629685128317
Ni 0.4335692723224206 2.9021517708096796 6.505913262842803 -1.9740179310230002 -0.7182027011022211 0.26218464532770336
Ni 8.299701507483352 7.433253976079366 1.4719544917545977 -0.3108746543342388 -0.48544638833796394 0.01994841809746887
P 8.173978633962495 6.301389391670997 6.816784260583855 -0.10760735216803402 1.6243008499002674 0.060409868546625
P 1.0574768202287366 0.8970730116770258 7.0137522984499014 -0.7083178378883414 -0.4138491357159518 0.8134031949654701
P 8.526064984293429 2.627417367139648 8.36057108913694 1.0195169654415344 -0.05618348917010324 1.0186209359898264
P 6.4855463083735705 0.5989942549562567 7.527684900272476 -0.24140113292344875 -0.9504437647929566 0.005100811561675087
P 6.767983810466264 5.010384080290517 11.906036363033655 1.7415760641753684 -0.7929354140294215 -0.5292361318294047
P 2.2116482938193993 5.999882944953576 6.546105311671636 0.4709649068923373 -0.8234513232300915 0.8967856131478684
P 1.2950551020953374 3.0978538950746493 4.406192121913281 -0.9700409701985939 -0.010503470634485137 -2.052947712750684
P 8.509837501219218 3.359306118008546 0.7641322594135622 0.829228592033501 0.2517135705930504 -0.08602011291556153
