# total energy = -340885.49632577563 ev
CRYSTAL
PRIMVEC
9.13676530336593 0.00000000000000 0.00000000000000

0.00000000000000 9.13676530336593 0.00000000000000

0.00000000000000 0.00000000000000 13.37257957987118

PRIMCOORD
 96 1
Ni 6.757231764454235 2.017644451602138 11.226815787479316 -0.048415672299226296 -1.1769106450040765 1.0889179817431764
Ni 4.500624355481837 0.16026068918199232 6.093362627195635 -0.05640408982134157 0.9033637805860185 -2.756670989289807
Ni 2.753866718902772 1.704408729818678 4.573355747603673 1.396541476129969 -0.16047643225292363 1.3113456588879158
Ni 3.8845414139616397 4.398923021900421 4.938975285380513 -0.5155532350256734 0.5213541579781666 -0.90204737576744
Ni 3.918941334987067 2.5703730631381885 2.48794208106666 -0.035640117801112814 0.18143760788562302 0.2492136869893321
Ni 5.14339578818803 4.716114963020935 2.3737800270883045 0.14535757433361418 -0.09674804085602692 0.69074383356032
Ni 5.161577950961098 4.712560761353235 11.523005046405634 -0.40472351926559974 -0.282862485392029 -2.008338558681741
Ni 6.043924504306794 7.986556113513512 12.398494457459277 -1.9913759626854737 0.09465747687558537 -0.1269011674006395
Ni 2.205578575260044 6.832208059788805 0.42785004563983936 -0.41902785170341383 -1.0291138651013503 -1.6354995468295639
Ni 2.432956114340731 1.5431630973467678 0.19269894671627516 -0.009149270599435856 1.2237962538120213 1.6106009838156712
Ni 7.964015713734034 8.938707553083448 7.378387438020465 -0.20988429326209015 0.5293569736779851 -0.32209674830230334
Ni 8.62864228882876 2.1688487791054043 1.2020757741657488 0.8517982498039008 0.39479906106303614 1.205212320162247
Ni 6.972493952863019 0.8941878010612219 4.472312261117563 1.2485338657680174 -0.3790914205197923 0.9792794580777263
Ni 0.8331953248845312 7.552514082089095 2.182164700726243 -0.3046109328127141 -0.5735758342870444 1.2222703040857983
Ni 7.801134600289069 3.8767477532352945 3.6256137109253346 1.0672181281722395 0.4579530680137016 -1.3230925150111987
Ni 7.659679201267644 3.876190410557326 12.696662739730643 1.6852115693427108 -0.05525943469393709 -0.27169644147288047
Ni 8.750243497043211 7.306890422878852 9.327949283640937 -1.00876306935914 0.44921311703754246 0.033913107807677076
Ni 6.997044440989266 0.9184002288746037 0.2554922793163687 -2.24205440714579 -1.5097204088485094 -0.9401899482754323
Ni 1.9573509379642111 6.986939178664134 9.200053757871528 0.5118372196266668 -0.06471543790051434 0.03587177419594467
Ni 0.10144733150850603 4.352188467837987 1.3564880199351579 0.74862039416213 2.1875282510734517 0.6061650810769754
Ni 6.477464013644518 1.9553317128522272 6.547013984119325 0.601091780319126 -0.04502592989138698 1.7133157837780943
Ni 3.602489471848773 4.747125144152489 0.3766576638301801 0.4615518411085535 -0.6496650612421392 -0.9269834768874875
Ni 6.107708262255932 5.546464185541742 4.874879963737626 0.5465296288025298 1.403859349947621 -0.9344270776497262
Ni 5.255458213520531 3.0714789512230656 9.535504610592895 -0.0947574927885594 0.31119192846434146 -0.43676614952344134
P 0.6520772280752227 5.632221863827176 12.703389226280157 -0.040588462945323645 -0.9051938918162217 -0.49130361844968934
P 4.19239558103488 6.411587936461694 12.335228754097692 -0.12194639449852547 1.1270019330990912 1.2607072679057578
P 2.4855656084348636 8.75347791192847 1.4441452317082915 0.9989170298029958 -0.6652081511830608 -0.6237311149851967
P 6.790206350106497 7.684850989428349 5.723182929901185 0.0021846663561446242 0.36269626699122054 0.5751030695648482
P 4.901993314506007 0.9804662749637746 12.614180591773925 0.11810953725093853 0.8278448243120968 -0.9686741717580544
P 4.325646164895393 6.3265337890976285 7.994770065439636 -1.0475198784123636 1.420022847081361 0.954869404664478
P 4.869868448018517 1.0324179219626006 3.8444958857113485 -0.1628901839007388 0.4912881918307217 0.036572914028027335
P 0.2519517827964874 5.78359065310427 3.366747224215954 0.3807613520230475 -1.2276716776070276 -0.08609133247312915
Ni 0.6033810105216448 0.3651124473075426 4.921697662363493 -2.9295177701826254 0.08388635440201037 -0.8079766246332601
Ni 1.8477919862999614 6.699048843580417 4.703229383041609 1.6879148272064866 1.0807169339896225 -1.0581768439055774
Ni 6.0496898031559425 5.832965732313144 9.188353216340275 0.540307816262534 0.041557254616496175 1.5995688943712258
Ni 8.858486754516848 2.6583692489007094 10.043850471432236 2.0763807469626436 0.3037007622936189 1.8993767493683416
Ni 2.400904341974941 5.672204348397501 7.160855677132873 -0.020725662583125595 -0.27951593751729925 -1.6127761370901192
Ni 0.8619414155964036 0.31255686012816397 9.06761177773233 -0.4501073467170377 0.008585427676165859 -0.35180378844843285
Ni 1.4739703743917714 1.2447654822685654 11.274234685256173 -0.35859047235296304 0.08751392385226864 0.5317792099662325
Ni 4.297852125118673 6.935398686099874 1.5027301702514628 1.170647437703184 1.0853819435654597 0.05807247866269998
Ni 5.6155929511402505 8.132461117193472 7.750132263195833 1.4655542558542567 -0.6311207225810486 1.079209496206161
Ni 5.9026701141200455 3.0844348842945286 4.633518605499059 -2.139323923454083 -0.3018156294557641 -0.992549178603439
Ni 0.1270412382220325 7.4688121759764945 6.214892568641428 0.6556097088613483 0.41681258921964986 0.8703240765222301
Ni 5.2527354574871765 4.612175121962433 7.294500969250571 0.6400547918458848 -1.684532540997815 -1.3115711446351606
Ni 1.0385212811246154 7.4610916093718505 11.48719258147834 0.6150901514807471 0.16433308699485247 -0.002152527566628551
Ni 4.818391912810745 0.6658499879566911 10.156059085008138 0.5187079786045712 -1.0101494081837055 0.7890551051384087
Ni 8.304369354668482 7.567443556446478 4.117056556121369 -0.3429573938013965 0.0557397167644653 -0.30167499011284177
Ni 7.415325552421952 6.038250573109771 7.351402001965061 -0.16749040167691157 0.6907584888483395 -1.8730075153461936
Ni 2.638085630128744 5.443492841595774 2.4295033307668903 -1.4203167241726957 -0.29428306852414476 1.29708194988005
Ni 2.6543490722071668 5.425968525918014 11.101834889812723 -0.5474025183257863 0.5768416495225097 2.144856166126222
Ni 1.386440163655093 3.354526800744105 3.58921375199487 -0.4774649127943842 1.2079844835907454 -0.21581248582106705
Ni 1.6304922992487692 1.004980216029172 2.7206381311775996 -0.7970779754428853 0.6255278018743033 -0.9374496665261338
Ni 1.2258066944524268 3.768102478092305 8.166032333614117 -0.5457474992208665 -0.2646865858139506 -0.1715936252120077
Ni 3.9410797170971894 2.6122742684031577 6.541611414849117 0.4544262858073657 -0.16851755738984525 1.022057215364885
Ni 4.241505694052589 6.747428015381119 5.8546756001347955 -0.007940852113631484 1.1727328594773028 -0.16016224344661448
Ni 0.47440277807454184 -0.0260352124732949 13.679479904383617 1.2172368554269488 0.04181770736673444 -0.9347818898859835
P 0.3538705713899634 5.987230876162631 7.764641446353436 0.7215649327062348 -0.7571114623522767 1.568679146770905
P 8.798147557052857 2.0482800253599756 7.775686881818945 1.51478368230403 -0.8307015770346017 -0.906238273920336
P 1.8689161874714857 3.495278668844161 10.544051819761066 0.07186490446110204 -1.0214846306908667 -1.4197425968367807
P 4.247810062049281 6.357215046681529 3.6745036279014194 -0.13946614854984368 -0.18931418242022235 0.14455256193381555
P 7.048237736475446 4.04247953742659 10.544372520220026 0.12195539335958996 0.7151101782198265 -1.0321847907171902
P 6.786917114629961 8.035638816235583 9.892285241703071 -0.7775774435161126 0.05571529128443309 0.5053678098522393
P 2.2292610706910954 8.75811938865647 5.70998487255159 3.4218783691419197 -1.7885434340638422 1.2787322437282687
P 6.873533648845381 3.8475375148506226 1.374407043870103 0.5905296885325636 0.46900906871754705 0.43689470468150565
Ni 5.472904088815125 3.0600488579421072 -0.2782272921948736 0.5300313740371904 -0.7334025487711111 2.519903755593944
Ni 1.6609451377023547 1.4246501157741736 6.8409839227755045 -0.384651431106073 0.9790727413835589 0.9174071460529619
Ni 7.241416363365382 1.4475925332230042 8.95742147559189 -2.719811397259296 -1.5771442468191224 0.23289875187939243
Ni 2.839907636909797 1.9167471533594305 9.188821018719162 0.12717678965952936 0.5660461015689026 0.15940711044814482
Ni 6.297022037460941 1.9360348647232224 2.3468475842711327 0.5730952951062002 0.511373649726687 -0.11966274067067133
Ni 4.296810533884438 7.221032240176079 10.261930438232582 0.3105936327587102 0.4386980764388316 -0.1081359709779944
Ni 8.45674318811896 7.007204523905674 0.21067827330162336 -0.6825533273297277 0.16378492780086631 0.20864682131056325
Ni 7.8005407105502504 3.922705682254657 8.457955636862673 -0.9588343028494971 0.8166767235104193 -1.313058013593332
Ni 3.0495598514780458 8.702083607607612 12.618018033163214 1.5917344859284717 -0.6738174901186266 -1.6973438338298703
Ni 9.361346901522543 5.297085315829122 10.501740373738052 0.7003862417460905 -1.4466409638895212 -0.20394015986351327
Ni 8.949315337495273 2.785927628033775 5.418916770526931 0.22285782270362264 -0.8042462110565505 2.0268067926892575
Ni 3.592402483054066 2.9002651079042123 11.924744044420914 -1.4849293179467589 -0.6280870779610475 -1.5968008447077855
Ni 1.0027051614912355 3.3566099832125773 12.596447957849316 0.30549822051367387 0.4457202733929356 0.19984696363074614
Ni 3.334425917276392 8.885759998676448 8.037749408999693 -1.2443110859359217 -0.6652469748407963 0.5307669666516344
Ni 6.049406563434352 8.241883017379532 3.3658381160773003 -1.1705754468146679 -1.4159317077311229 -0.7459613592727282
Ni 3.4296584210872902 8.505917258493158 3.6492167164990366 -0.059068266917066015 -0.5494858832173762 0.058478712962183155
Ni 3.3630696762178838 4.693620247067522 9.11825412627619 0.8859826089950935 -0.88915869273023 -0.35526886417889786
Ni 7.33893305847943 6.060964571428286 11.385493988926488 -0.09799168345514091 1.0490178031141288 -0.3698159087551373
Ni 8.205655743311585 9.108039222768506 2.136457119073706 -1.3714354250909606 -0.2658425537952647 1.311060266437013
Ni 4.565139054647984 0.44123266564673 1.316210417848467 0.050487981447222725 -0.7783397756034337 0.4426452340120377
Ni 6.142939628915707 5.622491208875761 0.04039272532836968 -0.30570879386258315 0.8619656772552058 1.9274704222807642
Ni 8.147865703341909 8.609957603968999 11.713095446653712 0.21940817359212536 1.0531397957023023 -1.2619228854804136
Ni 0.40210903700639006 5.217604595244742 5.600877277088842 -1.005913515725487 -2.203951686736798 -0.06172267382077756
Ni 7.424306992625936 6.046327473557707 2.290588866151088 -0.16128247309398674 -0.6250017541675043 0.31645394819422923
P 8.825311160029907 1.661548164206386 3.5226588131567502 -0.9162948868253897 1.0657227745736355 -1.3775947598241371
P 2.21063120642261 3.3931753175933905 1.5136422089448673 -0.9554892976366641 -0.134906039982987 -0.988923923146026
P 4.92617833202375 1.318325578995183 8.062288019331163 0.4387096464030573 0.602431325066156 -0.16439376502945882
P 8.643626583777417 1.5696688532285117 12.45518077619127 0.760563168346303 0.5123910352476079 -1.4614379196930378
P 6.471936270690896 7.645864412266198 1.1615304648583287 0.11634267515850287 0.8492243184291375 0.36306753428771016
P 2.129140397491458 3.65803186757615 5.927289127985388 -1.13928769244498 -0.3749406315762123 -0.08512716878764695
P 7.223764132974646 4.085248735386756 5.984229448790292 0.3674476656332769 0.2842416251277427 1.0201571701286947
P 2.7421533859002225 8.882964148521394 10.265152975323065 -0.9559387264692568 -0.1614382819455607 -0.27945165993826715
