# total energy = -340860.6610463439 ev
CRYSTAL
PRIMVEC
9.32894431507969 0.00000000000000 0.00000000000000
0.00000000000000 9.32894431507969 0.00000000000000
0.00000000000000 0.00000000000000 13.65385298926390
PRIMCOORD
 96 1
Ni 8.8571983231042 0.8399594943246655 1.7136673778479907 -0.6065468898964264 0.3908848136102946 -0.39205672243120865
Ni 9.050699287489039 4.251927612833553 4.58830882359412 -0.33766786326768294 -0.3422760514636557 -0.8564149226403057
Ni 4.666757782696665 2.7919478169494796 11.60989833814145 0.45798314992068867 1.221222322437258 1.2978571374831775
Ni 5.088342108292813 6.172449406055702 7.833856970366549 1.380383635423184 -0.5447375698991135 -2.080690687191907
Ni 1.8801461219340585 6.562613846971098 9.791901643684575 -1.4561067372881116 -0.20353598244655913 0.36390262859449585
Ni 1.778591233384576 2.6205098060295975 3.5477219842707113 -2.983263082224881 -1.9193593631378558 -0.9782705571972379
Ni 9.0224978886203 8.545910106944072 6.099968172674736 1.2283892724993424 0.5774854537540958 -0.10442766888847177
Ni 7.3482788849887655 4.426798675286248 8.583726848788004 -1.0579102205077524 -1.1348869922741227 -1.1054272922521091
Ni 6.312234308685268 1.208322192217819 9.373138390869741 0.3796249244257591 1.22574489289796 -0.9126102388849509
Ni 7.025870567124525 7.369352970349163 6.243770118755468 -1.8526608333690415 -0.38181961808423276 0.2562068304777136
Ni 1.8453491593867897 8.671440382556955 4.459102943894475 0.890226471873112 0.4457899502886065 0.7334364873328401
Ni 6.531380541178001 0.2889062127972823 2.4718120299368525 -0.9558801053171797 0.4133063758386043 0.33264727012464
Ni 8.452769926227736 5.725163838685365 10.119853220300984 0.18255475220920173 0.9061431431033685 -1.376718784977087
Ni 1.8079774081899105 7.733508314325743 13.305993716350288 -1.1905536897088076 -1.7654330732986243 -1.2025933944821612
Ni 0.37515323650928123 3.4531274211251204 2.022682130262066 -1.7458746915507224 0.4682343953350516 -0.6433128937718663
Ni 4.093718045048262 9.069721005085253 3.11195859610738 -0.004585562488153393 1.5316776298458912 1.6840057219600675
Ni 2.6316112498449455 4.336270598997054 2.0846020657074393 -0.15449424652755975 0.7133363741488554 -1.7599597088888788
Ni 1.7833396660753427 0.020416394781420405 9.578956360522987 0.6022919712748144 -0.1398862668063978 1.1007237161288528
Ni 5.266580919667644 4.096040952199541 0.9402409819659169 -0.5913645257290331 -0.1579652357952957 -0.7381678313702383
Ni 4.09279447955438 6.338243405624085 1.5918892036658085 -0.7244355693858104 -0.9228707402706945 -0.7220662978226854
Ni 3.2725563736546275 6.484754477153537 11.704519955225749 -0.1802726410432444 -1.0937593689958773 -0.5247112473758576
Ni 3.453034131681294 2.1160471385380237 4.661972034228367 3.4858273611900548 -1.167602480229273 2.0035210826884398
Ni 7.770301670970898 8.369126610892934 8.31731272089728 -0.33761566987350883 -0.09886868674345553 0.4798642662644961
Ni 3.487122094455482 7.0017739037841515 6.503221122558984 -0.09230646014490554 1.6914200121462675 -0.3470529040270087
P 5.330717412298333 6.079514462115784 5.561541617369263 -0.36369951144475426 -0.46650378579719015 1.483928130375754
P 4.017911042994882 9.488376042145251 5.5003726619466935 -2.4248156189388435 -1.4079193789496074 0.11688054993984387
P 1.3626789059730768 6.824048184350366 7.413223264202993 -1.9329962371950005 2.9559458824671676 0.6251691329833039
P 8.90437479484724 8.557953774142069 13.513450781531567 1.2018341477186334 1.13236216896974 0.3393012851060479
P 2.303848117905067 4.5312175497612035 4.145227811457041 -0.5856463922983334 2.3170190335781387 -0.20449371837413813
P 2.043654530128692 5.954058818057963 0.7935591907542617 -0.8493824412735564 0.1086422211904516 -0.15458577780010152
P 7.03780228698993 1.0240755406605637 7.232460040478218 -0.5134117632026384 -0.5743204257625529 1.250204568602221
P 0.14352301064369136 7.918305373601574 9.882577117295018 -0.7395001770284167 -0.3102987272261108 0.36618499687076933
Ni 6.865981789350358 8.911586068855023 12.878191649323107 -0.7340831197779035 0.06613545817649255 -0.6980971886015978
Ni 8.171688831978617 0.23310419907804797 10.483496405230959 0.008740722307107528 0.15980023212150543 0.46820662742090974
Ni 0.13186183016538405 0.8197669942084286 8.161235749797862 -0.664376913531017 -0.2137401766730706 -0.9258545054893668
Ni 3.4244409171484844 6.67382419295662 4.056914426564286 -0.685884962806122 -0.339979285009679 -0.17928610876025897
Ni 5.836010355839964 0.6484241385212491 4.672744166307009 1.022575292651884 1.345111442484451 0.948355257695044
Ni 3.7953970615800134 2.404498098849433 2.2606000646415594 0.9473684683017427 -1.0375722802813485 0.42391114793764406
Ni 6.627170142099009 4.6245536383095756 4.604174559305685 1.2012229964971959 -0.024259386767996927 0.3971351653953806
Ni 8.211122279884062 1.978986287668191 5.815449362420611 0.26421633104575143 1.6152814200104764 1.2076612959233717
Ni 1.9752640388595155 2.9310890224166424 8.330133489162352 -2.339059815428262 -0.13459442227983914 1.8012752798082141
Ni 4.973633408163799 5.527595454549691 9.89771892692249 -3.112835111589465 -3.2358140611175625 0.2546430855350195
Ni 4.851107052642129 0.23841796579840305 7.539275027806865 1.1268602653149045 -0.6143195918633098 -0.5318427162143163
Ni 2.373227477278804 5.250581780051406 7.935715049608468 2.3843811650728806 -2.933348971003258 0.015544632602818388
Ni 6.622878827682991 3.714169942840316 10.570744424675215 0.14492382923030525 -0.31402888369250437 1.366567555475698
Ni 0.7172465599153421 4.001342837771303 13.202306231114932 0.7672544643235495 0.5216002125507017 0.7768757894633975
Ni 1.5375219815926249 3.4192260372385856 5.788004540941306 0.06239707417998285 0.8728954367938321 2.0029893785546857
Ni 8.744084872464619 7.073476170309168 11.979808707907683 0.7404699971408538 0.5512614870605603 -0.3523486052083093
Ni 5.6160991499078525 7.218979715845294 3.9098762696772136 1.8151299263031193 1.894407064067892 -0.9051553252688024
Ni -0.10536856101310817 1.0537975574636733 4.143289256814327 2.169891254717979 -2.6430896789265255 -0.8012657882719877
Ni 4.928462659463029 7.448070603049928 12.858734270024222 -1.2172016313136391 1.7426847238585148 1.3621609417675702
Ni 2.4485213873911387 7.966405410838496 2.1213170592197805 -0.5831830183595053 -0.9588800684857679 -1.255966925007295
Ni 0.8096143040367952 0.36407231637157456 11.84597380600537 -1.2610427968683056 -1.068113129182683 0.87408302934403
Ni 7.628893532018752 2.2946870945213087 3.3750963987309177 -1.7673950821210012 1.9301063172417148 -0.8926070562901466
Ni 3.806806360559989 4.4816715261449716 5.597970212289058 1.0516161599689244 0.6383938592036941 0.7317662987192687
Ni 8.55069585541237 2.4548277537938072 9.490288475743693 0.020842904887280234 1.0676459597382775 -1.0166111046486492
P 7.532963996932005 8.552067210236618 4.342048014253226 0.7215227666143896 0.598488281258008 -0.2129462200168655
P 9.213629301131949 3.360742884903779 7.444995782981408 -0.4951255632989409 0.24599620849329892 0.03938261556268056
P 2.8955550732631443 9.102913389198708 11.79759856490916 1.2529584771982742 -0.4401489499527452 -0.6984041783190553
P 8.238428100092065 5.228313589810031 2.438114017037859 0.0971589031412004 -1.1032179433056162 1.3243461849126417
P 6.013521509552948 7.432379318598318 9.315996740737159 -0.6261045003133797 1.8204577662739356 -1.6318071855796414
P 6.327953579970026 2.039176636825022 1.215236805794236 1.5025526874554769 1.5465506903029818 -0.2763555375114466
P 4.884243463089287 3.799520454997143 8.311864617377816 2.0623468945773964 2.378514678989774 2.3443274915851045
P 6.568127253101243 1.5025477691020859 11.663107838216746 -0.35820969197477665 0.15109190571423012 -0.4810809122804166
Ni 3.545241417959365 7.845418331139961 8.876779777363373 1.2624059957644194 0.32665351443505036 -0.13188756487163736
Ni 8.99908223821986 6.470164008139079 0.8193817088054254 2.336872063748324 -1.5793898483201896 -0.9397924557266976
Ni 6.347255165897719 3.29844419431647 6.753919710742702 -0.38334633914140437 -0.5389217345482847 -0.470096645354771
Ni 4.769180263073734 4.689567051712234 3.291206799264413 -1.5796377026649375 0.8940245054629635 -0.730377131681226
Ni 1.3301768637439386 1.245386088250071 6.169274766282288 1.1290184493084878 -1.308018908507528 0.4133943075667203
Ni 3.818738080425393 1.4959615343679378 9.97904120089489 -0.15938757006411905 -0.5777219952449341 -1.4736419179583975
Ni 2.332851805990713 2.1154500860975345 11.711196680720409 -0.6224849012829214 0.7678198499087164 0.7373355652769302
Ni 3.8111909644198327 2.700617451443377 7.104277545977349 -0.004738800236566032 -1.330365137413212 -2.3089431985485396
Ni 8.184329551617102 1.5361879425459068 13.33006519154083 -1.3719103078448502 -0.8168284185969351 1.2341395447195582
Ni 1.6005483298417802 6.231221755666371 5.464709040466276 -2.1595340798533713 -0.7819835430036082 -1.4175553593774748
Ni 8.537448754389013 5.862961676161427 7.466418770861716 1.8561143391352806 0.9098938683950524 -1.0878784847350684
Ni 0.8060581104381305 4.241022076850239 10.604961126881882 -1.0868027351723863 0.02143400150405986 -0.508876080115814
Ni 0.8010447357268967 6.087873196282636 3.061931198961003 2.395615857446435 -2.145761451549311 -0.5539896846250008
Ni 7.680865081174472 3.949128736061634 0.6558378506221377 0.32491776269086625 -0.1913687509564059 -0.23709556356955938
Ni 4.496887034433067 1.4594200592211142 0.2585918080258746 2.235345627667047 -1.8872424279986528 -1.2443643077713602
Ni 0.24668154473255072 8.148767615630456 2.7039684082656237 -1.969970500426504 1.1537434628589938 0.8199895899337362
Ni 6.363711423788707 6.534850908488345 11.102657511012723 2.1172995966641923 1.7436637999423326 1.092656365739686
Ni 7.513438516339128 7.976508657604901 1.4156038732447032 -0.7214248075839447 1.0018005219983779 -0.15343906579016803
Ni 5.2315693913995736 9.00747828816424 10.741690800226133 -0.5473025024128123 -1.1016598547898768 0.8351860951685165
Ni 2.2583975008728165 0.44053514321505455 0.2918541592221984 -0.004437209835747196 1.5942796209478283 0.54188338827977
Ni 6.345837166351558 6.165490013546249 1.9933668554340396 0.5423161049418144 -1.6702729457550074 -0.17111822823748596
Ni 8.941961111764918 2.579322516580216 11.691452902828976 -0.17006818970641677 0.44089971207584067 -1.3466628461319712
Ni 6.8227701189699435 6.301785890976705 13.231253012639844 3.319585230097948 -0.2040496888581841 3.069233315739114
Ni 8.447200546431297 6.631927903734158 4.561438665088785 -0.086412977478606 -0.6578985048955249 -0.5018150595039744
P 4.961291214745559 8.220982974096518 1.4262136816910864 1.589178038055205 0.3858058564254904 -1.297569945260062
P 2.9508290687303207 0.9898663016094015 8.019932095022803 -1.8178792069134821 -1.3866172750377217 0.3172319640108343
P 5.340195619791102 5.202416440203806 12.519914473202032 -3.244389718601716 -2.465402282111954 -0.5682030000109053
P 8.113028429700542 4.696255904834591 11.999811830452954 0.851978484135507 0.14001507907477823 0.9673973619281597
P 5.527567467716544 2.8485278646302263 3.8200609247388524 0.17840756281004758 -1.3488261723318768 0.5172943860864962
P 2.7847738587192254 2.5185537728716607 0.18201796674424112 -1.77449466928026 2.416898935194928 0.22024532478144004
P 2.7606585374900856 4.051429940161729 10.655549193585657 2.8031349371793013 0.17903208376792393 -0.23520091765000786
P 1.4940211139363477 0.6398928188833196 2.432871150294812 1.1139787813665458 0.4638771468076205 0.8026441566767533
