# total energy = -381165.20057307556 ev
CRYSTAL
PRIMVEC
9.27530783543738 0.00000000000000 0.00000000000000
0.00000000000000 9.27530783543738 0.00000000000000
0.00000000000000 0.00000000000000 13.57535057965208
PRIMCOORD
 96 1
Ni 2.555616348722139 7.2759504641639925 6.900771674226339 0.2423151600972859 0.7204310762121076 0.009093477660835953
Ni 0.32499195319935753 3.2283915420346814 7.775676235389898 -0.39299208976128447 1.508335355575525 1.7431619206052493
Ni 2.681751262746696 1.787936203552895 10.89094704810977 1.059788925587704 0.43201192266790756 0.17440615496013834
Ni 3.840858682476596 1.5588639209097226 2.8068120961003196 0.009569388855989971 0.9160650302027707 -0.6888576722812008
Ni 7.511923575988301 8.065622364694088 4.282819690296212 1.0144626908470786 0.1779820452368548 1.119073422280634
Ni 2.6855634143507916 3.21114874438988 8.75554481997863 -3.1422307911427625 1.8333495346349395 -0.9587481708935941
Ni 8.711610468389532 3.6196704116667107 13.325740451721378 -0.3231670985483467 -0.800792191069679 -1.3540100305256617
Ni 8.168587559236821 6.543525764851602 7.4560036713510005 0.06086881046091453 2.0831008392952963 0.23319031497788226
Ni 1.3779212116817594 6.555852649235647 11.476221767973275 -1.0685221916956438 -3.4556788626311326 -2.777808285489055
Ni 8.684619321995573 6.154380216068579 3.9981985153373047 0.49573542896879785 -1.5767740079638974 -0.4695361448656107
Ni 2.0365330096185024 8.207052261675223 4.8609941618557375 -0.3473020439233373 0.499290750420224 -1.1612927359611613
Ni 5.08344387455895 8.754416014990262 8.518709104506678 0.22623959469166197 0.26827713137868636 1.9320878664481176
Ni 6.911625639693766 8.616241751130874 6.898885076571173 0.03947286128364169 -1.0628673074027115 0.9868086765752359
Ni 7.722871906722951 0.8208888772666977 1.5389832256585838 -2.4524117833895573 0.12314992788832338 0.19078099677373597
Ni 8.454851391249463 3.371806354936197 9.85920723084283 -1.7984288114983544 -0.7378163615680907 0.16467350105340672
Ni 0.7607672580876566 1.4755994806421695 9.552458881025702 0.017299924731028267 0.025938574242632743 -0.3797614500036234
Ni 4.7618411189171015 6.4171311422019475 9.90940890807399 -2.4479732880022294 0.8305367693219632 -1.326372471314051
Ni 7.643085706970084 6.643726917598663 1.534666497297158 -1.7850984129380352 2.5362562288100388 -0.6258499611004125
Ni 2.212040388335517 0.7119958333561374 0.7581423459125738 1.3207412411702026 1.8942553689813761 -1.2960391104378324
Ni 6.205134701658872 8.0199136466771 11.357138870650891 -3.2338101433136566 -0.3040293492776312 -0.34673048769058346
Ni 7.856881557272757 0.9816893275568177 10.95981528276974 -0.3271445951388559 -0.29252186285866394 -0.4327287462292741
Ni 2.5694922095487245 3.2067058718391217 3.911737803919457 0.1779830736781193 1.0656924355563324 -1.178051186366423
Ni 6.129800649764801 4.195314579193154 12.595631796826368 0.3950888243893131 0.5000301996894098 -0.02727786187934657
Ni 3.665137971674681 5.569803926900423 2.6456591841047112 0.246056372307273 0.7175450129135642 2.5263975908484038
P 6.33479423273831 1.175431961878824 9.049722344810284 -0.12438071497163095 0.28076780764652937 1.229908023136714
Ni 4.309818256936603 2.0485352582211775 9.26751214275462 2.231198952488525 -3.158649341710102 1.388847707030137
P 1.7822689903409672 2.6148206399361067 -0.14095685627113785 -0.09782841840439925 0.5540879007657619 0.4680708731739939
Ni 8.659186427352191 3.2743599686767664 4.543412252248866 -1.5732472257575616 -1.4252427007194035 1.7575457001307473
P 7.091102850251542 0.5995364335045194 5.317695489211189 0.16951951629179837 2.32739523460614 -1.519766480230602
P 1.8010700397363477 8.1849492026179 1.5040811690380227 -2.032966127422434 -2.4912657801422773 0.41721290998186206
P 0.9161138272507495 4.477654955905232 9.83331891857473 0.9936917768483146 0.8379505452875311 -0.4380316464994263
Ni 4.180743070263631 2.3598516972475956 0.21519549428578286 -0.48005992721507007 0.4749783989271046 -0.8630666236288684
Ni 2.0763333564145445 8.148933181501837 12.49806575909323 -0.14098129964278946 4.067589073722001 2.078290048170214
Ni 1.5998515071347774 3.6368019056150422 5.9331882351354785 -0.07261566658419752 0.4433584580289784 -0.11762282742250711
Ni 3.192922764092928 6.5943915541383635 0.6460372628280519 -0.7404219175117377 0.4012525299978638 0.0831600177589471
Ni 5.212843697013292 5.049551898983853 1.0838753962242604 1.0411548554262844 0.31007092748602083 -0.602541111171143
Ni 4.031271481212543 0.5996681428786755 4.82723204059319 0.6370273178734707 -0.1519722514366544 1.4285098015064495
Ni 8.864124358477465 4.853110150022451 6.325285186936562 -0.22802779694033629 -0.7195581866888511 -2.5906304326855447
Ni 3.5731918430824723 4.461321138448268 12.921399165777798 0.24931344579198997 0.3284460875590989 -0.6810965402785432
Ni 3.8152310063643924 8.538078730284859 10.54138202132226 -0.32486556929669214 1.25175802913227 0.43892844728208275
Ni 4.389660108537705 7.415228489680042 4.783261515302741 -0.2706487169346565 -1.2432952430768975 0.05772820794940381
Ni 4.981767947833661 1.184864950154651 11.418444946666533 1.5170156569583424 0.41432273291826066 0.1760812286697161
Ni 5.708553259858241 8.891440140652795 3.406978323020698 -0.3943750861517401 1.933744171104618 -0.93958111104684
Ni 0.9787676055244819 8.682124264133037 8.260044879095364 -0.992984980589277 0.4479159954926738 -1.3417990902817665
Ni 1.9155458915556796 5.7069393562594275 4.592323734131778 -0.010235561685079145 -0.038046156139444155 0.15218128212366694
Ni 6.6462498013853155 6.368194616987331 5.51836677863845 -0.5741155088405983 -0.6841181007136863 -0.8813091147788241
Ni 3.090950027510386 0.5168674680130805 8.095823695200401 -1.581741893492134 0.2610361335455569 -1.0638823789307872
Ni 8.430067768168824 7.56072097158233 11.541532922000226 0.25363804130927287 1.25825649237242 1.3066048017688205
Ni 9.060399151894162 6.9096685496975025 9.430878143248373 1.5131692866290587 -1.5685099681828925 0.9334747410387859
Ni 6.608666253210633 2.1430413718321946 3.504232710403718 -0.16285933066280336 -0.4823134991359371 -0.4946010582540385
Ni 8.626509517130225 1.1388130457402141 3.6266139072648276 0.38893206075929787 -1.0252554105872087 1.9980086375106427
Ni 0.8279529518693232 1.2437260549711702 12.026254027411179 -0.868566213290859 -0.3862550281477671 0.3643142622106177
Ni 5.186307040713251 0.7481352160691225 1.3100528552284105 2.156450812942357 -0.01629950849097193 0.4043859334205229
Ni 4.25121686074518 9.119028374009703 13.105806202558389 -1.0279722952977393 -1.049759823486476 -1.1151823147563438
Ni 8.323392450410426 4.712515030764841 1.7168205617550358 0.9186003950301147 -2.356429417054961 1.076249128026256
Ni 6.4131149338209905 4.638943287398211 3.430314998047228 -0.5269234245358281 1.014223578253079 -1.5863133149129003
P 4.749773943158152 7.808677781393235 6.80135985019341 -0.9303765617294363 -0.9043814232172553 -1.6486335131083605
Ni 7.216440087784732 8.165341201423113 9.396518692148101 0.2325315983479608 1.2201967093862212 -1.4539063872026832
P 5.843592469600394 6.778218884166506 3.005555976517041 -0.21784802819385707 -1.2436215160680646 0.514194921225566
Ni 3.5292732595170424 5.264228903550246 7.396625004345895 0.18483763470610748 0.029723495206361715 0.5301139064486676
P 4.841636593978008 2.8894254097435232 4.263434296494364 -1.425905531114383 1.1073391645628414 1.4908284570400132
P 1.1318380140947646 1.6249319400726703 6.865082143953253 -0.6659134047802016 -1.7421041687646965 3.8406007737897725
P 7.0547158168139115 1.9340872323259635 12.70063663160691 -0.4830398357790004 0.7904807818413419 0.5539233501634395
Ni 1.4217192162426802 3.9878723148973063 11.8939083671236 0.08343075492183051 0.4909495775443803 -0.7608426472599349
Ni 6.6147230293602055 3.954611060268873 5.518285155927705 -0.8749155525476544 -1.2774202097850644 2.202766408179445
Ni 5.680560380196051 1.5387736036968986 6.829813712665146 0.1380535844730332 -0.0379548819772185 -0.06681860028644622
Ni 3.817058242048107 4.426854093774743 10.507688537339202 -0.09213471045373164 -0.44152191904087185 0.24346932830638718
Ni -0.03366751312054854 2.455767657680565 1.728332146562439 1.5987294291890661 0.8690477809129677 0.34800061265225873
Ni 5.897546936464196 6.21886215755683 7.696544872384595 -1.2288667263563933 -0.2587146845012319 1.742110853632916
Ni 2.7133522372361196 3.905507579509552 1.3866131028452575 -0.9132360453944078 -0.5827019649580287 0.9822200287632891
Ni 4.203820036665065 4.907648961292721 5.143890129519361 0.41352183428352013 0.20708461902976594 -0.8411659669010352
Ni 2.341347457709468 7.1756936595686955 9.367154921957725 0.5956338425283484 -0.5512674005978312 0.0012847802496945614
Ni 3.5255909622254955 8.229257349120974 2.81293472693697 -0.8779638524556751 0.4000024596408466 -0.9480840063115284
Ni 1.1903559325138349 5.510423404833711 7.918855455467219 0.3322220096617633 0.2689286489197562 0.16475346236172272
Ni 1.119288522317779 6.09938691470439 2.183391744394959 0.29569511838032303 0.17584520139951004 -0.07052715948628498
Ni 6.731731040274228 5.991561458749138 10.286776670708885 2.396102824385183 -1.5785429269388622 -0.003289212274233045
Ni 1.5573705963154176 0.9617566905806596 2.9714274805869465 -0.030522079848257118 -1.0516305581466276 -0.7075187390258137
Ni 6.818158360583136 8.854867601054382 13.271657058075832 0.8018828530306964 2.068008206628232 0.9332245727011929
Ni 5.336520654407472 7.781000262204377 1.1250447784868827 0.01044073571734976 -1.9237950303117062 0.2500670361285629
Ni 3.6233805348823753 6.627764112463266 11.951290987838677 1.6645974926367848 -0.7354427191295915 -0.5285486188440768
Ni 0.2928669238057216 6.428001803223844 13.474974592886664 -0.4116804101994071 -0.1156217378320783 0.9553070064225289
Ni 6.606792640986723 2.8610615177597674 1.13666859452156 -0.1299281271524214 0.6405335312545163 -0.46169633710621777
Ni 9.243558659743485 9.176192097455056 5.858171398776348 -0.4496764298272062 0.04310171628548061 0.34013637941283353
Ni 8.83718886393174 8.38805989805946 2.5131372929643865 2.601606986301707 -1.1918927202352054 -0.7241177810350754
Ni 5.134708502091395 3.6887714565584644 8.148075215508214 1.961035402720403 2.1081788653098466 -0.31743379560899526
Ni 3.7574458372804163 3.0583194938286153 6.447233226912242 0.17565571109652328 -1.7562449790414527 -0.8983172193010465
Ni -0.1431309884755173 9.105050484794686 0.18252971443346377 1.6311194154839972 -1.1973473155918732 -0.6491585539193659
Ni 8.02212116999042 1.6034781525780897 7.929145482205865 0.26107547142392457 -0.8975006369370221 -0.4095157984479206
P 0.7458878089312336 8.687012351469676 10.417982395638452 0.321804156762549 0.15156113204116478 0.8719487566098466
Ni 1.881366381431369 1.3150624491003615 5.136288087050464 0.7444927451470017 -0.29344540311419787 -1.5868409052815962
P 0.39059064177552355 6.961619550024848 5.766591644851687 0.2587059427504835 0.08756920257023627 0.4462596908361734
Ni 8.577739947460314 5.214652382080929 11.47740251468666 0.20892372912103374 -0.6068083710879292 0.2516066127015409
P 6.55570424430702 6.6757081797176925 13.079796383754971 0.14583939906603915 -1.394133638019425 -0.0034267662933618404
P 7.195088328678582 4.411688965130715 7.6510133127511555 0.31239237653034585 -0.6745294285839867 0.5044296143086862
P 0.5831738625926345 4.143994299812473 3.343147508156796 2.7293491615464025 2.1397553545645476 -2.8015655358096527
Ni 5.969699557700833 3.2138942355694717 10.431991820900802 0.8018913376711286 -0.053633983275372145 0.13347290708088627
