# total energy = -340872.644219513 ev
CRYSTAL
PRIMVEC
9.22140994710809 0.00000000000000 0.00000000000000
0.00000000000000 9.22140994710809 0.00000000000000
0.00000000000000 0.00000000000000 13.49646557199470
PRIMCOORD
 96 1
Ni 8.938874979538188 5.7334483995413335 4.0490610833609475 0.9518447589055413 0.1950181747835351 0.40312789264370574
Ni 5.457949561761927 6.906420941527483 6.15127047544791 -1.9544631488195243 1.61304173204668 -0.40487341457990267
Ni 2.5076978324489567 6.114615371679897 12.13168943741592 -0.19158498073227007 0.08491248167367957 0.26430657676671254
Ni 6.260488852561957 5.411694970441084 7.594541902253773 1.139038038328019 -1.1747815144762155 0.4894215709356281
Ni 6.832566670816034 1.0307784035955212 0.9260665294277448 -0.007185462004845689 0.19489707582463853 -0.174443435955977
Ni 0.5257761977434938 2.1377809802090026 6.370574964333758 0.4687442450919347 0.2572057040558732 0.16539083883540548
Ni 3.112271898672461 1.9925714408291555 9.934437741428134 -0.6930228594024839 0.43232431170200386 -0.13597021958144326
Ni 5.427869323147775 0.3425135888770857 5.902072020424918 0.11626682761524491 0.16069317624942 -0.515224390931345
Ni 7.3885623504609494 5.139451290304472 0.1466204150720497 1.9391378313163634 -0.673718245536601 -0.07996259386757196
Ni 5.526409307767895 5.486655810322889 12.3304513917951 -1.281539888380393 -1.2884355870589617 0.9802510779623762
Ni 5.747861462985208 6.140730404100277 1.4466455406344707 -0.04377046021773107 -0.01022039217642756 -1.1938704127868662
Ni 8.1916272616169 9.340642581064863 6.94615876257591 -0.0980850144998956 -1.5281955848345616 0.18455532757899828
Ni 6.342670056280329 3.6348123037336415 9.577685373751502 -0.37700651296630555 -0.17825072551720914 0.17989443176821923
Ni 0.492258217573438 6.070942775089883 10.859242782001674 1.1557448095597387 -2.257842523217982 -0.07127586472685143
Ni 1.8227130731796488 3.803407338246993 7.457323636565841 -0.008852822404939592 0.1802376740402509 1.8731116450242256
Ni 4.076517830900382 -0.12685616754853246 9.63029443853311 0.5755280729174088 1.0488558236149677 1.0171446085546159
Ni 1.0579907837765035 1.0399629277094686 11.0276109698351 0.11006069880453304 0.5964226569782309 0.07912647111952179
Ni 0.23211948201953592 0.9160705212555371 -0.1448618922321604 0.6386921071704033 -0.4051107274016894 0.09768160841388983
Ni 4.519412919925255 4.443197968317048 6.027022122577513 0.09250083554389875 1.5721977014471247 0.18582056744466707
Ni 6.246721287800789 1.3546711997584568 8.279878919375644 -0.10237078635944305 -0.4680217651036134 0.18494356415635244
Ni 4.74345629128315 3.893841703694263 0.8435616542270443 -0.35015005489509377 0.5546023785083352 0.8549473369558438
Ni 7.985897610028382 7.732078306578183 13.839410608835193 0.14093193446209276 0.2050681028203694 0.01811342177125913
Ni 7.593268425566889 6.821233558229647 6.1976172808662815 3.4947891983690327 0.3638167537489089 0.6718531673034042
Ni 2.146661197801102 8.245277423559616 2.928085304548807 -0.33637022750218204 0.8356062134250706 1.6185696038434445
P 1.190188913994925 3.8088571914109917 3.521011808113349 0.936851885041135 0.7309286333093218 0.9151263204385852
P 1.2884061492736927 7.306860660049732 4.780515292798341 -0.4138097978375841 -0.39230483388627274 -0.24412701649504406
P 8.508216701255492 2.6437781761733743 0.6720913841527205 -1.8232391856738146 1.6486749078692575 -1.533356817320527
P 1.1143704830060954 1.9062498241317052 8.847256585078638 -0.37419706854196844 1.999690910309072 -0.21939428963505442
P 3.391911149430946 6.4846059951978745 7.121881946828299 -0.07739766135387316 -1.2027648870630188 0.5506487931772259
P 4.944695116321976 8.273919122252307 4.0392891554457355 2.153265216125524 -0.06337203649874247 0.17144964343497568
P 9.058827077604679 4.5777844436614865 6.654836907801402 -0.5032463926338623 -0.41848740581891153 -0.35591086863827087
P 7.8408909416631 6.232059246293584 2.134925109608511 0.8979418382394987 -0.5897449878477392 -1.1509167920434757
Ni 3.3064194596112624 3.2851825529501975 3.0798798526332423 0.5399666308730313 0.22027386402653032 -0.46399670310462027
Ni 6.795662588984692 8.208216577762473 2.293359994856052 -1.1960098277273723 0.8557965723300164 -0.6249135653290722
Ni 8.413199295161 5.31535890275192 8.737328159413613 0.1609664845154647 2.003725999610394 -1.6428775844611903
Ni 3.7623444006170663 6.851138590058493 9.28705235828554 -0.0819945366959362 2.4207396490972566 0.2925264908443543
Ni 7.451876549824767 1.8074700828580073 11.055683707546034 0.28555597306379205 1.6792108716745855 0.1476476559193715
Ni 1.8444940430161383 5.265111441008045 5.569262121030872 -1.0109091691678656 1.1969655067724223 0.08113784512259574
Ni 3.8980005594928473 0.8746516372091461 3.583702640177866 0.72615435184913 0.4191656628328587 0.8773691562944695
Ni 3.4257352804048 7.130906940553519 5.062348316937055 -1.008608546059147 -0.1914217156815284 -0.9294249964494445
Ni 1.3525318326957703 9.091646074915461 6.290756285794095 -0.47760863746109994 -1.3767074721231773 -0.5229227880168671
Ni 6.530298080523788 4.3289447014778855 2.832503548177435 -0.24390641584380576 -0.1756593106409491 -1.1216494105379262
Ni 0.7718688819616886 7.986192695140476 12.29104185293388 0.23897118332571746 -0.1282142297851082 0.25570058026525644
Ni 1.9698222229686053 5.849610498199358 2.654713845999408 0.4326819521517387 -0.5932833400183007 1.2747956276780237
Ni 5.935037638150772 0.2883774586403888 12.213923203169884 0.2898877676699265 -0.6194481713391268 0.5375775618155646
Ni 2.3068555280295078 1.2149299563621145 1.946149941991784 -0.20826398404984778 0.6764379584606092 -2.7276087818165284
Ni 6.318436191449552 3.0680736817265286 12.872685961665676 1.4164243310968252 -0.43713947370246004 -0.3692579793691383
Ni 3.433813235348392 0.7290345115182183 11.999436900879955 -1.087719847670017 -1.1775043127240172 -1.140531849264726
Ni 6.636049207570723 6.593612279887605 3.8452236650537364 -1.5119459557449186 -0.20830615014169285 1.7991134962702047
Ni 4.1773631679587435 3.125172650916851 11.75504372247923 -0.31631947949889394 0.6773895237406011 0.4813948439764096
Ni 3.6289659299502657 8.863572947495523 7.4015156647409315 -0.09970403816055731 -1.883595832385001 -0.6482360421050966
Ni 1.7316885375081896 6.088094597230388 8.751013653627979 -1.4997470996858815 0.2531251062285963 -1.4274337948334512
Ni 7.818713451207232 6.9047795305914565 11.660959523051739 -2.165135742310865 0.12737373616168388 0.8728856666018191
Ni 5.899728860206691 6.28324729183226 10.159382966659866 1.8246185825198447 -1.044717633076878 -1.7298009259173115
Ni 8.953232714523544 1.3894635787563714 2.253153726192175 0.31524450126716036 -1.2450932155175847 1.3767601797379838
Ni 1.562033040873248 1.670744240450883 4.01367300129299 -0.5340813757368479 -0.15873990917779113 1.2269849359526481
P 7.318073894309331 4.828957202512586 11.216439621628394 0.4625013495060164 -0.4504732146968887 0.8015565800395292
P 5.828567241143106 3.1943516668835503 7.203819705329192 0.413387622698501 0.5454970737729573 0.08993384614767092
P 5.976829067151183 8.354578793361439 7.8523383997304235 -0.15389260838781885 -0.4604737775530263 -1.6284824920817824
P 4.61039134854795 4.9559729004498445 3.818946335821704 0.2274683248924405 0.28188829440421775 0.03209096699727376
P 8.870452119171231 0.9089386829525985 4.658953136588983 -1.2493612467653192 0.12030294535783152 0.671464673615734
P 0.5679189624554921 8.393613020845715 1.3980450226724752 -0.32664580112556646 0.8782484735756293 -0.7876212009053597
P 9.39043819373084 7.380751816400194 7.698370365367216 -0.4476090057752162 0.4227042721137365 -0.3897095623552708
P 3.404977887050889 6.153981569915279 0.5655730358143394 -0.7427395099013208 -2.3720318994789085 -0.16467015861929704
Ni 2.09152638888816 4.104486366681107 1.0492553423175255 0.31669357500886103 -0.7970990584888079 -1.0262635401367488
Ni 1.8797935995504658 4.066365058762375 9.984158660675114 1.013891134614325 -0.058285366004454456 0.657242616479081
Ni 0.7021079950395777 6.060347375283733 0.6543973431187426 -0.5280706507663938 0.9814214441213938 -0.7003834135326131
Ni 1.3394374308465682 9.015237473702442 8.890971600153515 2.013664855990661 -1.294572553194635 -0.28280000758520973
Ni 7.418347503963008 2.005296986288239 5.989083398571889 -2.122751363807383 0.7296669929880788 -0.5268334359251831
Ni 3.937809385396372 1.928418093177819 7.805032567697744 0.16203143544486934 1.562795177186302 -0.7612046585850439
Ni 4.639706210152607 7.466944333361102 11.582477948926256 -1.4300678900221888 1.9343712631656558 1.187332611668349
Ni 8.894271020563124 4.207010000314507 2.1156246989955676 0.08499707096768587 0.32560990366188436 -1.5743530572272306
Ni 8.845701855394289 3.7158223884133874 10.136465919141813 0.1282931626521597 -1.516907413515252 1.9744455054787222
Ni 8.405490196607527 0.6564214425595171 9.284312677447936 0.9570712974118032 2.6421108599530236 -1.0200381280523272
Ni 9.061464400794025 8.298697050258507 3.438494022938994 -1.6659725186074406 0.036014470421396036 0.6951972413459834
Ni 0.37072372559333827 3.8905773246417152 12.594577464926182 0.1531513593464201 -0.44337054221383637 0.08993898835399348
Ni 2.5042766894306085 8.385138545282746 0.6054039931012709 1.2482880683057984 -0.13248251814315895 -1.7243239619631399
Ni 2.7382699619119464 3.193281983352207 5.430910544084299 0.3492123735721728 -1.1821996613171575 -0.704268093299
Ni 7.03931989888713 4.6394941177282885 5.232674210061036 -0.33435551106499833 0.16964421479512073 1.9018457797341248
Ni 6.516871707923479 8.68945428854015 9.826587821521423 -1.3131307758127966 -0.5061805355615218 1.5764199670585883
Ni 5.592572922745377 2.8632938353425654 4.369210909305156 -1.1273477464742843 -0.1704181168466678 1.0467058671515004
Ni 4.359421460711415 4.864745493763821 8.641935441942175 -1.2064032551465544 -2.8733466223076967 -0.92066216265515
Ni 3.9759583575443638 7.23595724045923 2.203999923645002 0.6532751471909007 1.3519174096626911 1.9793773955627008
Ni 8.671887502960763 7.754910517126509 9.736282555810696 0.5029309182759725 -1.4176594890555068 -0.8671901588789388
Ni 6.64227365915397 0.9217776517516435 3.5246966834506313 0.9680671343016748 -0.539870214504483 1.2380247387065775
Ni 4.396666734703617 1.4859471890015825 0.35761088092463045 0.24801658135743737 0.06328307632936198 1.6957039842336024
Ni 8.283905909014761 3.1273857892575614 4.101873019157119 1.3838772503987393 -1.2304227579896034 -0.3519462275635681
Ni 8.134998584323977 2.8757980669675782 8.094477865587525 0.44908867564453625 0.26310818558323723 -0.598686513311743
P 5.460005936136836 2.14752801031788 2.2934273111472487 -1.0947669843247854 1.0472180309012287 -0.9994199375813434
P 5.156418684249917 8.323272107250144 0.6166052395281904 0.7969291085698469 0.8047378059809882 -1.0334451454868523
P 3.0208969494303894 1.1902811280924548 5.970040265291053 0.3784537869357934 -0.2604838605865127 -0.8151343187239639
P 3.858237840638088 5.199740867269319 10.715343604947721 0.4355968118056885 -1.299991410217361 0.23283164608688287
P 5.368713979582541 1.6382295496619492 10.549215297543288 -0.9932076381230442 0.0056808524348611845 -0.4510643113136683
P 2.385698581417308 7.99128291332411 10.757277043658327 0.2342848335936417 0.7236418698399215 0.03118311047102372
P 8.264319634699476 9.185095841351949 11.517087088086072 0.12894750840670693 -1.1942285674572337 0.4686342018766316
P 2.177405377917468 2.350961530877911 12.909652749083339 0.06263927209777599 -0.0026811463765889307 0.25717305104572485
