# total energy = -381163.91290345177 ev
CRYSTAL
PRIMVEC
9.30413451189170 0.00000000000000 0.00000000000000

0.00000000000000 9.30413451189170 0.00000000000000

0.00000000000000 0.00000000000000 13.61754133448492

PRIMCOORD
 96 1
Ni 1.732597306851719 2.554775754770642 4.645188672614378 0.769144739367727 -0.17503016169738242 -0.10515580530374795
Ni 6.573668713038261 9.249602906465869 0.9098289768094018 -0.4648803912611542 0.06487330363461731 2.1115020161458085
Ni 8.84950651734539 1.507530294786596 8.781230918009454 -0.21288142821720113 -0.24105891909268165 -0.32636606510161853
Ni 8.633315649534508 7.94055771165386 9.099812854901584 -0.2708263801631013 -0.3064459291389238 -0.46980533936659735
Ni 8.729427358283278 2.886300673080045 12.285745734263054 -0.6909757470654682 -1.4402731126899646 0.552208681465178
Ni 5.593319979666378 7.633558491724104 9.25501233022836 -1.5558961360736236 0.2702833631754378 -3.2162528511561836
Ni 1.8932890127374877 7.319562562696664 9.234803750228135 1.4069364462110479 -0.569735891715664 0.9306341862661972
Ni 6.96821053389901 4.660068774821725 13.274978055196728 -0.6726676927848996 -1.3847593958933764 0.6147325110310123
Ni 0.758701921126318 7.393009399953468 4.873976408041421 -0.21622746187129857 0.4555115484517445 -0.9810668889954524
Ni 1.0305538428015388 7.361031089888655 1.7091788004702428 1.620110208857687 0.0824496219554838 -0.6692620095374602
Ni 2.9539417304472813 4.42459974045446 9.370352893620991 0.4159630967351611 1.5024138478847673 1.2940411061711972
Ni 8.972321091932393 7.509320384568023 11.554783159551409 0.0071643789589231465 -0.7147851907802399 -0.9990782379712083
Ni 1.803801847708866 5.1642226035013765 4.998290809099895 0.9972452985275277 -0.10195375342668249 -0.7534833786813863
Ni 1.5230216786265478 7.818068781772201 6.937510611906035 1.0487496370544067 -1.6872545679146684 -0.10679719756191286
Ni 4.306976872884089 5.107727899191354 4.794586089705361 0.06592411349663485 -0.5223448040262101 0.33512298535864216
Ni 8.890109760034608 3.8023485333480793 9.102985564745083 0.6773226750584078 -0.769320859934275 -0.35427384725548017
Ni 1.3191308765432443 5.089891873472924 2.0523952941149513 1.094713505379031 -0.9159146206678356 0.3756384289741853
Ni 7.660614914670998 4.644968164628187 11.233913336000871 1.3483060381623488 0.6549417362600464 -0.2434245911113808
Ni 5.1123706622761205 8.862532305559162 5.233984073107126 0.35831330743217643 2.317300055153667 0.0016272511907778427
Ni 5.069683293472698 3.9366630181009574 2.853052348664389 -1.5348912516871822 -0.1956280404533921 1.9211457656143172
Ni 1.7667434802406816 5.391187658991934 7.733973362650638 -1.0565171968149676 1.2489514129214103 -0.8857771778525069
Ni 3.716285289792792 8.606901211863864 7.535484541022274 0.03029428010816718 -1.6516072510247037 -0.21934980955036418
Ni 0.5902468454651407 5.645060271278373 10.089604354315009 -0.5072094910466685 1.4757293966150455 -0.899162083799845
Ni 7.549905018988365 3.4625429353884916 7.006470065123194 2.2239816088044795 1.3587413745630599 1.0101959451509248
P 5.678852887558676 3.071378515328884 8.50009626140503 -0.01307508801640329 -1.0707472243714204 0.7355144529077914
Ni 9.008421133553421 9.106589056013078 6.94814616798258 -1.076249128026256 0.3512492014965435 -0.7347037840810379
P 4.1710713811422435 8.299492610018818 13.140804993287315 0.4348792169133736 -1.0768649072333842 -0.5325243156623731
Ni 4.990858666510494 4.802412727594951 0.8545196192268333 0.6688827718211706 0.3008352678203658 -0.5986086088859562
P 7.153474458836619 1.2669532906126444 13.026948439337612 1.2791464484475519 2.182278315528422 -0.4989079131595085
P 9.048884814226064 5.054005826943979 5.344789801374475 0.15175807854331927 0.1598017747834022 0.3664068830735883
P 1.912725349579325 1.9091804743582907 7.176485444129692 -0.33959850463149255 -1.8624474804421602 -0.13753756406856313
Ni 6.617286495285524 0.35953501503623475 3.2721449890677694 -1.155387683330636 0.6877351286409833 -0.21662675419224625
Ni 9.02071189514656 3.7091862352162863 0.858621812100728 -1.4451306978925822 0.10368590562644078 0.29874984604624677
Ni 7.56795503979888 5.59068690962031 9.288592812243468 -1.170370015672081 2.1378949043170405 -0.02193870905462028
Ni 5.948514615987096 2.289524186066028 1.5305301151183441 0.22920613351915362 -1.0803754914898038 -1.353649047641817
Ni 2.135810581009067 2.194073070862386 9.459928447926776 -0.9920056473951431 -0.2050889287559758 -0.28276324081000337
Ni 4.046023814290021 1.5572701974943326 7.003038700342309 1.416602251435586 -1.2758523510773123 -0.15009380346701892
Ni 4.808395286038848 7.965334621663344 2.214974808878273 -0.7401149277942802 1.951736751027297 -0.47673420527594673
Ni 3.455211277451025 7.314408072217786 5.092197437986762 -1.298039685807629 0.19188554269182437 0.627892445451738
Ni 5.659546808598977 6.4115999952556075 12.299676814757683 -1.8164838692278524 0.05467605138664132 -0.2296843587071528
Ni 5.051605360258869 0.9418668333346206 11.74548349024138 -0.4885810773122037 -1.9364356018938522 -0.9918655222728532
Ni 0.793009056041065 1.0782933566050175 13.646137655800311 0.11249244817447722 -0.5256221892259012 -1.475296165732369
Ni 3.936067553496899 0.7172212985595574 9.440959178633747 0.6714505325483469 -1.3530162991538246 -0.3917325063225705
Ni 3.7062182163304334 2.890236321947492 0.8386421138076876 -0.8067304109309847 1.749441068745742 2.9006643362860434
Ni 2.8599141478127157 5.88653977649285 11.15117259885354 -1.400210440341124 0.8944255975561242 0.40173666872313396
Ni 8.530272360629125 6.056712395371359 0.6134662433696352 1.951063636219672 0.7942813865343546 -0.014797727134464839
Ni 0.68150179603706 3.5423165840634137 6.636113411321645 -0.5741234792603983 0.13769491558203384 0.5532741466152149
Ni 6.982911066311697 1.318488891266994 6.902296323883543 0.13868864695387081 -0.6803714891870605 -2.484939323703617
Ni 4.225807604043405 4.580043914516966 12.21227935832393 0.26266724139107667 -2.0388750367077013 0.7373368508285107
Ni 7.632535036935879 8.493539637866284 4.912569027278499 0.09347734052455514 -1.3328840471803238 0.997891930972591
Ni 3.845054510420378 7.9496199385968715 10.87310272413313 1.1384518268072459 -0.3537902227508423 0.5817072051449271
Ni 2.1786840325012573 0.2802284339101208 5.368415789953928 0.3668277726610908 -0.07008801506633736 0.027218212286004732
Ni 6.7149333862166305 2.567838759522168 10.67464088449464 -0.2569118269645382 -0.2596014579815594 -0.7413986796027103
Ni 1.4316457743069293 2.4976576734532463 1.5811325110885213 2.132141032552399 1.7080532498275744 0.8635487054716096
Ni 6.465731449418273 0.5996468124882658 8.79570629036873 -0.7394788368721781 -0.5204385881424327 2.672367087734404
Ni 8.57276434260934 5.8377954161700245 7.366055322485396 0.7649633542965277 0.3827022777995022 -1.3591866896305949
P 0.24950246034071763 5.524273997998943 12.237621029293825 0.06736521681853559 -0.6735971465777044 0.5444308372919721
Ni 5.652438449888033 5.213190263050724 7.8988817022638935 0.08582856573004573 1.0066550218772017 -0.21775392581815398
P 3.773831361294355 6.244414003531829 7.848170447920787 -0.4887931933230098 1.1452068861428923 0.016959767782790146
Ni 8.246282265165554 0.37594192570492585 10.779210051447922 -0.20836142885966052 0.9689554504438989 0.38133650780022715
P 0.7423768868406849 1.5106843963612169 11.22581036531846 -0.48611333249800154 1.2535529162491637 -0.21644703408127236
P 6.867121113225692 5.251262781172697 1.8364212126364856 0.43090609119823853 0.42045584239919204 1.068642776433908
P 4.937880925018192 2.620360598426989 12.831386698403573 1.5409443998597978 1.852983506815783 0.2825277277604295
Ni 4.130179710285434 1.9847207418637367 4.6682564131275255 1.7115252675365749 1.23542252519704 1.3724759505403332
Ni 8.754995119720027 8.422772391327742 -0.03285941159613043 0.021403919597072815 0.45785073810788246 2.0101617279334087
Ni 1.4585626352372474 0.0657858129602174 8.538879615398097 0.2850476659688059 1.8756788915307696 0.2750193351985264
Ni 4.231576167395219 2.8029542367807734 10.334583144491772 1.3607080113711274 0.4863059081247818 0.33543640283400294
Ni 6.338702101930671 6.9380651383185645 0.7273358231075524 -0.18694799618089095 0.8561758100463062 0.6613687228323125
Ni 8.792202353339226 5.896913886391677 3.3726017285992755 -0.7346443915980122 -0.07854411625349053 -0.6651199623446287
Ni 3.3092480163812588 6.40076067863486 2.9158152483455666 -0.32850008072548587 -2.1021596556989603 -0.5228952772130414
Ni 8.735744865566957 8.331926822671113 2.831209032243335 -2.272996862360918 0.44791856659583507 0.07329829447351892
Ni 8.294310207136624 1.4473883697767178 1.900095917492628 0.37706102035332484 0.17557934933263308 -0.4927295522629386
Ni 6.33683197090855 6.903472366476558 3.588971235791374 0.5441984095661917 -0.45840018285344925 -1.8603846843758605
Ni 7.29419949221756 3.6000022175815523 2.989308606274563 -0.972838587548389 -1.0110130417355814 0.7672102413491754
Ni 1.15426161429463 0.520380239140237 2.503040115225866 0.014416175425330012 -0.9367469840321544 0.6783014940319092
Ni 1.807048990627871 7.985496680991377 12.99124289301677 0.4525743202002916 -0.19061001841351044 0.15853242115267535
Ni 8.741327346230003 1.1361092480052932 4.486067504621812 0.4998543362331778 0.6896935379189348 -0.10311666338653208
Ni 7.018778504571766 4.9987113559765115 5.019316292103814 -0.7340610082907165 -0.7193257589630709 -0.4678420449926394
Ni 3.2297348834706123 3.5925216934930706 7.352968126984329 0.0968079475596849 1.2421451886328545 -1.2725698236712986
Ni 5.788204379613301 6.7868357371566574 5.730710411264595 -0.3578646499305321 -0.7311746878818569 2.293656190482482
Ni 2.241356682078383 0.15048413999338958 11.133021162977649 -0.09543497847155823 0.08117795433191181 -0.17838082333717023
Ni 1.2893204298025807 3.7630664777491147 10.995851239365624 0.536257043231928 -0.937399787124805 1.3079214636977152
Ni 5.443951405392155 5.094664894439828 10.252142930886802 -0.6221547716370124 -0.1130300658455021 -0.05868825786982796
Ni 3.444530131115731 6.201456814829693 13.866878245351574 -1.1026322460054752 1.951792029745264 -0.16452874794542632
Ni 0.02734950318170439 3.3023443486279587 3.304718763736641 2.0999976150506354 0.21325063863116178 0.5483504840613525
Ni 2.8716652696084264 2.303359433975943 12.502019408870435 -2.111455222068273 -0.868442286118485 -1.8727882002465361
Ni 6.7137517611429525 8.637995629157029 12.35617524072148 -0.4698284792950489 -1.4831313455060717 -0.9597583573256633
Ni 3.517986272506973 0.6558726273130175 0.6839385488464794 -0.4566814003901296 -1.6309355816079654 -1.4562278362470082
P 6.758830292497046 7.209950554877763 10.754126105001971 3.0650611866392956 -0.8589374319518434 0.12394337032389623
Ni 1.7755079748816631 4.41811475875089 13.389310980829679 -0.17928328054678155 0.14201102645888444 -0.4894861056249764
P 6.700995792827893 2.0320508737519254 4.881153617347209 -0.6122038310718876 0.40386502792004636 -0.7221755697070402
Ni 3.453024805857999 1.1521402716426727 2.8206832649531624 -0.40564423130765626 -0.7282184334670104 -0.07061483410408484
P 2.9249314392683203 3.9375283026037295 3.278314560613879 -0.7743597079097632 -0.05269244529770926 0.44268200078724407
P 6.9727416473705155 8.18698701638957 6.901533384859593 -0.06684199732521393 0.5730158480185163 1.8311561265280463
P 2.539768185921487 8.311671721998696 3.2359770272653408 0.02818700395717726 0.9555754295925672 0.5369442991069397
Ni 5.493309838587916 3.627523847250367 6.336636584085343 -1.9319073750061952 -1.761870552758346 -1.907761116777295
