# total energy = -340859.7649931606 ev
CRYSTAL
PRIMVEC
9.24752636643783 0.00000000000000 0.00000000000000
0.00000000000000 9.24752636643783 0.00000000000000
0.00000000000000 0.00000000000000 13.53468959156875
PRIMCOORD
 96 1
Ni 4.667383699115392 2.9524946913842167 10.86924919088711 -2.015958537120844 -0.41366144518517795 0.44701662360685596
Ni 3.155071001103964 8.864475203986858 3.497891594704192 -3.426310436771344 -0.7151101782198265 -3.7564737641318664
Ni 7.503636985716571 4.052219758862629 1.9333627398027544 -0.949946513441564 0.7870288187369994 -1.2077577122919199
Ni 3.6632133202307062 0.5280883084645726 5.324059784640316 0.6087490397540678 -0.21957349552539607 2.278304647727076
Ni 8.931898917771512 2.326464907804479 7.689706461105553 -1.5617351113529039 0.6631605246254128 1.1856994469403
Ni 6.495120269501095 3.0893118420417385 12.882737121759288 -0.5159867230186661 -0.3233599312854431 0.3267134211387083
Ni 5.189129129334883 8.403171605244053 4.157017349928959 1.3731904601088545 -2.164794556921362 0.132728572715694
Ni 4.021804645073336 3.316153660604023 13.289927895981135 0.04884864607158684 -0.09183543404575796 -0.729815345640485
Ni 5.471039966630897 1.930781755230364 8.537858125856863 0.20543962722717524 1.0107731578106334 -0.21636167345631768
Ni 8.370019223688987 2.7102187515345104 5.264208870090094 0.09181357966888705 1.048420535849762 0.22230040753825586
Ni 0.4349546222393594 6.231121890523676 7.1246742853292675 0.0017684047543324384 1.7472368620055714 -0.2865648739442807
Ni 5.96953711589378 5.239898048369001 11.693281457710407 0.514834611692094 1.8309167568237308 1.7927132491708155
Ni 8.80066727296037 6.8275688376753365 2.2039074426024423 -1.4484229954906087 -0.866230880289463 -1.220272042708847
Ni 3.3772613139696803 8.151296733161667 12.441871480750054 0.34195132113438526 1.555026846094793 0.32857207161400187
Ni 2.560288608674734 4.474674499889161 1.6499732230616475 -1.0517349449349758 1.4200426445757028 0.3953536480149255
Ni 6.1823781797351804 2.9249000730968198 6.48859798924704 0.31009920962079496 0.5050582490316206 -0.2228771059773323
Ni 4.555655087135388 8.964126546703008 8.168726470610755 1.1049313264522969 0.5584826873993479 -2.689264377710375
Ni 0.4636783634801385 8.80178622363489 2.418351102740493 0.5788270553836548 1.4662350839713651 0.9960692759415556
Ni 1.7980150210640893 6.695153509506019 3.1446222212102213 0.24576918008415738 0.15699541568285866 0.052367714968438846
Ni 5.743462842009061 6.760940411146952 8.618552039789781 1.929205916914632 -0.14480144471982803 1.0083012992313731
Ni 1.966504949078962 2.798329181508479 8.68657684277976 -2.407176565700841 -1.4959727202451139 1.9033719865706638
Ni 1.9440427078523908 9.077436485669322 6.94379637116902 1.4966360648607258 -0.6991636821928991 -0.20949939911884563
Ni 4.845971925779674 4.951264259499616 5.64595507587435 -0.4404122309164608 0.6393639364264472 2.824823735006645
Ni 4.58695796344331 1.3841327368580718 3.1037074661328883 -1.7713219279792334 -1.0934341244459749 1.3593725803891556
P 6.84589743467454 5.4480043787777115 0.3982308460520563 0.9154034853593719 -0.28664483525259665 -3.071901863710213
P 6.050286514984113 4.202889703821263 8.296236910864646 -0.08748641304844287 0.798560987746315 -0.11957300917034246
P 2.162321317120396 9.157464577713268 1.405076534276737 2.3803656161555846 -1.5773836165234383 0.16987741385184935
P 7.378924846901611 2.300553339291983 3.4755190544821075 -1.093148474884756 0.22138406637157357 -2.117675234836056
P 3.3420652291165185 5.979700147226839 0.12735878082362395 -2.0694927615935588 0.2478134642076958 -0.9080462736633523
P 1.9898457052979268 8.731218350930089 10.862115649148874 0.11921562583092371 -1.2664233444539286 0.051300450046189064
P 6.778732651624483 6.044053682301236 4.334037196143663 0.6186794114939022 2.6301025226382384 0.625395132951181
P 8.515038930117594 7.81245812435854 8.432869110997453 0.07542639656011527 -4.424972156030424 -1.9706775537958579
Ni -0.002717847960678982 2.891729196489281 2.684402432542243 2.875945236272808 -1.2930561165501084 -0.04291453997533899
Ni 8.293052062829062 5.30422384086469 9.31395029192155 0.15273895439934984 -0.15444385290559853 0.8713846565762606
Ni 2.89216383022236 6.161164354550432 11.567286687006554 -1.929818610797967 -0.19340069378477015 1.1786363694459314
Ni 6.644467818208021 3.6634352608603633 10.350789406739175 1.8184415071748554 -0.7470985582009649 -2.3546401863650224
Ni 1.2269525334294884 6.695495667976741 9.191421494050843 -1.9312982806672867 1.767996463150426 3.2143810880547674
Ni 2.807447242376902 7.287420574799132 5.203235305854855 0.05013908274823623 0.5196256053228341 0.547007853990529
Ni 3.3319854255195804 0.97767621621934 9.466865536250218 -1.6334393218664256 0.5749598591187647 1.1131858531516055
Ni 3.5100372956621904 7.459886939095366 9.514940650891871 -0.7022811447759584 1.2026023933432257 2.3172447764356994
Ni 4.116416085991018 2.7042910872174124 5.115259889763927 -0.4945686623542064 1.7551532886391705 0.1119067508743363
Ni 7.4740356542360225 0.2726531387814326 9.0205318329778 -0.642670632202177 3.224837507501401 -0.25774897815385284
Ni 6.4168214648632285 6.599737533805829 2.011647673151267 -0.10094973764220033 1.486707235782788 2.7587463837615975
Ni 0.9110292946384846 5.229642541773584 13.471225647832485 -0.4098994070395844 1.3708368722750133 -0.6018322580295763
Ni 4.896528151710371 5.05702821705758 1.1092851601009022 0.40450266150404535 -1.8659367245423413 1.514714005408359
Ni 8.196868542451309 7.391714175685616 12.82333286272625 -2.7825478570565694 -2.6817796392975555 -1.94077048182378
Ni 0.5293348750011481 1.046413078729469 0.38584378465930536 0.5310569870882272 0.4182534354312345 0.677897316614955
Ni 7.801166894824722 7.725966011475823 10.291425836821574 -0.7176172609123964 -1.8217080937412689 3.4187151409225893
Ni 7.392167304471167 5.56776909105656 7.072863170088382 -0.6423312465848874 -0.6464218717144932 -0.7504466487375914
Ni 7.823943551943308 8.614385104467965 3.598156973162395 -0.26332878623447553 0.44120130247665956 0.10402349147151761
Ni 2.877820917030754 1.242294179454553 0.03146100900655313 -0.04462432357759411 -0.5728240437226845 -2.5351740514894527
Ni 2.116425844412503 4.262628723304034 10.519092534724084 -0.7980701641528255 -0.22868831334247064 0.22645582446752613
Ni 6.760847935884595 0.4460701487746984 6.698479844693009 0.25483926070622565 0.9093863326310144 1.6443865649065488
Ni 2.389375828786102 5.154709836685521 6.097648645352992 1.091016773253734 0.6411457109172184 1.4549008899054685
Ni 1.963129602002923 1.6890791620072727 11.359624237857158 0.7946935343711089 0.9972028753253666 0.8334634560504548
Ni 0.7163457485609267 0.7560167113595546 9.796733119852068 -1.9195452538964166 -0.25800043204302664 -2.5879950519452266
P 8.075208087294138 8.626693561887713 0.822201256628624 0.2723937246502212 0.6719159022205397 1.6051065363600032
P 0.572830614650871 7.896536632893733 4.810675042890543 1.2557622651956566 -0.1812668866357136 -0.37278784689926764
P 0.1991399289705528 4.321711168424067 6.423306755012341 -1.940672522793335 0.5961894579215022 -0.1301978358740403
P 3.4299167283558867 1.586052472215083 7.20100984014729 0.5066219939743146 -0.3073748687110965 0.8757329062426273
P 0.20211670766583203 2.8762395900444453 10.127845420485245 1.1492095795443822 0.08184052761657518 -1.048752208157568
P 4.138785851955231 3.484967252037146 2.701781308597037 0.3986649717763457 0.17401483305899063 0.7725023429860501
P 1.2458822196340136 1.682217497540366 4.2843382158950165 0.5634027504087845 0.750953413170681 -0.07209090442897906
P 8.842512329177016 3.303114648611653 0.20950455637555113 -0.35115869866526617 -0.955481327216864 3.3415545352801868
Ni 7.703919908929859 1.35942334675622 1.3184151916639064 0.7078419266931874 2.6347891294806303 -0.05903355702438866
Ni 4.769892527438381 0.2684381163231901 0.46983629120050646 0.289192798485431 -1.1554270212090036 0.2502920076551754
Ni 4.673126412907776 5.9811335137933765 3.7015887046037093 -1.4851476046051522 0.5647975738737822 -0.8757473044203304
Ni 8.442316383799868 3.664859379900665 11.829846150901695 1.3870291657641596 1.659909343132496 -2.404100754988995
Ni 1.0359078889256874 7.783069485981413 13.310392671540791 2.0795755997508576 0.5937181135628743 0.5023045975458834
Ni 1.618326338777756 3.07776168177332 13.188417800491605 -0.21661775533118177 0.9497068866269323 -0.2716856428396031
Ni 5.555636336635291 2.1936149459020826 1.4456944437619033 0.6533545942785844 2.48440916223176 -1.6186467369382833
Ni 9.082448644889084 5.792225047850027 4.68780778555961 -1.097081234280259 0.7213091079416868 1.2196961156007189
Ni 7.691888877297184 7.815593035752451 5.623325454422912 -1.127951184386238 -2.640689297015149 1.2837636355045892
Ni 3.876063631598342 7.22969751603575 1.835615462738539 -0.29693927520006924 1.1739896147025395 -0.5488803884228934
Ni 6.183182714517688 1.1253777052563074 4.648285707933377 0.7046475881256057 0.6192921053772368 0.47339434226943633
Ni 6.444989429777241 0.10725280928191507 12.412081499734295 0.27426060265563085 -1.4282084682159468 1.256654952213255
Ni 5.441420140097877 0.2770790048378496 10.207970611554668 -0.6487489771857731 -1.8349922124446851 0.5152192487250223
Ni 6.299553584668026 9.069021236794814 2.069900615167957 -1.6971080636699802 -0.8071477009740615 -0.02461471322488664
Ni 3.6493327833508857 3.674994668655017 7.76943955706258 3.6898035164978262 1.6032113762198195 -1.3498193894830817
Ni 2.4213075368780532 2.1715041106724686 1.9232117302538012 -0.6461490776690807 -0.285315832028528 2.4659954356112626
Ni 4.264755654338249 5.356444621517818 10.07774047383485 1.4375788536872531 -1.8858622598216745 -1.6346531396688686
Ni 1.572625064120813 2.884386660658117 6.461014467991125 2.1882250200301603 -2.8745226448936685 -1.7692730158700045
Ni 5.330745746108745 7.0881918695767165 13.338247145315412 0.9282793128807756 0.40924608972630167 -0.7217855333574731
Ni 9.027952972781968 0.5137527932939548 5.648039468287883 0.6194258027416235 0.5675815643768225 -1.5613419896795435
Ni 3.91236941959979 6.918314812626486 7.35549438967816 -1.5143522511935663 -1.4431085252562308 -2.2052287536770083
Ni 8.845684230675868 0.3809074551546765 11.987890998033318 -0.3967793247178586 -0.04259880850713309 -1.3322207025647121
Ni 6.1528045908333375 4.182998274888223 3.9980791917629652 -0.06327099214450395 -3.7395633615297728 -0.8235006884107882
Ni 1.5319544437361037 4.05459637310521 4.377159335733462 -0.011670751469708933 -1.3326125386864922 -1.7762391627751923
P 5.435991842197508 7.421297012113694 11.029269309622684 -0.15172336865064193 -0.8753958346181826 0.019921935734907623
P 4.216964438752034 1.0961647698776584 11.877664184313995 -0.27018206171088305 0.12872793619673314 0.5026966907779793
P 6.824785332278384 1.5749924308371583 11.034615304539557 2.0520087458761824 2.0210686046539004 -0.35778957371822256
P 5.362011632311724 8.134845383988313 6.323244822131325 0.2977319463046937 -0.39552822591957687 -0.5124792240860399
P 0.40312556168862446 5.056815523954159 2.798459571628403 1.1795797071958072 -1.9236363932466547 -1.7972319629767757
P 0.07137703125042777 0.263378794719626 7.654327275232925 0.04182542067621829 1.6772833156345697 0.8384097443121367
P 2.5919613860320854 5.452212003214966 8.493477397946382 1.3982941971550176 -1.4059499139280627 -0.6767783725191635
P 9.152646616544455 6.118107872396905 11.291057529829768 0.7584389229144486 -0.9190619080475656 -0.26741452626807494
