# total energy = -381161.21957441926 ev
CRYSTAL
PRIMVEC
9.37888305569786 0.00000000000000 0.00000000000000

0.00000000000000 9.37888305569786 0.00000000000000

0.00000000000000 0.00000000000000 13.72694338404050

PRIMCOORD
 96 1
Ni 6.200238759503625 5.37716675959965 1.6936714885783566 -0.592811799698521 -0.7471350678658553 -0.8298531129913773
Ni 8.02781724777009 0.6997096781881543 11.404261963071605 0.23366314084924275 -0.05256183325711593 -2.159249972954049
Ni 6.582531402773593 2.232568027999065 6.5112518932215275 0.35891983066792377 0.45624302730113037 -0.8917889312642253
Ni 5.638274857748271 2.1484300700791197 4.104397023373108 0.766583406398454 -0.26793234644475794 0.3030682709159425
Ni 8.859030117975536 2.502295319473784 7.78069212604136 2.6527667970049733 -1.8682723146540532 0.07753907202774389
Ni 4.822058821197265 3.0531921394828965 8.052334585391149 0.04872317623731608 0.5117397748168541 0.5206185653637228
Ni 3.8199251901922313 5.56564478906785 1.1920860208550204 1.175320417698821 -2.183085899031382 1.0296558536477494
Ni 1.558704675129803 7.5960978919554645 12.368634336003147 0.19721646798643455 0.9169880562376724 0.3878892213170803
Ni 2.237867096801291 9.307584568480419 2.619649528844992 -0.6088665391685385 1.0659320623709643 0.3530754560720048
Ni 6.0424202980256485 0.6999957341146462 8.177070913442414 -0.22234488762294613 -1.867211734600023 1.4120763385407746
Ni 2.093957518568804 5.645740448485566 13.480956709892839 -1.5492644896897187 2.24681223354575 1.6679059881847274
Ni 2.8523808790856218 8.285117519487377 5.483323520753199 0.31408236263825906 0.8999724955162822 0.4291209742733577
Ni 4.492128480799557 8.08071414696399 7.662668264435676 -0.026730731126624933 0.1968418582558352 1.2075358260891011
Ni 5.4558086921778175 8.30591050273434 10.118116064144647 1.0939812551986967 -0.23910642335200114 -0.8819819724761327
Ni 2.1453069020947986 4.455775930928003 3.863585765569439 0.2621262812859421 -0.8487705187211705 0.8215278809551335
Ni 0.4983863307880454 9.005715845527419 0.9920860338230425 -1.2094937211464203 -0.36675809576542 -0.2956598942670134
Ni 5.019793808024397 3.9733824711515604 13.590579906142498 0.054582977452202766 1.0835739438224437 -0.2670178050502885
Ni 7.599830687324111 8.91170192398138 4.419402747514211 -1.572720406719814 0.7402812781688153 0.9010207342751386
Ni 2.2489810729617115 0.6620440847195889 13.28267024475496 -0.5395069176277933 -2.2109103774428185 1.0415670032630384
Ni 1.2646391826961876 0.6164017513991772 7.192519874089651 -0.07655099708286171 0.8120698208660272 -1.3267725349659474
Ni 6.826860679528971 6.9017510589728195 3.1564011177611535 0.9190030297851721 1.2290369333856703 0.6642085062739529
Ni 3.883101344974168 4.04264552089393 10.075685998195496 0.3065963386738591 -0.39873696266486164 -1.1505313836795992
Ni 8.923472421940307 1.5943256721401644 2.9762487225862917 -0.5194988499369828 0.33453728805850125 -1.8708614155374685
Ni 0.9669909570192974 5.503687889054567 5.978385975464237 0.026392373950599707 0.06915547594973896 -0.41883501896631736
P 6.506740650577508 4.031212662717092 10.99618770877431 0.41109728400242745 -0.1638170665903824 0.10465803973172298
Ni 8.548176425265842 3.884892711595805 5.014548198854334 1.0524258003544134 -1.8805339056302257 0.15370388941578045
P 4.818841864384585 7.770573249349817 4.554091946030825 -0.800488286676015 -1.2874937919709826 -2.1956213124942314
Ni 3.2725548301293794 8.843395520288261 11.190203968557048 -0.5640226433809706 1.393414500465213 -0.0416896664293024
P 4.413683504760941 1.2445402367790723 7.080755478888579 -2.1330717718967844 -0.685781090238406 -2.596269376138877
P 2.112208824567267 2.33427263347046 2.9293571220721515 0.04484158179472277 0.17172500858354942 0.38610050484777375
P 7.9734009695567885 1.550807655782061 0.43504135611506467 0.9757796724545839 -1.2921148356827616 1.379837790222043
Ni 3.286266756835316 0.5979900665042218 8.912108029608168 1.1408846046184544 -0.35427693257927373 -0.6041974158276433
Ni 7.910281088071867 4.33864306319172 7.0816886777307415 -0.8634553744268548 2.1893424214640556 0.723396843708651
Ni 8.728654267675108 5.369973156464592 0.14669979587613685 1.06634806686246 1.8240704233258584 0.4177286732760161
Ni 4.829862051716648 5.665370450260892 3.9473476302876684 -0.42206612430910545 -0.2144516009177984 -1.8760617287914851
Ni 2.7905740411977122 5.544936215766408 8.073858183611023 -1.3572781597539723 0.23501759799460814 0.205899083362097
Ni 7.807469774425847 6.045740422549521 5.268593060339316 0.19791606515662044 1.516891729785968 0.5768457632875679
Ni 2.2656661055265968 8.111917690158691 7.933692655406586 0.21876154114706195 -1.2002233515880878 -2.3076977561772125
Ni 0.10386550007676311 6.894444909243732 7.903754323506435 -0.0773531812691829 -0.9153435786557138 -0.9451825163940174
Ni 4.169363606888399 6.14348713946421 6.065606772172309 -1.0000156621838132 0.7981344417318577 0.2428625479603237
Ni 5.67974827764817 8.959365406552905 5.901940577246213 0.6300004929336763 1.8481919989644107 0.8157254153407435
Ni 6.783896017258179 0.4477581833521234 2.291919474360563 0.5678780125713186 0.29942604617766494 -0.5474061178702121
Ni 0.9946867980334093 1.0283100929997457 4.589356545493426 -0.7872954421348248 -0.5521379761282427 1.015877054696102
Ni 7.230659101141425 7.99192426315749 0.6252798018915438 -0.24939777797568016 -0.4629556634346156 0.37184656603192084
Ni 8.07723458143191 0.02448544941941825 6.71049875596179 0.10565537064798579 0.7527827530699358 1.0725022593893143
Ni 8.106121540566168 7.646462492783701 9.65492774275107 -1.073403431047345 1.6712625633617864 -0.3924171910944209
Ni 1.3855892557466407 3.6702382201328927 10.10237079563991 -1.7131895426128754 1.7260921096071562 1.6050617991649971
Ni 4.00416396461865 7.244249102370496 12.796393927484498 -0.1292177313489581 0.007702767960896412 0.667619845948347
Ni 4.510529848923393 9.548640615126104 2.950235453152922 1.1274289933341808 -0.5158311712774084 -0.02687265602112791
Ni 8.36166796119316 6.1198898702493425 11.342449497853993 0.9060336141086978 -0.6458708843070295 0.7329184100458409
Ni 6.070472536587521 4.466205248641411 5.461305655407879 0.4191234967410137 -0.6609504043479714 0.24884730478884884
Ni 3.748195494264047 2.142699572666447 12.549775265428902 1.361718197803197 0.5598394585375585 -0.36763021395772816
Ni 3.214208800007879 1.2690191209805055 4.5173032781074065 1.4729860295419537 1.0651620169741591 1.1602051593239373
Ni 7.381987375697028 3.552176842995866 0.8585541894483663 -2.226212812127843 -0.18742853536173526 -1.2134581051108069
Ni 2.6068323475615904 2.937437967523475 0.8842185644402444 -0.3980242528685532 0.4598068333929887 -0.2461409616012793
Ni 3.7927358088512526 3.838851775754872 5.813140376668593 -0.04619783871230108 -0.7171747740583391 -0.3674731195545736
P 0.8098852906368424 4.612403274285833 8.013967451486465 -0.9159611576350547 -0.6559503800302187 -0.4431825945727464
Ni 9.178446730714315 5.406381979633161 3.4545914428659525 -0.02007414504205575 1.0002414050413742 -0.23231279746893538
P 0.6363431320846513 4.719857134935572 12.125420208416946 -1.7635559108805692 -0.29839734780283445 -0.5699834889500958
Ni 5.430832727186087 9.259105123102179 12.289787005890874 -0.2399194061715997 0.48452773317843656 2.257485911209512
P 4.027151606449192 -0.20859667103927038 0.7283640410280849 0.2404408258927085 0.8679218948386408 -0.35977755068252876
P 8.748396816044462 6.858730123405014 1.7642832216725137 0.43696541001844097 0.7862777995035878 0.7942225082719612
P 7.879171333705524 0.793569786055688 9.099659425452192 2.3158278414835145 -0.4442400893029833 0.44792782256721564
Ni 4.987933743031191 1.1926281202829294 10.463636921480303 0.19187114451412116 2.0065596124044474 -0.21525301377317121
Ni 4.204168641092046 3.439189441473005 2.7264449919196587 -0.09545091931115819 0.32635835179213474 0.04431964785298174
Ni 8.700761470121442 8.271677580383678 12.521264399496358 0.6607645135894105 -1.0157094187699862 0.8667379018328687
Ni 0.10876690424675123 3.29947222386812 0.26351753314913723 1.1717476127458981 -1.231845092258427 1.2963656405393158
Ni 0.42212663445017057 8.2479208701606 5.650874448949882 0.2064333585990122 -1.250100438924189 0.5974055897167905
Ni 2.7394872663911194 4.387563316063243 12.056291276699127 2.8810720159764127 -2.978062511860549 -1.370136760884195
Ni 1.1603272477964406 7.929995499792715 9.694255274258138 -1.304133714520509 0.42150973758500315 2.3713287027642966
Ni 1.607821884540878 2.9112239899974197 5.913388441635589 -0.6638732344217212 0.4298308558561888 0.5561931200342228
Ni 6.732537254849349 2.0737554049404947 12.556377998945305 -1.98471834815964 1.6969684527683224 -0.11289739692237975
Ni 6.265093734313169 5.879077674557388 9.629107678304118 -0.10488866768529032 -0.4505068961483016 0.12500549303982345
Ni 2.312382320931707 2.74383906802693 8.500697706686182 1.340700715011265 -0.47735435535844883 -3.705849514217095
Ni 6.70195271792181 5.775619217995699 12.990726255618803 -1.269571403164607 0.45416171929206944 0.30048945444517283
Ni 1.2280427818709032 2.4830873674260694 12.292710403670794 0.6296531368965865 -0.7834781252712636 -1.4601539107742918
Ni 4.904180319307513 5.4422280698315815 11.60173809273247 -0.37804832396725857 0.28261668792981004 -0.18323455188504573
Ni 2.3502448709398243 6.923360005026498 3.5864388398833196 0.19615460238082347 0.04402474232038224 0.49132264461308284
Ni 4.83722447474275 1.990705397429502 0.8452924491185477 1.0891725209561436 -2.2526339824338493 1.3019991846760093
Ni 7.40586601139697 3.7574055572088008 2.992775252031252 -0.7665330127764928 -0.07387936378796954 1.5728556467460977
Ni 2.6926960199233227 7.469717445743084 1.2135355259004907 -1.5460698940118212 1.425204134171984 -0.7501399161304501
Ni 7.033430573987425 2.787600935338764 9.034099158653396 -1.5646278595196665 0.941674503240759 1.4153205565096851
Ni 3.6020256052681328 7.011005665127032 9.894998068810713 0.838944276659368 -0.803299787982881 -1.0311884882421918
Ni 0.02894792187269101 8.476052816258555 3.418131973730071 1.5966656046815018 -1.4761346024732642 -2.432712762298733
Ni 1.059288543006387 0.921870089584556 9.521034811387215 -1.3716292862693218 1.8381888650051117 -0.9590543892801031
Ni 1.7501558104569508 6.04136986314804 10.640549850523682 -1.0421575856591858 -1.7749991197205044 0.13001194511547934
Ni 4.9956431847222165 7.456315022170728 1.6557573547146425 0.624539212708789 0.88067713762178 0.3907372322888368
Ni 6.222269755284914 6.536452951401317 7.325959805412538 2.2929031143665415 0.9704289496656321 -1.0108901430044719
P 6.771712848454478 7.736368463647661 11.780256686517333 0.26612151848826426 -1.309260751334429 -0.10607780289738504
Ni 8.627456121876843 3.0377920138665155 10.994018373174391 -1.16540572968827 0.1999210114017912 0.5686832820814336
P 4.8288116168390385 5.206574259699317 7.933637319997855 0.2781085156468114 -0.9121163299676679 0.7239069505758501
Ni 1.497929514353831 5.526412922165706 1.9268370810942836 -0.8787459820373381 -0.3442285472043362 -0.8238395598074457
P 2.800290563815599 1.975474091704166 10.729335982777046 0.3677348578563925 0.2874873857585501 -2.006312272280332
P 7.979928672010504 1.713578167397338 4.8935174674114945 -0.4190574193897686 -0.21899345465220998 0.2432664682669617
P 0.811156129261093 9.487490299036699 11.3336642983017 0.12916245263099047 -1.0611724361987918 3.3347948479588503
Ni 8.499518781113721 4.80338546547119 9.440265748181888 0.389080156301388 0.17260226898218017 -0.9351611276022733
