# total energy = -340856.2843918532 ev
CRYSTAL
PRIMVEC
9.42469487033768 0.00000000000000 0.00000000000000
0.00000000000000 9.42469487033768 0.00000000000000
0.00000000000000 0.00000000000000 13.79399360549180
PRIMCOORD
 96 1
Ni 2.062943163044009 4.689973157167571 5.438019662897239 -1.039864161639319 -0.5740951971256242 1.105946912201005
Ni 7.6033536523385505 5.5298831052419475 2.040986451649803 0.7277080694894952 0.4618256635952305 0.15971615704813139
Ni 3.87079753757637 1.5504282617189729 1.0314385950903269 2.326787168708496 0.0066786975717562395 0.456876032899439
Ni 0.7994732951848017 6.98398156176704 5.105363751530032 2.099879344305216 0.44265397576278603 2.099046049770643
Ni 9.328412083359686 0.7076654585392069 7.526554642106345 -0.12155070172200358 -0.29690225131454673 -0.39044669763161144
Ni 2.789709650463603 6.747336900910653 1.1842892372598666 1.2259559804675013 -0.9779514832949222 -1.5084045182505634
Ni 4.024834748816834 1.4529957672375786 6.205366058566836 -2.709099410158431 -2.476477308979193 0.3461244786754684
Ni 2.349755474134916 1.7501281190962474 8.761820168411575 -1.8675405786943515 -2.0650725210386756 -0.21396154865525735
Ni 4.840372436228714 2.883636158492388 4.77178327760637 -1.2975917996369328 2.0172083503675453 -1.5860991420195651
Ni 0.5051334803850258 4.384961760485295 9.090545039592268 1.4615518195630828 -0.05041830455155187 3.0538141529705665
Ni 3.279680681910569 8.340807743621745 5.999973685551454 2.488548381211114 0.021865689724839762 -1.5052644299596851
Ni 2.4018080633224512 9.121982993920144 0.9854922656410866 0.6756727981598105 -1.9945808427760163 -0.8493040226271373
Ni 8.21830556106524 0.7147518865330703 3.1241185550571156 -0.880984898670186 -1.5829225440637964 -0.7548537766663516
Ni 1.594281366460889 7.524308737343826 11.20846150473151 -0.3103789456447429 0.6948128614233712 -1.1277771207022191
Ni 8.398288956993968 1.6995363575972993 5.387202651193405 0.7134096505889519 -0.2144135485910114 0.33343557035389026
Ni 3.9345178988830742 3.910173912304873 1.4324376805465102 0.7269233688046707 -0.4143559001490412 0.911219014964379
Ni 0.7245535690887532 6.250221950831756 1.9883212573025373 -0.06993863397266664 -2.1212626950769984 -0.21728984169754192
Ni 3.2754301445715175 8.366650256667594 12.62429004569352 0.07296250840065499 0.42450532987821726 -0.28883181560158644
Ni 1.9048627577493267 2.402637436461778 0.44176371772358264 2.0738299555163318 0.716868812782146 1.9934269316772315
Ni 5.473872144253079 8.83010962174039 7.422244005385396 -0.42671442171439417 0.8194512009317628 -0.8709635098784418
Ni 7.730341989603235 8.176318545886808 8.322551167392309 1.714481007730789 0.2615765794300592 0.10259215834162977
Ni 0.2952257361076933 8.372069456157515 2.379532797245185 -0.40643690241228064 0.5064702988877987 0.2440524545033668
Ni 1.5917084247900222 2.3912618298803268 5.592733567221835 -0.28375774351278876 -0.8042984044507245 1.0173420692774027
Ni 0.659038745898778 1.809400024473834 3.5439528930013107 0.430717115115884 0.9408805465845538 0.021725050381917424
P 3.5684062060387864 9.418851454325392 8.957032928611195 0.5563723259245643 -1.373521875306344 -0.004798964050540122
P 3.546342995593735 1.6581619475785996 12.627201333906454 -0.4284967104257975 -0.19909285907354096 -0.4641705096783232
P 2.449628964560466 4.6877677785925425 0.18656089040527696 -0.9171052985418271 0.08062619559349984 -0.5774114059830507
P 6.711089524844156 5.77308735365483 0.09974814198517445 -1.9438915439512654 1.8921606912358766 0.22270047119015193
P 6.840829872980244 1.6429881890068212 8.846749862817616 3.6941062576382384 -0.2115917628715001 0.3173517774181502
P 6.219506870592362 4.395112156747286 3.2094205249063754 -2.4596504672298414 1.3100876181110988 0.3106558534552134
P 6.98338780599684 9.091757997808534 13.1899404336346 1.6122958550195912 -0.019939933457036627 0.29945355698149073
P 7.892767179184619 4.281733078723377 10.237171311631924 -0.12348494263023896 0.6599237628556699 0.7809872405286098
Ni 3.6758194522764 7.19727182899556 8.273347663432258 0.21934055357898355 1.4752658267150656 0.3687267894560166
Ni 2.504603209125176 3.6574130234001996 7.890868103189455 0.04598263737770145 2.182193726234416 -1.1560044909790286
Ni 8.080111261724875 5.745030037339188 8.641536559002768 -1.341592116477283 1.0599617037201423 2.2107419701857536
Ni 1.1987269271704921 1.0561972682381913 12.644760482723274 -0.48249039103343355 -0.5388453727843946 -0.3078217264405279
Ni 7.622438659237837 6.853279894764914 10.915034942854472 0.49834509867750304 0.4896059190322922 0.11242482816133541
Ni 8.781487621447344 2.9589865931392003 7.804475696155875 -1.5198276724858406 -1.7291257542271576 -0.5020361743758451
Ni 2.4596568397905108 0.5845864846630776 10.778902766728706 -0.26395227875108734 -0.5215603604517018 0.18603988254432477
Ni 2.6218181379184724 7.5927791448121305 3.3200485345283584 -1.1204322503013737 0.29605558704353535 -1.1414047387879827
Ni 7.987834075279979 1.760108870852467 10.823926418560445 0.5818948956757011 -1.3460537517930624 0.2166946313157042
Ni 4.573314285365414 5.105517374054702 9.02647219470135 0.10158248613019279 -0.35641917573325715 -0.07541714058873462
Ni 2.007846397447353 3.6515037397824948 11.707389766083208 0.4348267664088834 -0.18038654091328934 0.4207852007141527
Ni 1.8379662743067906 5.938896008656878 7.527147455407069 0.30041592089476005 1.0501963968032624 0.3039825552000958
Ni 9.228067358195883 8.644424285478788 12.276681856081513 -1.7151170986528916 -0.018596789165580874 0.29902161165039465
Ni 8.149608960922572 1.523030674036886 -0.0006682108588441536 -0.2384561913625119 0.08480192423774427 -0.198657057087703
Ni 9.298026867437068 5.297102569239243 3.9579797340312637 -0.499800600177107 -0.37279221777464183 -0.5389392180497815
Ni 7.0793311987053515 2.608849757921723 3.6355307670946377 0.9881600483968077 -0.5420690219280149 1.2102905060161029
Ni 6.668782070043714 6.274254922482711 4.268564895197607 0.9262843939379338 0.4729302581488243 -0.029590054952290976
Ni 2.7172902958887306 4.795793629989887 3.2584996228955285 0.18068967397600497 1.642760085046719 -1.1273235781045683
Ni 5.211460367908963 6.3057051289137815 2.359918122500101 -0.44644326760188924 -1.4380938456504588 -0.9548136117258781
Ni 7.784892122903517 8.959765147623592 5.948479980763487 -1.0379180936565415 -0.6701948057643748 0.20307986874574704
Ni 0.2975979317800639 9.43280000257771 9.894858858008416 -0.19608595392641714 -0.4649824640566573 -0.34684310200904783
Ni 6.979683900954163 8.085068651171305 2.6690273764662336 1.1569290596758266 -1.149651552177807 0.2768085658884652
Ni 7.437676943063214 4.096698046400566 13.131467742373093 0.7555505456230601 -1.5533242615813894 -1.2561114210049593
Ni 0.3132919335028747 3.277126589629232 13.237102548708537 -2.8629588513154696 1.8961993800816244 -0.40534495489968253
P 2.656943975307925 4.808356748111737 10.024136453631536 0.3869309711688691 0.19910494325839906 -0.5432699842146516
P 4.377742444295245 3.4186855050007297 6.970918934822639 1.3033317874445038 0.6120837605542556 -0.2585596469806063
P 1.1138764002004793 7.454679092419418 13.603153923506328 0.9189454370743594 0.13889253543456082 -0.7971260550720014
P 0.596038431272126 2.154909334561657 10.755025302541377 1.497642394638053 -0.5856307085690495 -0.43060784323152934
P 4.391653293768502 8.987728216991584 1.8277037241770953 0.5472035149411026 -0.6383964303068554 0.436015644510662
P 5.941770540560227 6.7759502742174345 8.14089771555121 0.5267848420754347 -0.9881595341761756 0.49705774732464725
P 5.551286587053443 8.015401307467837 11.836584424392397 -0.15169225830239036 -0.6511614432820075 -0.5303190804809383
P 2.6020545529961003 2.7359700409131187 3.534324624829305 1.2286193862322774 0.11489257297553761 0.5245232997347676
Ni 5.093189873301978 7.5465981404632405 0.19044857699587237 1.2226688250757975 1.156355446560544 0.8440715705836045
Ni 9.272768685466655 4.966060165615818 6.98845075202464 1.63253249378144 -0.6511437026701947 -3.3357497556729525
Ni 4.731517211692042 0.505272965867549 11.126469487683746 0.5246917069918319 0.9817083792341932 0.5074108084241972
Ni 4.885516724153446 8.07724615451629 3.7890581023483096 -0.516424324776717 0.014645260717000584 0.23147770316214974
Ni 0.39599928488330843 5.673920715336661 11.843177940850047 -0.7493436454813998 -0.5045080329551053 0.26992392295349
Ni 5.399925989126262 2.7529533408797926 12.931841397614987 -0.5456909349513183 0.03351998613431646 0.3186411856535351
Ni 6.2067646832699745 3.008475665350634 10.664026104706627 -1.2444445261899921 1.3126147554083265 -0.5852221602767212
Ni 7.649412135655496 6.352602410064819 6.499095153145834 -1.75190444268457 1.3291052968641819 -1.2515253442961736
Ni 6.357371305615949 3.078765038908599 1.4446728192905367 0.3439346701130012 -0.11351163346761096 -0.680716531231305
Ni 6.248742273753639 1.8102576716974563 6.465768489987037 2.0790441527274193 -0.5005220517241638 0.049128896316167
Ni 5.703288064224649 5.524831468847864 11.154788810513859 0.7239979676277596 -0.5016114281336005 0.2860645372690944
Ni 4.9082585126215825 1.687557570550883 8.485292084248323 -2.308699715079166 0.006475323311698526 -0.1475694943832684
Ni 6.415615919264141 0.40783670150824863 1.3856063722588288 -0.3255186294996587 0.8645185255840467 -1.309724321234409
Ni 3.5315085260334995 6.114553469688435 11.742882224099022 -2.671641522422289 0.5680711024187314 -4.108137427458009
Ni 4.430586707843046 5.488094008653584 13.40778942572099 2.310242119865621 -2.5772295858986065 3.1342829970505957
Ni 6.387370109053197 3.832636948472562 7.9486094381371935 0.10796267862492374 0.022285293760761618 0.4201226274294894
Ni 5.260110642286304 1.2317133588482714 3.2839632632118207 -0.4865434780568847 -1.495546945561605 -0.12732282831909042
Ni 5.001374496900571 6.619952726465835 6.141293213675918 0.35910315032332346 -0.15815061233322442 -0.502373760220922
Ni 1.6459381184682909 8.47492115012883 7.431597072470262 -1.2729722013160398 -1.3468402522501 4.558632753642085
Ni 2.7906332705505807 0.5036264716920896 3.8486070937519896 0.10106260907098077 0.6346441623532748 0.26789660811081606
Ni 6.445379105332263 4.272939838507558 5.478671198827457 1.3025568569516923 0.13874109745836102 1.0116568459671673
Ni 3.893134064169609 2.7347731046779535 10.27837324973642 -0.6351033613778804 1.2643137543100935 1.324442344170874
Ni 8.516766794885784 7.0038393936370635 0.35850596416886826 -0.9397235501619752 0.7438350569583447 -0.6608763565769263
Ni 5.862744474955034 8.543240762480893 9.682804168263596 -0.10944569092835345 -0.653005695579598 0.47734664204896493
P 1.5263481665941943 0.0659870003977058 5.758385772290782 -0.9826722858093592 2.7727329278486765 -2.1592931674871587
P 5.563067455509794 -0.1576770283587371 5.321460692859591 0.5173725476225993 1.6818243980380323 0.7070217447847371
P 8.642539346525773 7.890279059766638 4.262068453096038 -2.7307367859225486 0.8060745225145408 -1.5933380829701655
P 8.848271008552699 3.8084531817053673 1.5147736989531997 -0.2165812456662915 -0.6691640505070152 -0.8904804968654471
P 0.9856440032268042 0.8469944911292867 1.6976127773957468 -2.7478104535753833 1.958485896825672 0.624123465327609
P 3.0217739096641614 6.498440136859662 4.969423839177474 1.2361995125723808 -1.661986537376499 0.8135065533125538
P 8.891973318178373 3.682039750821353 5.224144122123808 0.35732960336266845 0.03402520790550914 0.8051653804367102
P 0.5443430380161871 7.079208677673406 8.96802683505466 -0.6208501938929759 0.6590439313538778 0.6185225742010638
