# total energy = -340880.12679972575 ev
CRYSTAL
PRIMVEC
9.17317128436660 0.00000000000000 0.00000000000000
0.00000000000000 9.17317128436660 0.00000000000000
0.00000000000000 0.00000000000000 13.42586341303241
PRIMCOORD
 96 1
Ni 4.5507000634815 1.8165355369834608 4.1936756609143515 0.7803917730364559 0.37737160961520816 -1.8705225441408109
Ni 9.12366341302126 6.280273939223801 2.582934711794676 -1.2228344041193844 0.3252358081519173 1.3818928729788589
Ni 2.7345864923648215 1.6583717223083465 11.830615727697367 0.9859239599774375 0.2979862284073449 0.9523816052456178
Ni 8.115164991412279 9.129295740025698 9.956311228917249 0.7025590810276934 0.5638930597816417 -0.4985726413072769
Ni 7.159559073887319 8.163571814868988 2.049955129364941 0.42174885017900265 1.1453449543826533 1.34282958842881
Ni 5.256722343975922 4.941174434162139 11.86442161484632 -2.261364420328312 0.9514773482637935 0.1444348054090287
Ni 8.794135590577568 0.17195751193337708 5.8482524423729645 -0.08931266762390425 0.2818109041990631 -0.030955053620617658
Ni 6.300179720330691 6.036616170670246 1.7856531394376285 0.9901763074958883 0.14921088664143337 0.19608595392641714
Ni 9.3939692433792 3.8176536211709955 11.674942428953369 -1.282687628831591 0.43555104616941764 0.9844900557443884
Ni 0.5630097923880875 1.3806081039135862 11.362791344367182 -0.20602918118205807 -0.10500668132039336 -0.2741523592125407
Ni 0.728810271934854 7.203507736229766 5.345520474054686 -0.9803863179886599 -0.44634659412302485 -0.3650298002204036
Ni 3.5668958182502837 6.068483766783305 0.004700332829110804 0.6636883721044247 1.0734869919000867 0.3854816403168523
Ni 3.271015187096948 8.819811296254152 2.3583066865158884 -0.41119652858445316 -0.06006405517143205 0.8874280831923684
Ni 2.6776302735202684 3.3030937661433972 3.7809242444189275 0.00023936970431571682 0.5102081686636762 0.16954188488930158
Ni 0.546542115778369 6.135163546905877 7.498921452978337 -0.447040791976572 -0.2828434592286354 -0.9412068195757209
Ni 7.408280432842258 5.850465011222266 10.924906356602278 0.12413080374435397 1.167324801087854 1.0063495748216411
Ni 9.190783505352648 7.122545328833724 9.542257222137412 0.27879654285277145 -0.6009182308557393 1.5660568786567095
Ni 4.879484859072814 5.5574280630842 5.298274974048729 -0.12439845558344381 -0.3173222097317954 -0.34787128616324603
Ni 6.380591737465713 9.09158483397481 7.537145139289074 -1.0301389639317549 1.8288778720168308 -0.7018947079708171
Ni 8.584959771876916 2.5965302685589715 0.3869399478877893 1.0226395702309161 -1.1173968059091595 -0.24165644346736448
Ni 8.253542276203724 2.818438448631219 6.471198816869029 -0.8599869562622802 -0.5226438233238676 -1.1071561020177578
Ni 6.878034455375589 8.291271528596646 11.855547489204474 -0.6529370471251917 -1.203616950650669 -0.9589633722281937
Ni 1.041760339716623 4.995259450478372 9.58936879384652 0.601129832645913 0.001574543575971482 1.17329490262836
Ni 5.896220788255062 4.272991484112842 7.267594260905834 0.008258640464366421 0.16209442747232083 -0.07743751345287309
P 1.9014515810878296 4.383436463157522 5.625973666191631 0.6853247194272778 0.12284730904624006 0.11411430004861636
P 1.8667494751305187 6.907608758734398 1.764534665122291 0.7383334104138252 0.13210867974350796 -0.49886214752323765
P 8.311617621912351 0.3172137576704705 12.704410719507214 2.7626955982173325 -0.6469144950801956 2.0539095624433203
P 2.473435486681848 1.051410515626507 4.08755766663839 0.289274816676276 -0.4333447825467182 -0.7254650390915893
P 8.988781106387291 2.9089593002269747 9.84029813506525 -0.6866452380109143 -0.9015395828930861 -1.4603575421446657
P 1.6589221125693665 2.67765779303332 -0.009557526882612308 -0.46350305129765335 0.04305235110478391 0.63285930253871
P 4.739172035196782 4.249077027271523 3.218823513278625 -0.0014434173147459012 -0.18116352828862992 1.2015184162504278
P 5.319154945917625 0.5735149078367558 2.411177174989469 1.1372521500721897 0.024301038639209762 0.19192410923924366
Ni 0.8172295500506155 8.807299090986964 3.585417367850708 0.029467927552129895 -0.06964732798449295 -0.6291553713245617
Ni 8.319534068500023 1.097533219499983 2.3543328688313236 0.5742430355573982 0.26002594711348764 0.27166018891830634
Ni 6.960409531108249 5.851198864903625 4.235470462702007 0.4557362628680409 -0.6969432775028126 -0.7728049618281336
Ni 6.528674237193144 2.6643933877427375 2.386138087381466 -0.7935979873140849 0.44021811262778376 0.3043849328448371
Ni 6.778202835197578 7.407821774291407 9.026583744148349 0.0041546455983218775 -0.9664684223559871 0.69999312007273
Ni 2.216485793324661 6.000317932955978 3.9552860444758604 -0.48494270922866806 -0.8647082729973496 0.007573441471883732
Ni 4.000429053684721 0.7839859782850075 6.146010821633481 -0.3910725041410684 -0.5064484445109277 1.234010732451178
Ni 3.4837043302971105 4.444162855290062 8.092854922181834 -0.42526843329648695 0.4172689600307781 0.2960031365390451
Ni 7.081935700741465 2.076622454828462 8.688775300227611 -0.6878482571800799 -0.3008404100266884 -0.19373185187194378
Ni 4.030645479014718 3.240826281280001 6.2142812296104015 -1.1700157176564558 0.26370133908254584 -1.5731613509119746
Ni 1.5987185911847954 1.3158088238494983 1.6974989659642583 0.7148985764296526 1.1130027906065219 0.4113338254932658
Ni 7.964449791602969 6.891858424098209 0.13466306784666182 1.0052712541557978 -0.17499725157691798 -0.44886241856634307
Ni 4.730319925165378 7.526183199923759 10.339941496702103 0.5215315640962953 0.6842646535938796 0.3468842396596284
Ni 4.228180543694797 1.8459814159480308 0.7219450707457313 -0.8781785395696424 -0.8966701706159266 0.8158709397796724
Ni 2.763968159132273 6.506227487714545 11.217335123501917 -0.9122207167560161 0.17566368151632328 -0.887205425658601
Ni 2.8933190436429896 4.005841224584751 1.3416303829452514 -0.5760921729509949 -0.005226024285629709 -0.016356329870836347
Ni 4.781065907231421 6.601922007763889 7.886069631848211 1.3459647916236819 -1.3380522216448245 0.29479574649450524
Ni 4.498935859432569 2.103930984946071 8.384115944411008 0.05395974204590706 -0.515950470464092 -0.13763937975375004
Ni 2.7065165890528013 8.466671731612701 0.017580382254080516 0.397489977631638 0.26464827637684746 -0.7177614997997445
Ni 0.8277108152546396 8.085168722186689 11.7562763497756 -0.2662953250619672 0.9043857940926295 0.6318786837929956
Ni 5.113116351704788 0.6111294955919644 11.886883041398544 -1.3873610951822817 0.12846799766712713 -0.7188187374196652
Ni 1.051382996113456 3.8282394605246135 7.580779161865638 0.43815428812021956 -0.869837880914431 -1.3161842179271397
Ni 6.7307225020135855 0.6528050461563988 4.498630392837703 -0.39359835588671566 -0.30042054888045033 -0.36791534929831476
Ni 0.545771569412941 8.595086952679685 1.0350978656069758 -1.3715184717230702 -0.9113660820652046 -0.4022411191633782
P 7.898980870054639 4.355173923254145 1.6596247774692687 0.2506324217137296 0.5996496485559608 1.1207574948512764
P 8.605654445691268 1.8758309144373488 4.362894981299154 0.2915831530944785 0.527583169607014 0.04576023695425022
P 5.997731098729184 0.4924983787317135 9.757514853222332 -1.258317941737975 -0.5925649737950375 0.48477327353033933
P 4.818143864482136 7.87760738158503 6.157516730040103 0.09598596587902179 -0.3257459150191164 -1.0304500674142703
P 7.8846982427811705 7.673862080126442 4.211182657800296 1.3418885646717793 2.3261305089611035 -1.2542841379882335
P 3.112539484607256 8.866429351362545 11.213965817787374 -0.2415703115114614 -1.5355525394202652 0.17762954699344247
P 2.7050213621770305 6.8082082775941855 8.581247389566338 -1.2450376796893008 -0.4623802505471198 0.12311804620912345
P 5.384486269900699 2.7387327656645057 12.641323153154897 1.1610433389545165 0.731582721953553 -0.267524569483378
Ni 1.4606073283528433 2.040397602482329 5.742563752500599 -0.1791444409760721 -0.058450173717092886 0.4895904924133246
Ni 7.409261962141077 1.6690492933721346 11.399953694791252 -1.1878643158021027 0.3802502167145838 0.16069060514625874
Ni 4.419899817950097 2.7734807374769015 10.686060833564245 -0.4680317924059424 0.7009436569114573 -0.3107905792608648
Ni 2.950119318580254 6.193348970666708 6.365671574806562 -1.5223432398188428 0.16059238900549763 0.37111740117538017
Ni 6.617232030191262 1.086681358186872 0.3825258179944089 -0.24629985577664676 -0.150117971836735 0.7815603394232604
Ni 1.5650530535524056 -0.14218231612929672 9.573365279690261 1.0532220710034637 0.19147339485507023 1.3434762208738733
Ni 7.322447071636189 7.311659422520196 6.285331108405473 -1.2919441144328525 -1.6610596546868552 -0.9546598597568332
Ni 1.9977240109112449 2.5647268846430324 9.330101957490436 0.687186712336681 0.4316625097482888 1.237080115405121
Ni 0.1015653495002241 1.178605704948229 8.170228785076025 0.5354049796442779 0.5191077851461512 -0.531508215693033
Ni 5.151047413860082 7.471520273833456 3.8664337926880967 0.7071994080131822 1.379092427415586 0.2232198340287317
Ni 3.8051781085878758 8.715567380816964 8.410793360362646 0.64303238641697 0.2604388662811902 0.032474318478621485
Ni 0.6685984946963677 5.308018716302987 0.6131998802905013 0.4907220349146064 0.23171912974899447 -2.0089476530206496
Ni 1.4826229387936434 8.390956378038384 7.31258407815871 0.4892945584394606 -0.20730624812226878 -0.8024595514697728
Ni 2.946239067240063 8.157893622009464 4.897271637674778 0.14280858265951535 0.06758144659439974 -0.27233613193940837
Ni 2.313125149988756 4.451492218932645 12.347913774273541 1.1800638459210775 -0.5471559495326189 -0.5399185512439153
Ni 9.252610678007228 4.144557916703825 4.376267630007737 -0.4543198421364885 -0.14816624742700288 0.7430837806146171
Ni 0.7796479857110682 3.62121016384194 2.170116331150828 -0.9997307839535429 -0.8236801514114459 0.8879060512700514
Ni 5.055123564535314 8.211519979774847 0.8082453463565656 -0.5091414179620586 0.04603740187503685 -0.30651534892427856
Ni 6.392379262222558 3.6213844540912636 4.7705048354395485 -0.22355304899843437 -1.4714536520578272 0.17970288458270342
Ni 3.9168706388908676 6.1849830386992055 2.316780658639031 -0.05379030634757833 -0.2265193307156099 0.3277968840108742
Ni 6.645595474975826 3.5884252506271825 10.66611010391937 0.7040415791104907 0.787231935886741 -1.3615757586880617
Ni 7.925463814780718 4.217558011657111 8.352028192193542 1.9984737500725192 1.5746705884676493 0.826357698243609
Ni 7.226229680838876 4.3147018927271406 13.077489088671213 -0.47531649899281364 0.6580255173916926 -0.658086195426299
Ni 5.1289217253670785 4.261580059367693 1.1220063224562373 0.34659396211271926 -1.1363710330188173 -1.7275499250996054
P 3.204206982580137 4.593960737997673 10.162438802888952 0.33619950625227263 -0.8499172307311039 1.6706167022476712
P 8.485440039513483 8.106156937473585 7.777562026522322 1.3807006524429706 1.576843941969884 0.7881169095948556
P 2.479012774660184 1.115769483481779 7.835279618561286 -0.6633086201675028 1.0384377136054375 -0.6980089997631655
P 5.880121873120227 6.700496903512572 12.989321155441319 -0.6261248120283539 -1.2496610373939252 -0.2285754419136902
P 0.11804953781777311 6.0946456505237885 11.837019518384336 1.3896198093094714 -0.7969388787618599 0.40778827423385255
P 6.26162488254624 5.286590188807275 9.271135896876059 -1.4872985895098838 -0.08022330372812635 -1.227171083821525
P 5.886744902594501 2.07601702554134 6.569100401865063 0.6186297892028894 -0.17201862856456823 -0.3633716957916903
P 7.866296861721068 5.055857418216673 6.079781444207842 0.013290546461319048 -0.7024786054987451 0.7040747463412712
