# total energy = -340860.2991568437 ev
CRYSTAL
PRIMVEC
9.33690545808335 0.00000000000000 0.00000000000000

0.00000000000000 9.33690545808335 0.00000000000000

0.00000000000000 0.00000000000000 13.66550492677399

PRIMCOORD
 96 1
Ni 3.0232992810005412 9.133370125398038 7.063234426599247 0.578419535532591 -0.14009324061088133 -0.524000337351762
Ni 3.153175634065286 3.8687000367082534 10.291341526965791 -1.7823861562131948 0.29600467920094187 -0.4348817880165349
Ni 8.190099928078201 4.112234538288968 10.761694668524648 0.8031640337359651 0.03714601292267797 0.6312148249567516
Ni 3.385963357617423 8.20755060412982 4.403558122392421 0.33179572075762215 -1.470515970734906 -1.3014857353747007
Ni 7.773039041040384 6.9010281051576525 7.150516751263844 0.4528501995694975 0.20785415020593878 0.798027226730032
Ni 3.127265721789609 3.784873300704279 5.874786432361571 1.5985111425306728 -1.3683755552187145 1.2366587115969863
Ni 5.210534711617939 0.2834945889888025 11.585997752960965 -0.6620922312618984 2.2695621256477563 -2.6753377403269534
Ni 9.264665688072117 5.068903194749561 8.555521192837428 -2.078589324578188 -0.055284631504917685 -0.4011522569745736
Ni 8.389368161515138 0.533515438698495 9.957820732938485 1.4845804192477723 1.109285489655935 0.5823412391845003
Ni 1.2663364584552252 5.11695090954979 6.482150256343674 -0.4780069013407832 0.5213431022345731 2.657824671143855
Ni 1.4195644117367157 0.6428337936196057 8.486169461158132 -0.8559531525125388 0.05423202187068725 -0.13516957805701882
Ni 7.655888889933026 0.8142182929952516 3.046574318593625 0.995200500183357 -0.7276638465151211 -0.05950355468227172
Ni 4.323883508186283 4.4698566860305835 2.6038658863197512 0.9098118502042073 1.6478251582744525 -1.1941000122991694
Ni 1.5622416620014439 3.2352470318682416 2.0651171121868357 -0.537042515247701 -1.5805036502096588 1.8492754618365765
Ni 6.918712203842384 2.219270352785991 9.3349202984963 -1.416365967055064 -0.11401119881184882 0.7467283193457398
Ni 0.44436386558791957 1.7157403855373468 3.834117073076585 0.2566341478231193 -0.8422640850612204 0.06418913308339913
Ni 2.6402153924388285 5.672608819225498 13.450532929131695 -0.17077729995829946 -0.0025618471899052655 1.4270563568893746
Ni 6.6379234500166415 6.549008100610778 9.520224256329811 0.1250710561704362 0.6216487785348713 1.1982070924890074
Ni 3.458660502474512 7.200341279147338 8.762144106598527 -0.6266637152509594 0.957084667148242 1.9364494858509231
Ni 3.4624886336575846 2.0783484407222814 8.06233371561681 -0.8992117060908578 0.638353749994378 0.46069643508679364
Ni 6.092003932594457 6.969850434305045 5.206024052655639 0.01780077562684676 -0.3543381248345123 -0.6179057665526713
Ni 7.935323792486705 3.1017666333482126 2.9004760262179747 0.30612248436123407 1.2167059226241432 0.1287842433559653
Ni 9.05740506367735 6.718127466754684 3.0267586044232937 1.007935174141206 -2.9971974329177864 -0.6547579023840143
Ni 5.666614526007126 6.290375823120235 0.44412110604948085 -1.9885089255503239 -0.9111516520615535 -0.8477261366170562
P 2.986166408524733 3.279746722645134 3.8193853038554813 -1.2202728140397954 0.7760306678542829 1.379298372778805
P 2.2350497227845114 9.035332619490072 12.55623480023922 -1.0065143825342795 0.8649108759264588 0.12720147224987768
P 1.9562123821716033 4.231672231200847 8.515304340532914 0.035250595672178 -0.9177938399684193 -1.443412943870527
P 7.3776771219768635 1.1454328714073903 12.061079103376182 -0.7366362252170604 -0.36060853122425635 -0.2538028490219113
P 1.1700449538429523 6.092676189777827 4.657217564107098 0.4153630012573169 2.568223268634938 -0.7798592975717537
P 7.357425374327875 4.667537645562343 1.4930113100913673 -0.8937684235880994 -2.6773727684791115 1.0850050198420151
P 5.937534170904799 2.044268736287607 2.9956695107640785 -0.5873515479148981 0.48882841743631944 -0.49461262821826424
P 4.28567689159815 6.922409618350914 2.508303594013327 -0.26298168730770194 -1.440267713373326 0.7219603683724405
Ni 7.425622130818522 9.150325945467454 5.599809902100372 0.19600136463241083 -0.7476253772387125 -0.3773081033671244
Ni 2.305020491286826 3.0619167214229552 13.614463776986739 -0.7481953908095696 0.3560851894326061 -0.3193749784957661
Ni 0.2425233147340643 4.514459082766047 0.7511026803822348 -0.31846557930761926 -1.2241515802689111 -0.8450161938850609
Ni 0.9923916562323912 8.269538318579627 10.757607905064082 0.7691899907833656 -0.038019416666566774 0.09668864837300122
Ni 7.3536999491033725 3.3956457284390003 13.075373272118945 0.09254428718732449 -0.0718762173150117 0.2491103286422484
Ni 8.026255913442677 0.5171329046160076 0.6903894535092294 -0.16833166663128432 0.40844030599555464 -0.960833592667713
Ni 1.2660283405795143 1.2663364584552252 10.725958597085393 2.673808705276937 -0.06682502804434944 -2.6526518686936638
Ni 3.5315070378167936 5.6401163886960015 4.528775359700207 0.16341931693133147 -0.044631779776761846 -2.3157491657267792
Ni 0.9105546147530825 4.042739951958207 4.510518908719078 -0.5332624793799783 -1.501823522598936 -1.6170827348852732
Ni 5.313642157117146 7.013556488129349 7.4913884908531845 1.4354502373800246 1.5296333457223528 0.3146495479956387
Ni 4.034840930053622 7.658251126980141 12.913246314372609 -0.4523935716480531 0.04279652634023598 -1.051168016687912
Ni 5.756528924282719 3.699188520540716 10.583564255052 1.0661593478904219 1.6476220411247107 1.4245600728300822
Ni 8.99806903033972 2.68126042824563 8.586910934848094 1.698085597091901 -0.11985377363555488 -0.07758663743622767
Ni 3.625763097068311 0.2683342558133009 9.877440248689808 -1.195436985943038 -0.6286635192898077 -1.0614295465149204
Ni 6.705242537406779 8.847044586714826 8.824882508236431 -0.5920895768205158 -0.2887945346057478 -0.6195438163767266
Ni 4.6333178875478005 5.150507747286289 9.01848137276029 0.6561969488233861 0.3436199670860598 -0.8255583422707654
Ni 0.1859799497790111 1.3282027931358147 12.490736409387374 -1.834816863209085 0.20357557743524296 2.0268602716350124
Ni 7.9489650111659005 6.1144872006160185 0.32824264144732856 1.0443947025198208 2.6811803151506597 -2.1453423617340213
Ni 5.307190355537869 2.2960383883645914 0.7610782300310036 4.225333451755743 -1.0498852933207468 -1.4256160248984222
Ni 5.4258437484024835 3.2918286781351256 7.475126402849383 1.0468894439172163 -0.09487962018872047 -0.13533027200459918
Ni 4.382145797411589 5.106054741036019 11.943938289174147 0.6579761522109959 1.8663370453045534 0.5617593012680907
Ni 0.9555949123482675 8.424885749369796 4.926482709381259 -0.3150035889009479 -0.28851171325800634 0.1795948982499294
Ni 5.697622388590018 9.10715209524665 3.56057469147324 -0.20217021244728406 -1.3672589251157679 1.974388426988542
Ni 5.997028931632949 4.22111219127876 4.9533216437367305 -0.6831606218964235 -0.9151288915417466 -0.007816410720625248
P 4.450865420600412 2.207216408011973 10.091346882294603 0.37656556877414504 -2.2844935501466077 -1.4317648181086375
P 7.627952869201917 7.9977503414867686 3.682717285857645 -1.3884093339411379 0.5961056399584442 1.004328430626554
P 1.3490707765362249 3.1204777916186477 11.607466099373745 0.18486720239246227 -1.4998239756704042 0.1257734815540995
P 2.706236649988851 0.3807225852051296 2.7918486022908824 -0.9820385088801024 -0.21434978523261147 -0.9894530561766185
P 7.115366103788442 4.592450252942165 8.958817614045767 -0.12530734055095838 -2.0924411428596157 -1.8014827678333298
P 6.579782540560554 5.645559804500224 11.928578146224702 0.9990802948537376 -0.07057215379160749 0.2587511941661221
P 4.962098334741825 5.181254176520092 6.56090425168481 -0.6134711278200854 -0.5417237227734542 -0.6176178029986072
P 4.876562945063454 7.732703610038249 10.50049194099825 0.32902921375607846 0.43309204310596383 -0.5845824698101932
Ni 7.837967880667432 5.322334815974319 4.24192321955669 1.418058010045506 -1.215223424541346 1.8563899613941708
Ni 3.302864900228765 6.73021875915 6.39259999737574 -1.2900111590761978 0.7664430241658478 1.1713670894780277
Ni 3.808084847341156 0.7229668498771807 0.011139861742742443 -1.175228372205647 0.14222777045538085 -1.2274366787780862
Ni 4.766499505097443 8.825317608024557 1.6327819817285574 -1.2212668025219484 -0.008190506230592346 -1.1710287323020026
Ni 0.10630626926340486 8.680726292168291 2.4411787142539407 1.6433169859914538 3.179162888282421 -1.3225263580950837
Ni 2.7564785375403527 1.0041654938466718 4.860465186593366 -0.22348928564003445 1.7353776486741403 0.02712282435872103
Ni 7.478226255417139 1.290827161121568 7.396700132885139 0.9258951289193151 0.11322289858259856 -1.293415042551424
Ni 7.464734427223138 8.223385995560287 11.36915372894106 -0.7281952935385587 -0.0334708780639359 -0.4594031701966668
Ni 8.100260225045204 4.379774223459148 6.754094159755453 -1.3049281853973462 -0.25084762304832925 -0.7376510396348199
Ni 6.14318884758374 8.800808231547563 13.206521311688896 1.1777321124641071 -0.7292268201268667 2.8877828523376845
Ni 1.464801718034249 0.9060831707931467 0.8216065861785825 0.2331700032629081 -0.7418434804496127 1.034514467291631
Ni 3.991863154844634 2.7660395285927106 12.168612241999234 1.115060444466499 -1.6828204434027147 -0.2958388430470389
Ni 1.6880844719659756 5.477896995586951 2.5278177261416745 1.3351365906599264 0.6768166819562667 0.5093825874385872
Ni 0.1254786706568734 8.180464241783246 13.096896706273139 0.44252799170788304 0.7647543236095151 1.424673715589811
Ni 3.772352510664033 2.3064583747068097 2.181615547302539 -1.964234112163359 -2.8304647353425056 0.5405803531976303
Ni 1.1896804657405196 5.0768769118967425 11.691618693373545 0.2956429249861489 -0.24910595776687422 1.4198019893198066
Ni 6.357657562889075 6.085869585796217 2.713640815911233 -1.1925169840827656 0.25099006216346453 1.1509795269606111
Ni 2.4440190008536744 7.805214016788846 1.6032502838774803 0.054143575921939004 0.1543906310701599 -0.2851165715335283
Ni 6.94386582678677 7.963838701347937 1.458915732917641 1.5136685948629802 0.4668105184043315 1.7255547490464476
Ni 1.4212917392217608 5.988513673976942 9.688009378702835 2.329460344665285 2.115327560539486 0.21002287572248343
Ni 1.342450910661106 7.451756128821988 7.82947316420314 -1.6604176502274823 0.6055544440761701 -0.6819473183146126
Ni 1.2041059844669775 2.327550443835009 6.123171456258399 -0.8449259481640997 -0.4900985423979947 1.6506405162360605
Ni 8.855867962246544 6.419551908285638 11.8289430958157 -1.5292247974300244 -0.6253887051932778 -1.3199472845139977
Ni 5.185642522022639 1.5745196925032512 4.929584429330081 -0.2251643593496122 0.553286230800073 1.8505638416306966
P 0.7801161799877984 6.526300746861428 0.8220650282300189 -0.035442914188642184 1.6361515785912661 -0.5095461095996451
P 9.02053362455063 2.345626692543374 0.7349404972654071 0.9763504573563895 1.2437426150269615 1.1238477037408259
P 4.3164046470213036 3.9961487943886107 0.2617956210145057 -0.9020502039809174 2.1890824829344493 0.2779843313641212
P 4.845741820587055 8.747755935493368 5.906122020321354 0.854904142422734 0.4852011050963773 0.17313731555004375
P 2.5441106259330466 6.810609513994533 11.346071965288196 1.0534943508282437 -0.4743970725023378 0.7004428060156388
P 8.289416590015634 2.8869617894511945 5.236840508679377 0.30360820257981264 -0.1558934408679315 -0.6467399171755444
P 8.767839618846514 7.741779082013729 9.447291821458544 -1.374791228937071 -0.917077530627685 -1.5205226416703361
P 0.2990405363542087 0.32649010431790704 6.626006757750894 -0.5781094604913398 0.05331619492463721 0.16896595778117351
