# total energy = -340854.603136229 ev
CRYSTAL
PRIMVEC
9.35568433761000 0.00000000000000 0.00000000000000
0.00000000000000 9.35568433761000 0.00000000000000
0.00000000000000 0.00000000000000 13.69298971515672
PRIMCOORD
 96 1
Ni 7.928034888775664 2.4751865999399736 3.4415820031142395 -0.9462122432101125 0.37142721910631515 -0.692265155300853
Ni 3.188725925263512 3.17617995270282 12.59524988513238 0.04201593942046958 0.09859280737424955 -1.5333380482674497
Ni 4.859323680893627 2.0849797218181645 6.523436076211236 -0.07692843502693848 0.24216449345203458 1.260105886876333
Ni 8.170983297020296 0.3074914026530612 1.5733931319848242 1.1293058986419195 0.6850385556454266 1.378580006555542
Ni 8.674244263451875 4.86828642639187 12.300727331967487 -3.4720997271913174 2.7090423316682504 -0.053935830786507113
Ni 5.144316534095568 7.775640148252835 3.9947658361983986 0.5943742590896345 -1.2951253403743113 1.8024160782808767
Ni 1.3824426811563517 8.306388114970256 5.505882856065217 -0.4178829394656932 -0.6809906108282981 0.1381919098231104
Ni 1.5330317746216016 5.7795581380466725 10.75133807902738 -0.7357803049746683 -1.3798707003425075 2.1101807262312238
Ni 2.854681219611378 4.611229646319106 1.2600207462209123 -0.49981088458975215 -0.01394077845080825 -1.265280489098737
Ni 8.710759499025613 0.7177680945982831 10.33026492747363 -3.481412262841494 0.9349664950929639 -0.4657468530265076
Ni 8.364702094814248 5.822266836584749 5.707594214902122 0.21533066108864204 -1.5171164442022647 -0.3555054056697361
Ni 8.717504947359886 3.140169924077836 0.7802144801693879 -2.0888333709036995 0.20724942674240437 1.8257686369638877
Ni 4.541221061179912 7.623217340677297 8.508837637293395 0.5216004696610178 0.5296439087907846 -0.3597438692311159
Ni 2.984510049756586 0.759471992649395 5.894270989171516 0.7307381145650705 -1.3113610855068836 -0.10102275697198086
Ni 7.909389010092994 2.1117089116808767 12.402316029245842 -0.7420170299129994 1.1010615590842456 0.05272149876343178
Ni 0.50793600184439 1.359006692144768 5.934541596397648 1.6844394670633764 1.147949996105668 1.3284332104978216
Ni 8.64513872979318 0.298969309882342 4.529367409252695 -1.8123557059920916 -0.5810436034189994 -2.0122566627892247
Ni 1.5030748736974135 6.547332364887238 7.053724678832661 0.7214345777759574 0.9204279351571568 -0.25911346260154733
Ni 3.5972138103827795 6.89022754782678 1.5674634993159455 1.3480458425224269 -0.03882674305921055 -1.8745766596055262
Ni 5.498167223275654 2.8108217719122544 12.80184958898268 -0.17604729010798711 -0.3823657203956899 -0.5854119076900242
Ni 2.313408108128275 7.061183965874152 9.195801205975693 0.7161548174342569 1.628397131456828 -0.8064712437323271
Ni 4.7013061741448645 5.119785930028353 7.903223614181364 0.21385819030817363 1.7874859393336053 1.456085654242189
Ni 0.3221208860931464 4.26524708758163 3.0003800969263867 -0.5420790492303439 2.183419371111401 -0.7177959525821058
Ni 6.080979572767314 0.07801424414007695 5.435212824050526 0.23637694023598 0.3943342056114757 0.765727743266378
P 0.6174751595866357 6.401804696593751 4.135639051584395 -0.8045987092999628 0.26675760941036636 0.566464934273876
P 6.5007410573911555 3.5993469063886243 0.7491405105474023 1.3979632961781603 0.5879555000474841 -0.1988511753763801
P 0.17968433587128738 3.5066133642397954 6.229953875133401 -1.1807896683435084 -1.8662496277970695 1.018622221541407
P 2.787423205637616 3.2018800172995547 2.899312511259985 0.49323965913013773 -0.9526382013411142 -0.26405949375291293
P 0.5042105683815507 7.66074299014854 11.001290152491205 -0.030327190228631642 0.1954999995159601 -0.19516986987005097
P 1.165091424981856 2.189969210316365 11.19467588792635 -0.07803220961407853 0.48887598284480327 0.8702631413773076
P 3.4331338202489854 5.1622700921447615 12.95406095809448 0.5803946569810906 2.1731573270637603 -0.07047985118811732
P 5.628566750159269 6.004431364347043 2.6244116346435913 -0.9113763664778499 0.5506333665582582 -0.5884218981609414
Ni 1.6590247742299837 8.872949640943702 0.886442661260456 0.020835705798428632 0.17674251640279884 -0.2652625129220786
Ni 1.4554170181984087 4.8470583788600194 5.409634383348862 -0.7011475453921473 1.101256191593555 0.6727191148481253
Ni 3.0088441844548415 8.287377364602378 12.56290728472797 0.7682101433685996 0.026093611763258286 -0.8078187588991571
Ni 0.842107009233712 3.7009402815090984 12.845680969629095 4.139412840532523 -3.1537094812063233 -0.49109638753488977
Ni 0.1987072486286738 4.914325748518018 7.921750675674233 -1.1273526315702906 -1.861119762769672 0.5877523828977427
Ni 3.6889930727395206 2.2549257259680315 0.9931264641738252 -0.4949504711736572 -0.7452612478819101 0.4374685749071046
Ni 0.4800158333784144 8.245351631013541 2.943321649906887 -0.06235773630161519 1.6234966088314167 1.5429125793297622
Ni 5.753390289238131 3.5468240950868157 9.486954777247146 -0.9523911183273145 0.2625615690511478 -0.5619274514148387
Ni 6.6561389725537925 6.777528975517983 9.029732197373292 -2.3421605658407727 0.9828106111594364 -2.910307258692446
Ni 1.4341515479296145 3.6691777335273312 9.691185621848849 0.16815606028536847 0.14885016086790495 -1.1150915548147504
Ni -0.12725788811711114 9.724204638223533 12.757087317754767 1.0196810018232243 -1.4714209990476788 0.4142440571615253
Ni 9.172518650185584 2.2679862611617128 8.126638289309316 0.6647821193892358 -0.15685529056056854 0.5174126568319154
Ni 7.6833931016842865 5.7292900466457795 0.9441756531133828 0.4874965859987734 -0.8398657600323729 0.1907642846031876
Ni 6.574314158224326 9.069596767903574 7.8128224441126095 1.019568130394444 -0.9645025568788679 0.8172883889524891
Ni 5.246190579743127 7.669294085540391 13.051883992467781 -1.0959257805195772 0.4504780997928952 -1.598083568074951
Ni 5.1380950040785205 3.5325940993636147 2.3467049883247726 -0.1697812545936173 0.6944102266683138 0.12344457631060676
Ni 8.609297103484446 3.2675101422162247 10.362648692888676 -1.3280169488960096 0.31119372823655433 -0.09216916323609287
Ni 2.5993833081750126 2.3637229779503497 7.800061290814486 -1.1769139874381862 0.43683942596353803 -1.0469665770120549
Ni 6.137282080500531 1.755360254809735 10.772452922779973 1.2061777693993097 -0.42992058735651767 -1.347790274868195
Ni 3.8450178187459803 9.484699121777808 10.462703993520726 0.6717912037172172 -1.1482346172256226 0.3914530274089388
Ni 9.147557684643505 7.577159307182677 0.8176465727982687 -2.9957139063937244 1.2381862039851061 -1.6381794076545724
Ni 1.3852868091641448 0.33975541530988645 10.29751161253125 3.5539945050845954 -2.0597855616081233 -0.5258062802122493
Ni 2.9997411036930566 0.16840980079828957 8.334826588342915 -0.8446539254496357 -0.5420937045183631 -0.897352541394932
Ni 7.890696352989145 6.162551783622401 10.538412061496588 2.4157668784730135 -0.42997663740543374 2.929984425406399
P 3.6039686144012877 3.908178043024304 6.734102695998994 0.29549945742974915 0.3387628961040747 -1.026989876779812
P 6.494472748952927 0.2693903786012949 3.3644771314819173 1.8686132429332398 0.7742239536628472 -0.15547332261137742
P 3.39461646824871 4.6791519138736355 9.881326805990895 0.9110976588951664 0.15923407520539026 -0.38246007988170905
P 0.44997005345398283 5.0539686914269595 0.7615414700024338 -0.9926548509433677 -1.5555662635380305 -1.6373265727359738
P 0.7003272280452315 1.551172446355518 0.9829989359881808 0.5957868231664448 -1.5704976880368824 -0.29566940734871017
P 7.140716637565758 3.893789000669088 5.004787730534308 1.2961591809554645 -2.041172831602943 -4.884305906441737
P 5.098632727970394 0.6044529826983229 12.080544110174705 0.017580946306556818 -0.636434164374162 1.331229028075404
P 6.212033997547459 7.548240887208702 6.261447914977591 0.22060116545896205 -2.103277057132855 0.48779020597979217
Ni 5.808083619282729 2.0299870098780093 4.359861122261928 -0.7899110253808009 1.9553362954530973 -0.5484607843869715
Ni 6.792105131557922 9.140802880624996 13.520348362519808 1.1702399178521201 1.612911634226719 -1.900257352201082
Ni 5.864320637226293 8.291606133877123 1.9170320918211412 0.3207307211927121 -1.2282272930001814 -1.5022482688411805
Ni 3.4127664956668626 2.4609846712694807 9.944752731701525 0.43294986110114475 -0.6541251538960219 1.0566784049831803
Ni 5.538817671281774 5.721655808309071 0.1730165397161753 -1.2294665647239214 -2.3366733174739567 1.1398201679096822
Ni 3.029183441984256 7.601727333986836 3.522097021650642 -2.60548395275861 0.5094219253169548 2.478419520307228
Ni 6.746982666486917 8.603786605469347 10.712121857414663 -0.5270401526193503 -0.4923847673290101 0.7204652718841527
Ni 9.145658480743563 7.036905965281314 8.63229337533693 -0.10228285463132707 1.958171450909047 0.7361364027625064
Ni 3.2842848840516616 0.22176526799711657 2.350360254155841 -0.15452869930992097 1.1502099957844385 2.1813642883545854
Ni 6.051518523107641 1.4383990285728314 1.2087141738698046 -0.34055521211780704 0.7477014818922865 1.069808771717551
Ni 3.464690543177557 6.044707584983716 5.662735580126577 0.4768684168609658 0.46125924956879916 0.23760798442960368
Ni 6.536648173489542 4.127493992888393 6.725079138553216 -2.5895814225957405 0.6321800170834984 4.873422426760014
Ni 2.5659554483992086 5.273555956133897 3.4444439069220807 1.321829332028059 -0.09932531466489991 0.8929862940064363
Ni 8.371812414833732 8.011543726267638 6.248330310110069 -0.20210747753014868 0.9382629064560487 0.5708183261465652
Ni 2.342897224840655 1.0945308544727286 12.896674126558292 -1.1128922331705866 0.514482627669314 -0.07187467465311492
Ni 7.559542553765984 7.313525481091891 3.5764853563891412 0.7131296574546879 1.8894546051586234 0.2926717581729669
Ni 2.6938663632760043 2.96290777485529 5.100323300111866 0.31360439456057604 -0.8306128739755373 -0.9054877689075567
Ni 7.427889365194725 5.112104913270465 3.3883986805053574 0.013928437155634077 -1.3634405798109421 -1.0485269795206393
Ni 1.4815287329015343 6.791188274502778 13.248911895776063 0.562751747088347 -1.5430251936482264 -1.190236415578705
Ni 4.797370339881768 4.538526624119897 4.385084046962619 0.6394523823751954 -0.12364923612224511 0.7891381517705184
Ni 1.1548843734802041 6.37875229063585 1.9947946680552655 2.5283781116135424 0.6443529050006065 1.5067052761712696
Ni 7.321178430797071 1.8468307795866825 6.639840435045975 0.20040926389211938 -0.3568711756690112 -0.39332016252466456
Ni 0.8098514166926992 2.2602958887195883 3.4646549915774596 1.9220353673081219 -3.2847784068314074 0.07577041016309531
Ni 5.7199530737780915 5.026294577456395 11.38292722385269 -0.645015992505902 0.5490490527902737 0.052552063065103044
P 4.652815662748842 7.174350322394758 10.655158838374373 0.4483006325256021 0.3677387145111344 0.3797264830006299
P 7.638439038929532 7.320289640794636 12.88193985945476 -0.4389094211186893 -1.521991770016695 -0.7350169444460825
P 6.02878421041377 1.5610520489089041 8.551559433789402 -0.38566521708256807 0.9607253492246227 -0.3470775866173571
P 7.266475745068237 4.725303504210618 8.676261348973194 1.9999904438273621 0.9695306062210785 0.7399750597823062
P 0.16394059043867537 -0.10002910471618774 7.625146482766794 0.11242868481607733 0.3302530588608506 0.2735828598623159
P 1.9327720949800586 0.2753714675334727 3.9725825733060374 -0.892737925441056 1.0105376447610597 0.6955870205852343
P 4.365147083855359 9.262567110958635 0.7592586830488105 0.5224656458747905 -0.30819685039175954 -3.350508144929049
P 3.4433595831191095 7.954399206953165 6.652150644363917 -1.3691939373549518 0.7417236670422968 0.29127616337702095
