# total energy = -381167.85062580346 ev
CRYSTAL
PRIMVEC
9.27402490762962 0.00000000000000 0.00000000000000
0.00000000000000 9.27402490762962 0.00000000000000
0.00000000000000 0.00000000000000 13.57347288511910
PRIMCOORD
 96 1
Ni 1.8579024811642555 0.4311716698876927 11.497029855516457 -0.6993727128799117 3.69874041397614 0.6871522595543198
Ni 7.953950822590543 8.33614265798174 5.996787526756042 -1.1471614387661018 0.6122930483515842 -1.1864388962094858
Ni 2.916040886993511 6.702782864898135 9.672619587458698 0.5166888912920133 0.11661624053486366 0.03059252807487635
Ni 8.068002779389479 4.637021666240423 3.51812170482853 -0.39355181891949637 1.1592929319223133 -0.35475747176011807
Ni 2.9380945179308884 7.970940835995622 4.129593400160266 0.9303583068969912 -1.4645615529236842 0.16548031322541823
Ni 7.938852710241489 0.4139998855968397 0.5903593779099771 0.3218715196653747 -0.409290826921308 -0.7023600776430097
Ni 6.579577445636966 1.4373625532894345 6.2244147554799945 -0.12685360199215573 -0.5073724989870939 1.4455158491461426
Ni 5.2247815350033235 5.074078632256315 9.010261318134788 0.7805979755099911 -0.012436683101456 1.2481877952825082
Ni 9.265186638811713 7.136352797595083 3.685781234491393 -1.5809677343302708 0.3958416433949376 0.7767099533094947
Ni 2.4645906345121804 7.4259620435633025 6.6496714523601765 -0.7064244775203704 -0.8236634392408976 0.24208221815087344
Ni 2.364245686344634 3.0624684643148963 13.177493347882669 -0.9629041020434965 0.8281433293891222 -1.0376596977888324
Ni 2.904031024897672 6.827555594347874 1.8135513124376696 1.8195995320386984 1.9552375650917038 0.15320920916754904
Ni 1.4309820242377458 7.6332921416440485 11.188844737905022 -0.3342390400917921 -2.636960426100336 0.6061969627561753
Ni 5.969847412159748 8.886222164045499 4.2426873501989695 -0.4699750321752422 0.7219914787206919 1.0225634655773421
Ni 2.8677881360401147 3.30137661678663 4.724233667910736 -1.0678688743823608 -0.6907985980576554 0.939929495525194
Ni 7.01182119278974 7.6838633987935525 13.250872214184522 0.7375096289609492 1.0377566283780126 -0.9173099583534654
Ni 4.945540648744098 7.510568971671669 8.974454308442098 0.8168168486327093 -0.495027861378812 0.6036474568614443
Ni 5.604617768099275 0.5158574272067268 10.364988600985026 -1.8797093528464015 -0.9688114686668671 -1.2699701812649224
Ni 0.21805179813402661 3.336831213537511 9.947359789490038 0.2505540030673104 0.3117022924418567 0.37762409194564645
Ni 1.0481317330868538 1.9979680774835207 6.011310649568462 -0.5660437875760574 -1.065397787134049 0.03378121021550311
Ni 9.145820665811298 3.1113333009040645 0.39466539872625733 -0.18317747339486518 1.3897267672009808 1.6988582135918677
Ni 4.345678177637514 4.138997261291679 11.484298474292391 0.13675774847974512 2.6289462975466082 0.4902643785518976
Ni 6.046970202267078 3.6670514140367554 7.21945826109085 -0.02982094001617445 1.41474642917377 -1.2062312483450646
Ni 3.967817311820646 1.9274576670474897 0.7279766316861528 1.1950556913442192 0.11431484609519668 0.1889837956639971
P 7.804407172941589 3.58160982369779 12.065867004109204 0.9246867104335107 -0.49536673277546944 0.9011965977313706
Ni 1.5820744360257002 5.087665078565507 11.391700119027279 0.3373775857207738 -0.5077522509240159 0.039380558680151535
P 4.923023316567498 3.252057352983025 5.38661883190652 0.7978922438140645 -0.353031747318263 -0.5052397689148073
Ni 0.9744217841001942 8.842077806071606 5.415001057356793 -0.38058291746365425 0.3006871722782757 -1.0637060012539228
P 4.888950549509499 7.480966284559765 2.9164507988889827 -0.6813179122607298 1.8425733672260522 0.8256763559058684
P 1.3918363656226613 5.915010103609406 5.614979635990921 2.479428421187717 -0.1896445691764476 -0.35762219490242275
P 5.437527663558177 0.3062116051373087 13.065675503654301 1.1494265806511947 0.5010488707619113 0.5112790331303518
Ni 3.589242346095377 0.1013595264789632 2.0864190888650342 -0.33017746842790874 -0.6450175351677988 0.9284945142153752
Ni 4.675592335318873 7.357028217340625 6.592947807168681 -0.47053501844377027 1.4111484274098665 -1.7859425061058853
Ni 7.14919732192152 5.109542503031981 10.79779249923478 -0.7851927939695251 0.10793593915204637 0.5019284451533872
Ni 6.621792806455697 2.6251240035306855 4.085547346849087 -0.2965376688862764 -0.6377960777186952 0.04740857119095061
Ni 7.662764992408971 6.310222669797945 1.512139015126304 -0.02470624449742842 -1.1561063066642154 1.300310998340309
Ni 5.450604038504225 6.856119590683923 11.461182040114716 -0.5792055217689961 -0.2686275727395696 -0.14845626786359595
Ni 8.78859450513979 7.128460602503532 7.776378287835603 -0.35347654816516544 -0.5405196751630239 -4.3451643425731614e-05
Ni 3.7238919119405347 8.691161600754555 12.190879003398381 2.156470610436699 -1.0536679002916305 -1.248025044452399
Ni 8.228740176953243 7.594610184268185 11.144947996392872 -1.4227674997060336 -0.8569335141479371 -1.0257578041449238
Ni 2.1109813435066003 1.9770273295202752 8.727335861828708 -2.8245573687191357 1.588746349834425 -0.6204038503841767
Ni 8.4455946984876 1.5146893719420227 2.422539423932134 1.3166822406094807 -0.20797164962040957 2.4050338083262255
Ni 2.0488175553765577 2.1945032107151885 2.4676844491802665 -0.0728591500535713 -0.29539507064140097 0.6575889440749062
Ni 2.1880299414156554 8.456797720427192 0.14026035083973862 0.6321077690846661 -2.3088748072044494 0.8732538485745155
Ni 0.07901469116335447 0.05279702309776726 7.636041889992632 0.9670533483251799 1.239349371055272 0.7885748230678806
Ni 6.551134011623116 6.46675893413436 6.977524921734434 1.513840087443838 -1.145992615268981 1.0110994308018006
Ni 5.64556258752254 5.596438078239407 2.722960327994044 -0.21746159138871582 -2.256826166138326 -1.2711132937304304
Ni 8.709060468588508 5.791545011654272 5.712870677200507 -2.7975911245429366 0.00996328186029897 0.14054241233315795
Ni 4.522589474425325 5.3200443175890015 4.937594664308797 -0.004460863984831026 0.4857106977429442 0.02955303106676846
Ni 6.587330530356751 2.680397191245896 10.34631164247166 -0.6996645330887176 1.3429913108176548 1.542458008290847
Ni 6.1683579126704995 5.551078823018754 13.615821782696507 -1.1237787981761032 -2.1340351642513182 -0.8727594254366001
Ni 0.06635008291773513 8.32749926688265 12.909879306495684 -0.3602979419623731 0.8004260659795118 0.8799225188439426
Ni 8.552997179516098 5.67360723847066 12.979144215403165 0.5909770604826274 -0.2907809689081573 -0.8743833341932683
Ni 4.1696293651546545 1.9004053367513036 11.837887362443444 0.07805663509411073 -2.2187082762206822 3.3953870077196107
Ni 7.2300204479178385 8.24589712280444 2.521272546592146 0.9930304891152317 0.7624135912914805 -1.0039957298774838
Ni 3.761748481110583 2.7382856539503164 7.186678293087799 2.01937373344998 -1.5481542873446759 0.5831040854924538
P 0.11118628314054657 3.335282451398511 7.563003380400365 -0.04820407050905247 -0.43625732820782287 0.7453489224997099
Ni 4.469393668261827 0.9572462901994275 5.360842607420672 -1.6466442505924739 0.2497957847450472 -0.24499296403976512
P 3.323652824318834 6.433196238439503 12.173667340800955 -0.14936258172794922 -0.22621002700530718 -0.35466722603915696
Ni 1.8268344981364104 5.892140358490998 3.4445536484210724 -0.3875889164678421 -2.0501601227032173 1.6180576972040326
P 0.636167495930197 4.517108525777726 1.9853377831296037 -0.22769175375715625 -0.09189534074941592 0.20523728140838202
P 4.940838718178392 3.9337259967130764 1.1033427848360087 1.2006095312829128 -0.1263031288053244 -0.6947300719015778
P 2.2783589428160163 2.8615930874841147 10.870818025192346 -1.5128977781352269 0.2621926157475033 1.1518814699495903
Ni 0.6476385371860599 3.4866994540539205 4.182244821068917 0.11522064573891769 0.46025677644621377 -1.056878179698812
Ni 2.0332093716643596 3.9655544497732444 6.898147616202008 -2.4414231455885376 0.5266058932954092 -0.9926890466154129
Ni 6.68339087907389 2.303268973386998 13.532426969627464 -1.1979008741024981 -0.1169635965719534 -2.051875305622111
Ni 5.048881106917015 7.51722772146689 0.7717184969844014 -1.0556329944378011 1.019145955255361 -0.2314612481019175
Ni 6.088017035962971 1.148791998097071 2.0751808256312603 -1.1498580117616584 -1.0474779694308345 -0.0482907166855878
Ni 7.838887997090105 4.639108321816919 8.363010435184718 -0.21421068855158595 -0.06296528797862705 -0.636200451096801
Ni 3.0134274212548235 4.484788549403984 1.9242701847290806 -1.587492679932982 0.10570139339457281 -0.9993448613690338
Ni 3.7019402952757856 5.311651325159091 7.358898788139645 1.4257003570821123 1.4894256631552156 -1.0110922317129492
Ni 8.07589497448103 3.3843513165329364 5.780602589811122 0.6210638525656788 -0.008091004538250582 0.7171518912402036
Ni 9.073844959459327 0.3156599815876873 10.19052935635022 1.3927413856575883 0.26394173722812614 -1.2993944000633104
Ni 0.5041508257213393 6.971599747299661 1.2785532254783551 -0.4595906036171246 0.8885652821206051 1.1033534404422158
Ni 9.116069594302843 5.916586687822759 9.723031331381907 1.6998154352988144 0.21203090729144772 1.9899382017976825
Ni 3.213097174863629 0.32122810606825986 9.557842401921619 1.0533421415210957 -2.4539706432362447 0.29563701144887794
Ni 4.105314003274624 2.530399114382505 9.86513164873888 1.9908548000746809 0.20788783165735167 -3.954533811065519
Ni 9.244496289517647 1.848544990156764 12.173898264018087 0.550163111790059 -0.19859252239835473 -1.183299836359872
Ni 4.959507330069451 0.12143315312486469 7.75023573937077 0.012180344116275797 1.0562832264272906 -0.5036477418373391
Ni 2.6395729341448297 0.3643606679381713 7.070530406687581 0.24709664064632933 0.5965578970045146 -0.24373903702800603
Ni 1.8529686999789379 5.680136151918899 0.20818330836091328 0.4985284183329028 -1.6252444447604593 -2.629074081373724
Ni 2.8233841053722575 4.393726900045652 9.250987179464271 -0.5687259623939108 -0.6455129867469787 0.9581002528969499
Ni 1.290758769497145 1.0469724799888 0.5101743048188274 -0.9079002350037912 1.6010745323824749 0.23188368035131676
Ni 7.3914812194147865 0.6387326911855706 11.533705841331448 -0.4567680465666649 -0.3922251296882729 2.562770473050483
Ni 6.696087019003776 6.695085424327058 4.447049760348697 0.5723465898656337 -0.36644519251069146 0.6385918341471131
Ni 1.4298134971149077 5.810825709181104 8.071316388444957 -0.4566806290591813 0.512899085232278 -0.41146392331322684
Ni 0.8021465723021204 9.001266441496368 2.436601627712767 0.6924003953271366 0.42208283647965367 0.42616549118945957
Ni 4.337387199480232 3.2769766575787913 3.125291635607112 3.2401440559514847 -1.6046848754415524 -0.26800099489916424
P 2.544653290476176 0.7144013142067023 4.267880238525876 -0.9001802406517141 2.102132402005451 -0.5054349156447489
Ni 7.17121385675976 8.704571840592843 8.780095788827337 0.07166332997325724 1.5210088372781354 -0.6703935520387422
P 1.430657433370291 8.374564942663639 9.1934622585314 -0.17389630520325536 0.10990180462916556 -1.2471223301324714
Ni 7.084779945768861 3.2054832005156104 1.924975938015176 -0.7645936296619349 3.10621606361105 -0.168722988532432
P 5.698341062570738 2.0279973697355094 8.401301028714677 0.19272526498430034 -1.2533762814619833 0.7201343709072953
P 7.0509297553056856 6.7535488765681135 9.364895388879047 -0.854018140273355 -1.2333561295863145 -0.21685635370454912
P 8.21418923206647 1.163389313107766 4.9144383518245505 1.3297735265758002 -0.31156345287114723 -0.7762510113952051
Ni 7.947551745489286 2.047945797046821 8.676353765381252 0.36591914480389237 -1.0552311310136924 -1.5848899522028124
