# total energy = -340853.1085901545 ev
CRYSTAL
PRIMVEC
9.40949938451147 0.00000000000000 0.00000000000000

0.00000000000000 9.40949938451147 0.00000000000000

0.00000000000000 0.00000000000000 13.77175347600114

PRIMCOORD
 96 1
Ni 7.201739178073456 2.5777041435120696 10.002066432672743 0.3949715820851584 0.3223217198289159 0.9913644142667185
Ni 6.346754420817197 2.0344937407518575 4.599807455399305 -0.9644521632569066 0.48687720724721956 3.2713155964582823
Ni 7.423558717908365 8.849220206794698 13.221571832193613 0.4497155105952578 0.4687504157395217 -1.5293021876351791
Ni 0.20529645881556044 2.715365120341827 6.80422358276619 1.164993581851516 0.7835619432343215 1.8766955057207422
Ni 4.596295830207722 6.5129261809548264 10.547923727625859 -3.7263147240499825 2.718778328009092 -0.5491369845183897
Ni 8.870880874509126 8.967516433773762 10.744639663900678 0.6508999620905047 -0.19695755789809305 1.2020503774944975
Ni 1.356586353485974 3.7931103673771496 11.600168290224659 -0.2597032736667463 -0.06653037962206607 -0.5127633309853621
Ni 3.007511259002819 5.1072975163795356 5.011031750442954 5.138583638217538 -3.527800877408363 -2.3435307067154216
Ni 9.060247050770158 7.9147439982562915 8.783156111215632 1.4364959050357196 0.023304736164211477 -2.308895890250372
Ni 6.488452072907375 9.169942995259651 10.703778912575784 0.28525181155981194 -0.4374202381676725 -0.7474569699816481
Ni 0.8943691581187778 4.922429080851563 5.514540652209468 -2.710734631769009 0.04385942038711156 1.3806392030774157
Ni 9.077880452723607 2.7466234774866294 1.700935454098696 0.5185503699807843 -0.06558832742377091 -0.018545881322987415
Ni 5.282916413956473 4.057658444176099 7.073103793108026 -0.4056462881901853 0.6628435076056262 -0.12779796818329603
Ni 0.18987617113076163 5.956241374994326 13.183437953806875 3.5031766511017794 -2.8796249991172407 -2.4312901709195938
Ni 2.2794230112151923 7.517230284848914 8.600377525513625 -0.35996729809583167 0.4453657182669942 0.8697972574844828
Ni 2.3529112018536344 2.9337596023800137 5.179598228188455 0.9937722523772627 -3.8819924493626825 1.688782060302788
Ni 6.300017437091058 2.0855590942211055 0.27965220530251256 0.8366516239704493 -0.1889953656282229 -0.445831087939187
Ni 7.2422470731692945 6.8430396498624395 9.640571342177642 0.16369493919022132 -0.12403284471390899 1.0504244536536684
Ni 4.794111736967256 7.864930108212769 2.971407009645623 -0.8214314645865853 -0.8409394527125259 0.7486597320404976
Ni 5.885820681173827 9.230925961140285 5.9528821836936965 -0.867196586636842 1.1290279623901847 -0.6650731682670933
Ni 4.055089650828558 7.553240439211695 13.024994215560584 2.291196673198396 -1.8418429168179313 -0.17200217350433603
Ni 4.356363003947846 5.8198694995880595 1.1407766609443788 -0.05787784615339064 -0.36971177907710523 0.022533405215825707
Ni 0.991695374642422 9.018337140257529 6.421823407361817 1.7652741791232565 -0.677517050457401 1.0197949016932695
Ni 3.9527801634006736 1.609598383969593 0.28725225800144594 -0.8944567079043757 -1.3976246818918188 0.8801942844480906
P 1.6125059192970297 3.949599752589432 3.715054805709783 -1.3479031462969753 0.8772107763397343 -4.391590752356501
P 7.810891352919994 1.123164900839645 11.75755157788389 -0.6170452183245889 1.787284879066393 1.048340574541446
P 4.184658458138589 6.003599385683607 8.40593398335394 -0.5408963417761523 -0.9397821713140525 -0.23543026005199455
P 2.300443832967597 1.6615482303863458 7.48076188786333 -0.808882167166665 0.4402970454948353 -0.23429203268249327
P 9.370252419371194 3.708330777408857 9.297641194080706 0.041367507203193266 -0.15383707255953508 0.7301238780198394
P 0.4122075877352895 7.006887263638008 10.686315822562225 0.8971476244729775 -1.099920246390951 0.23388528416237783
P 8.074385565781492 5.28081809558101 4.044447506960174 -1.0643243515642122 3.778000582460048 -0.5412305851871195
P 8.966660169324582 7.580490349594401 0.24684786739946518 -0.9703137642440064 3.8225338889857325 2.2268604730141712
Ni 7.9507071051218645 6.832246954002991 12.000830422145176 0.024045470984977942 0.756716026686071 -0.9822010025998955
Ni 5.861948781090636 5.735315737606364 3.1041806924654436 1.1425396237233743 -1.0592063136113565 0.24011815244596713
Ni 9.294948195340536 0.8543891359416106 13.524275429228013 -0.8149620548121578 -0.9262216590207983 -0.363640890292677
Ni 1.7189179484814268 5.437627403774305 1.590678703442485 -0.722958984840284 -1.982562992379534 -1.9370624368445737
Ni 4.210986237576024 3.3053689638248267 2.9676752021671073 1.0215689628745566 0.48861964385962303 0.6118135376120044
Ni 1.743250914037254 6.171417808223505 3.6975503138986827 -1.8552422209429726 2.8198432510729177 -0.024438335548022425
Ni 3.577764563158022 8.874305932305848 1.3664004614035021 -2.0400837123038222 1.3996309136885703 -0.7677234335401683
Ni 1.4800295766595617 2.3745624600686224 13.681025457574826 1.3360588453638795 0.727819655366695 -0.13304378996326763
Ni 6.180385061191295 1.9481709928751527 8.006333242970427 -1.2912630292054277 -0.8418359963848664 0.25292430307169994
Ni 2.412746208802399 1.830759258843593 2.543366998149995 -0.4325935062029905 -0.004142304303147705 -0.2601583589262939
Ni 1.1751335662552806 8.95646027192995 1.1783977216115515 -0.9516293004606258 0.4150719523794593 1.7876808289532309
Ni 8.0165830107121 8.819787292541555 2.2955998226550913 -0.16494346688534173 1.2323320591971745 -1.9154237755288752
Ni 0.37022710597685043 1.7626062543885055 11.108131450177273 0.47774747703180953 -0.058942282862163 -1.0491008497462384
Ni 2.167337053867546 8.990353288918385 3.689039421653808 0.7617875276717074 0.07909561788158637 -0.8231291640039825
Ni 8.251152422290296 4.534607151868974 11.259069230719046 0.6803599192228347 0.7882434078703908 -1.627715274898455
Ni 2.7377973670104634 2.2996063875173 10.063157607796953 0.04451402325197495 -0.2786664450328104 -1.1696871306724437
Ni 7.279819204439371 7.473843082923964 5.642439273368625 1.6048784795095972 -1.0432225365885905 -0.9906460480434552
Ni 8.414407237601047 3.38289382972369 4.06849254183309 1.6542688570172672 -3.2579666859552017 0.45352151460490925
Ni 8.799208717262902 6.600171059776802 2.2324009196559755 0.07701019610746736 -1.3764483049245197 0.351948027335781
Ni 4.225232219730518 2.3749952970429336 11.932301978662373 -1.1270844655105685 -0.4304805736250457 -1.1384744525150652
Ni 5.997709039033201 5.0267710201588205 10.249944640261056 1.1822893928174865 -3.209847718960788 0.3967086193809232
Ni 6.710215155745634 6.86476618407296 0.6263819092739448 -0.36363266276256084 0.718014496350815 0.21054352411264382
Ni 0.19702833165627762 5.671528740892152 8.024208469059525 0.8119052702637051 -0.5489305249345385 -0.04252116119166225
Ni 4.062937173362804 0.9631657723356669 4.276653252278656 0.7392029575029722 -0.5599417884433776 -1.4388669763710575
P 7.604164650189319 2.372680560180314 6.600209638724513 -0.536674847495637 -0.05212037484432314 -1.718475730712479
P 3.3216944453559023 3.5174873097355053 -0.04710677705419104 -0.9769662365635174 1.8043168948480153 0.5211492410562121
P 5.912167279610143 6.579244333018813 12.114818980279903 -0.07662555907453901 -0.2123435534358601 1.7154107186339103
P 3.3501299526682415 8.052423794084932 5.130281159715446 1.100301026769137 -0.33764446622891525 1.2100781328949803
P 4.8234693752248665 3.2175312865380334 9.90058215834588 0.4875037850876249 -0.22486765404479986 -0.17550761555443323
P 1.3730341585097892 0.2332426721569398 9.430593657389915 -0.4175250419056422 -0.11354994290471412 0.31726898789635677
P 4.4516247762940155 0.36530970156870063 10.58765533901777 -2.001930341162552 0.4699714326308164 -1.1646408264977879
P 8.690067933240458 4.605027845689473 0.5441711126531934 -1.7709280349749246 -1.226350644802759 2.520977705384413
Ni 6.393002110572375 4.6524611323742855 0.4418973813231865 0.6319200785538924 -1.670385045852839 -0.14140013234776294
Ni 3.7125744616569927 0.2056427283950092 8.439715968248963 -0.5785079814813392 1.2904513319374098 1.3071488471977488
Ni 2.6565369298333072 7.983932047649948 11.152613917837218 -1.0567437110034767 1.0483557440500977 -0.5424693426902271
Ni 4.535924481790789 7.837746064326154 7.376922415826251 -0.7703001931284088 0.7836146508491278 -1.1881502224736376
Ni 2.7089196132243707 6.277284086440293 6.5853492162564855 -0.9786600793261726 2.891351029304917 3.335265874057998
Ni 0.13804017965725165 1.2330960828151785 5.202844396558785 -0.35418900085115773 0.02520169607660821 -2.9086406696233
Ni 6.208425369527089 3.3226353953000562 12.047365101633323 1.280480336767627 0.8246569135024184 0.03279339238093707
Ni 2.6354784700831364 5.013531854444571 9.644400067500406 0.03283375870056926 -0.12071072231921147 0.10513420803719313
Ni 4.129387058418972 1.6660836091171691 6.416383775734663 0.8191120724247892 0.5746636680345845 0.8002378612281057
Ni 8.487810742744516 0.9109778655830434 8.799158846915862 0.7821002710871304 1.201401688166905 1.8762787298982977
Ni 4.920547180963254 6.370372264415467 5.32387031932584 0.7856072557991245 0.6676355296776308 0.07484532724566464
Ni 8.032052227793994 4.603804610762072 6.256479683175044 -0.7049242388257602 0.4164852877872182 -0.7916236371965334
Ni 2.205906592078426 3.8483817670967664 7.356333490098213 0.8752433682007184 0.5439767804736889 1.0567074584489025
Ni 6.259490722996338 6.415660185227607 7.559590910384791 0.5682791046644794 -0.6566093537704563 -0.10133566022670934
Ni 6.991352180060022 2.21740500039599 2.6025169935394157 0.02069763755866758 -0.03861642682061736 -2.123699843763581
Ni 2.0018804156874737 7.383634211777903 13.595668124340824 -1.125747748977016 -0.0724850545436042 0.6285411347793304
Ni 7.440881606380244 4.598751709561964 8.44190555876901 0.3117596280423534 -1.140615667227784 1.0716705075166382
Ni 5.094453549641831 9.36753307403259 12.515245874714383 -0.21300406983799444 1.9900379606003402 -1.0397633743953965
Ni 8.137382164542615 0.1619299577893823 6.845787223699369 -1.2408444675435597 -0.8240133663811485 -1.6710316782979027
Ni 5.683911642157221 9.130470145102384 0.7522988898507137 1.305845812115609 -0.4841433532558242 3.428870998409669
Ni 8.614490833725995 3.0444905918080782 12.891573159179185 -0.309859325695847 -0.6472790775084659 0.5482648663260815
Ni 2.437935438807407 5.678369446986153 12.112822284498408 -1.2395542879772266 1.0426952033302106 -1.2050351711544343
Ni 9.469249762995657 8.373993437499626 4.011753260200593 -1.2936505556009978 -0.7036615700632527 1.4602696104165496
Ni 4.344601129645918 4.928714626478513 12.622803980930758 2.6399017681168475 -0.031238903409623618 -0.4935497341713887
P 0.4272082117449955 0.9207580993025819 2.7615667035497418 -1.0212650584808927 -0.26602304523718706 1.3349422152609332
P 2.2195503662686615 0.2519327608976744 13.064918721691047 0.14117181838704077 -0.4046872667110256 0.37358128933484047
P 2.924086636954109 7.053981808342925 2.1620141000334656 -0.8017296152822837 0.22115909484496107 -0.39385803730600555
P 5.443131960947606 4.22756577559202 4.888903975291293 -0.7753115303000712 -0.11078240746190599 -1.156071596771538
P 6.503958927987037 8.585537803944371 3.7226840278569853 1.8502110862769683 0.3977141778273022 2.6525685649512383
P 6.7262583522934625 8.645062297411563 8.596865900322042 0.247953846440302 0.2911630348379244 -1.9234656719967451
P 5.101604769217403 1.3340411928240399 2.1097913781329085 -0.8925759459418949 0.18380302279400604 0.9455920931276102
P 0.23395403031472034 7.035256904454257 6.264454233951751 -0.6517864784605161 -0.2773976056227158 -0.20759626855886185
