# total energy = -381173.73944097763 ev
CRYSTAL
PRIMVEC
9.23301135666805 0.00000000000000 0.00000000000000
0.00000000000000 9.23301135666805 0.00000000000000
0.00000000000000 0.00000000000000 13.51344540757269
PRIMCOORD
 96 1
Ni 7.798090661082575 8.320439049953936 4.51776142965352 -1.7902509036732523 0.7897310481595109 -0.4952047532763085
Ni 4.120914595302111 2.137063593519576 5.642538885467406 0.8452082552912089 0.6529108218729466 -0.7292301625609763
Ni 1.2104200999729362 1.1839675222143113 10.311609983201405 1.0608047684467279 0.5698644468737282 -0.677435289376872
Ni 0.45171585140068754 4.76710536653872 12.199276088369462 -1.053662758085308 -0.6757648436529845 0.017723899642324313
Ni 4.0162030126282655 7.838623581278164 12.216141107054945 0.5539917415075298 0.6400177679603622 -0.667631673022889
Ni 6.0998074699445475 7.972114460592021 10.784121346255061 0.4501947642245215 1.6425947631134483 0.5421536112220212
Ni 4.6712482418301535 0.12307881231965058 0.80187411683341 -1.1222518200086156 -1.0582290372997516 -0.9075942737275983
Ni 8.229318460111049 7.722296870220252 8.980616910212026 0.6293150368308775 0.5208682194806836 -1.1312432248739486
Ni 2.147053711891245 2.456054905555435 3.6907513624919845 0.06191627788882239 0.4024756037716875 -0.3388960792478293
Ni 1.16586158679209 5.828532360999988 6.984464767295874 -0.05236565808590981 0.2284941950537936 -0.6053500413748478
Ni 1.8595654348684505 2.3287593769138417 6.057375319296969 -1.03850327673605 -0.4373335919911372 0.7396323317309068
Ni 1.0668744712073714 7.99069127959738 6.236589917834651 -0.30306158604772315 1.3758849762218819 -0.26385637660317135
Ni 5.676326167509261 2.181723669826197 1.2101144872944685 0.3513258203707498 1.0412075630410909 0.001870734660151617
Ni 5.645183219942125 0.8374442933831842 7.056585666209721 1.1838235700738255 1.3209343310176154 0.14681410427448263
Ni 2.6542137969535533 7.5722696674279675 0.7576627648824851 1.2188700201549976 1.6355321998397123 -0.36422915869597916
Ni 4.429675730669014 6.265872413597821 4.615111532310977 2.5294363776747275 1.4263739861103693 0.16563766473888894
Ni 3.5634253649126593 4.296406443629575 11.678022734654183 1.5787334456831132 -0.7624012499963063 0.7379580293522775
Ni 8.149249784954751 0.6511082731263986 10.150516092904237 -0.8528158924351378 -0.9824797101825788 0.8059698786158764
Ni 5.028852007683315 4.514351678530916 0.3274284378843165 -1.5131872843511875 1.416602251435586 -0.2817252864637922
Ni 7.2672848337376 4.787713448059576 8.67994296956023 1.1579418172110572 -0.6108444888305157 0.9595092174293346
Ni 3.2795841274063244 0.9150689904128833 7.84924431433078 -1.1000737412496797 0.8615116204369226 -0.45221179465455025
Ni 8.887779903543546 2.9703521084562827 10.095800343844765 -1.7370748338709052 1.2127986171499372 0.8071104199782229
Ni 3.663520441869467 5.605933688335873 2.648635211445085 -0.6380930401338236 -0.2663338916093865 -1.6721902173823782
Ni 0.13933168234705287 1.4042025439513033 2.5649056472551757 -0.11211295334787143 0.13592008306979816 -0.3934908837745739
P 2.011328443810342 2.681109559261014 11.997979819686046 1.3699999781960148 0.29636077698877994 -0.4910922737698317
Ni 5.006406556887078 4.77668923240729 9.66166783941913 -0.3987071378681908 1.257054501644519 0.7843872673490943
P 0.26015579327450233 5.302933952103832 0.6648950057997595 -0.07604577531166903 0.3036848214540189 2.0551722312058285
Ni 6.070151037218298 4.28862301499065 2.2678805927221246 0.7794070405256834 -0.8043979061430663 0.312146836178443
P 3.3870009824303535 3.174854078709611 7.542083259845403 -1.0313386406668108 -0.05034065723608105 0.1131323957513213
P 4.134431724041597 6.858853339939857 9.713194506329273 -0.4919520506669657 0.1581279866254051 0.5600415472460355
P 2.3006448570970837 0.5655145639279493 1.559627365227949 0.22691656615402858 -0.18887966598596503 -0.3363915676584206
Ni 7.27367407764998 5.247277359179227 -0.07905673710312416 1.2218427296300765 -0.2097598518690839 0.49407038256154906
Ni 8.397008413776721 3.4665433759349096 4.596247566650019 1.7772745460182424 -1.0097534582968675 -3.480165792028903
Ni 0.25631947702364416 0.1505645640577486 0.3915738615214095 -0.09487987729903659 0.09070414865479218 -0.08055343337403546
Ni 3.2321172156237448 9.162185003364256 10.115259838743222 0.6693964782327956 -0.5590195337394244 -0.008173794060043987
Ni 6.519641732863373 4.819807395804421 4.42468067148318 0.26311872710619844 1.3115449193829154 1.428556852694301
Ni 0.719616294666092 0.3962254526818965 7.934513944827894 0.26554867670392973 0.9388221213936282 0.9614583707359055
Ni 3.3495703540766133 2.585474026826865 9.798788215527722 0.4169210897730562 -0.1746180138606283 -0.09786492806928952
Ni 0.8894289176604568 7.186025100106306 12.850340966342122 -1.3571555181331787 -0.2716221365915193 -0.21557260189611907
Ni 7.9720128974662465 9.181555861352944 6.82188436215782 -0.5329973986440498 -0.10474674279078736 -0.1813231937949458
Ni 6.112419763563493 1.2260054232736548 4.668855045266441 1.3429573722559258 -1.030187300671187 -0.873988926968327
Ni 1.711514096523057 4.324733322709317 10.422879773896874 -0.2382340480493768 -0.6319018237214472 -1.2971056040291338
Ni 9.371875926043534 1.9838325357596664 12.31931631662616 -1.6867398330617789 -0.8051185863591748 -0.3248825385775566
Ni 2.2035597418677844 0.188213091481333 12.266708464077087 0.11274801582870904 0.505931138554877 0.672174555198565
Ni 2.5202981991137285 5.268347091271787 0.2563434828533728 -0.08724344379970136 -0.8543264155423933 0.3594456212644067
Ni 6.204011236989518 2.7432015611551686 10.130962421289153 0.49405367039100073 -0.7409181404218659 0.5055526721695357
Ni 8.449378054630795 5.152269671522596 2.6882023586446704 -0.9252924623383095 0.6490114868185403 -0.524406057430613
Ni 4.133508422898188 8.83581651519257 5.5426884833136025 -0.558950885285018 0.2806989020818069 -0.640916882735864
Ni 5.943446421308486 7.551190702323973 6.140496428033372 0.16576570567632096 -0.060727656897359934 -0.8151394609302863
Ni 5.024392463160656 0.8354721221408656 11.471536590243673 -0.9365448953236775 0.6729600272143378 -0.06882457497288148
Ni 8.5162527564478 8.051693786142314 2.0661245200692906 -1.3474238926677118 -0.6730150488219894 0.05872939552040853
Ni 2.1729430759523916 6.48159249274355 4.774205552331525 -0.21418137797554726 1.3346313688887337 -2.371950909729328
Ni 3.402364713456654 4.657149433370321 5.778660249738832 0.3123700079328427 -2.350740079979668 0.8053769822268839
Ni 4.655413627220716 8.328462536890148 7.9365821393891265 -1.547865038239031 -0.7076362384402844 1.5854645937593597
Ni 7.555825674063879 1.892102567162131 8.247863886877534 0.5544563398487742 0.5517831638919852 -0.8251649634870886
Ni 0.7376779116334297 7.96098868181396 10.428623630310012 0.5720498845608212 0.4289317410806871 0.7895850094999499
P 5.769533417936248 0.7051777113854855 9.40360147663216 0.234621390997454 -0.6016641078828283 -0.3043921319336887
Ni 6.900494221507535 7.841772038177184 0.18551243563686604 -0.2215470743119991 -0.6098217039929562 -0.9498418695428997
P 7.120202961592784 4.4329257506938085 11.152160261631012 0.9837956007805251 0.14714911901639818 -0.17337051460677239
Ni 3.377731038950542 8.010976205718043 3.018619522330197 0.3599117622675479 0.5711266014156035 0.7234680632662186
P 7.405798471271594 2.306646314529232 2.6513654129261415 0.0952773698477714 1.3561628152026064 0.8174966483085534
P 4.683999030620612 3.8386706687738705 4.059142055603575 -1.1713506344177957 -0.0934518866032584 -0.15895819583618429
P 9.029211172690706 2.6783950538993957 6.5908042451903635 -0.7152495320111683 -0.3239993646416549 0.6835347174063906
Ni 3.8616239351989807 2.486625406413657 13.266703616961737 -1.4962434574079972 -0.9595516406314957 -0.5742911151865142
Ni 8.078321791118187 6.435150445230153 11.181565556446255 0.2731344594709877 0.10557206690556012 -0.24028373148955393
Ni 5.61091028149884 5.421162663517163 7.212545078848399 -0.8658662978611926 -0.5774756835620829 -1.7486352850149949
Ni 8.921794317666677 1.0465618460524064 4.902529638446873 0.9034213732968313 0.9454170010023266 0.7473883215272419
Ni 0.9290994745881036 8.556896472780599 3.5491852913778854 1.1073790166618414 1.9668916043908642 2.2209037412101043
Ni 1.3620261477204485 4.317337680550623 2.59620278611326 0.47797553388221553 0.7412310436765943 -0.5292757268180884
Ni 1.1582628183818464 6.881594247101983 2.276042574829847 0.38385413201575824 -3.534704803617048 -0.5769082410943871
Ni 3.690351573096889 3.315223551541854 2.0102195591371097 -0.2519871359694112 0.0195979767365856 0.6559043572836317
Ni 6.191306613256231 6.974284448888663 8.758834435758683 -0.03837680000598552 -1.4234843232674 -0.12150570741668107
Ni 0.28760738287029425 5.747152598220051 8.95527968023464 -0.030177294914328672 -0.15303797369700742 1.8723451991718463
Ni 1.0800038134666263 3.400822800547164 8.401997933155695 0.5448792376833004 -0.47917803883074894 -2.078091301895847
Ni -0.15712092547708525 6.623836266896911 4.665625337866802 0.39262159379574324 -1.673099616570525 -0.6593208391643484
Ni 2.5398352513082316 6.284079912145817 11.303726607429358 -0.17549450292831065 1.200915749669422 -0.869098174534929
Ni 5.431235878991739 3.2452834899287355 8.09151299455405 -0.33091717480741073 -1.4762130211196836 -2.074792062319285
Ni 3.27558623345537 6.7721553625738915 6.686114775622034 1.726945458746387 1.5780724150603467 0.1552123556405069
Ni 6.13386804912485 6.692382143783484 2.2155294178909193 -0.1495186476898393 0.5626103364144761 0.27269840037483356
Ni 8.308519232192545 5.080085988130996 6.247482101423429 -0.8103530952852366 -0.8985912988980395 1.3200069341073395
Ni 4.405235949403018 1.0643907911316053 2.990836467623922 -1.0673597959564263 -0.09963410415457034 0.4487546893438852
Ni 6.852722620347631 3.016627961763867 6.0348615442161195 -1.4988269018644573 -0.23675514951100518 2.0496942388103925
Ni 2.2393007291290887 7.793621883548482 8.500835473955181 -0.5593504347162818 -0.4871291753570256 -0.005518101604751787
Ni 5.648710230309942 5.901713209626467 11.78299468825047 -1.0213367922590926 0.1555401712935708 0.37433205145793597
Ni 6.718945517679318 0.8670083959950924 13.003137149263488 1.5885717719297738 -0.4148341253370404 -0.11256032529793517
Ni 8.025222742360821 2.887938248395729 0.5349652989960252 -0.20520128596412401 0.22547597705276007 0.7283565017067714
Ni 1.1985279812458476 4.561135347467375 5.093880107213505 -0.9979199559970492 -1.9687258293861252 -0.9315271303941118
Ni 2.891797647175172 5.250268854883868 8.365363190387573 0.589506646584688 -0.7410929754368334 1.1658338183646244
P 5.664350951679265 8.194371511833076 3.8601429601649557 -0.272075422078854 0.4482972900914924 -0.04566407769601813
Ni 5.991541177868583 3.024549885574303 12.44228894931432 0.8620237841866508 0.23249328891085766 -0.340631059661065
P 8.345543608043187 8.594982644946157 11.982615165358602 0.023325304989501763 0.05877541826699555 0.6816732387176195
Ni 1.3160365177673206 2.6733353636335226 0.8054103602126608 1.025724636914143 -0.15620865811550516 -0.2089820931627949
P 7.838808241506846 7.028999274646992 6.783465801580634 1.2552305610619028 0.40103347200852224 0.9001792122104497
P 4.702465053488762 6.74976530984626 0.3801138477294355 0.6984620281401842 -0.4609610016020901 0.7866986890910903
P 2.5706458104637404 0.6274736104574533 4.551111990254543 -0.7494058661779028 -0.7784619030035947 0.4230287453326908
Ni 6.7771504217597265 0.3590090301934268 2.0775032833606444 -0.2254862614654052 -1.2011574333665829 0.8802691035500839
