# total energy = -381169.26344017347 ev
CRYSTAL
PRIMVEC
9.28083923193940 0.00000000000000 0.00000000000000
0.00000000000000 9.28083923193940 0.00000000000000
0.00000000000000 0.00000000000000 13.58344633754666
PRIMCOORD
 96 1
Ni 7.905817735717549 1.9253193312527557 11.330604172654295 -0.5222357892521715 0.3356246075854091 0.7415768570517873
Ni 3.6688363073473766 9.143027821041997 13.530130532562147 0.7622253865400744 -1.2636426963849978 -0.5507475235386192
Ni 8.228308329266728 5.674425615105451 1.3220248886877477 -0.74516097485862 -0.08420362853211305 -0.38075415293419584
Ni 4.24280051442276 9.030488367335963 2.1575676867918205 -3.738424877049955 -0.22175456233711485 0.5519351160888172
Ni 5.169854241228158 8.88793468030605 6.288402303358704 0.9574788172628671 -0.2432780382311875 0.10373501369682134
Ni 4.730861275720223 3.78141288440941 10.18504422861616 -0.9425504780878089 -1.2010677018662541 -0.5955816491341743
Ni 0.7690789976941764 3.623824238200562 4.473898045925907 -0.7126992547854887 -0.41858407929777586 -0.49216828044282984
Ni 5.239516218757228 5.883801342930636 9.38521038664596 0.3026797772282723 0.9432037954010918 -0.8581218780290836
Ni 7.84263378381002 1.48068361563322 0.5818538483087254 0.5085307809612531 -0.6529804987686173 -1.39455169939345
Ni 5.4269706048659625 8.2597703734745 8.612013480687775 0.021448399681763063 0.42308042450623273 0.46812615189196155
Ni 8.018765546339557 7.321932311751867 9.285521182618414 -0.19740775806163421 -1.2634642618256047 0.914964083829108
Ni 0.7861733750470669 1.6082858710351904 10.762517520917196 -0.72127568360059 -1.1727801677754703 -0.6581512443362795
Ni 3.052003904934026 2.7801681306432626 7.829498612374249 1.4161672207806966 0.7709313989545046 -1.3125815881775458
Ni 6.834131413946386 2.8773756383223836 9.267944201637558 0.38822552161057655 1.5909099331446475 0.34434681794975536
Ni 1.791034871771258 5.233325899144666 5.917356216332761 0.9585915907110717 -0.10624338194097187 0.03069408664974714
Ni 2.322966159018616 8.28719525271756 3.4936354129694744 -0.6766027661732477 0.18245705028907286 -2.899466973543832
Ni 3.959085266212837 6.3741637522999355 2.6578596658065177 1.3787113899270835 -0.18060071380662446 1.535750257253368
Ni 4.885127381567306 3.45342803417262 5.110282391859173 -0.06933982404640317 1.3377246631020767 0.5477473032597148
Ni -0.0673473362826342 5.8811470229768235 7.528121927548576 1.1489851222384018 0.5873008971826208 -0.4810762842947263
Ni 7.666817569806462 7.939785606455144 0.27621911455015347 0.6260476789335153 0.6182772909594773 0.6556942981553545
Ni 7.855469184146111 2.390261522602854 3.087123527791441 -0.7130514959185849 -0.4893297825527702 1.515098128220655
Ni 5.678778328596144 7.364549924436851 13.045881411841714 -0.2001236143309005 1.4042216183830463 0.5446614652455395
Ni 6.320372009459741 3.0649228328211118 1.2810685461836457 0.17699628428481776 0.9980652233256617 -0.2352626241258787
Ni 0.8221319857500222 4.279172122461186 1.9107558386949863 0.08661352352518631 -0.2719080432630543 1.8154744541267316
P 8.554511258415644 2.165321827775772 5.401619993139256 0.7778209269854861 0.5970685180923458 -0.08492405163790535
Ni 0.4787771380464196 8.414073602677583 8.356101769952083 0.07771210727049842 1.5279425882834912 -2.6253410966938526
P 8.789316485099027 5.374626672909667 3.4605594308597154 0.1523201216943764 -0.7009773383628701 -1.2375508843939524
Ni 2.3364697797626603 3.022954878866082 0.4745209452813207 -2.3287756598934344 -1.376004789629198 0.14631813847467057
P 1.5458258245696102 8.643486661902347 5.44283248679974 -0.7310055092938443 0.8415117802762281 1.2562392048320754
P 6.93962671085192 4.554098416138731 13.290451009236307 -0.6200940324532418 1.7214679805715836 -0.31926930615583726
P 3.166687232448911 5.219330393933657 10.86121460325571 -0.8732247951087928 0.3889171483609624 -0.287565290184337
Ni 7.961957530824575 4.953443637441471 5.373353341798957 -0.2629770593220116 -0.1447767621294797 0.5368607382541979
Ni 7.655578473778256 8.483225134061689 5.378718594824477 0.12111618528774624 -0.5717832611629959 2.0343820339333547
Ni 2.178222193984859 7.189968062020205 7.110730114811612 -1.3123370762669075 0.6248089214304078 1.5049276154455564
Ni 3.743834767301069 6.3541728250953495 13.771848128132241 -0.1676382401086855 0.6295682904922641 -0.6545668694191308
Ni 7.3033984762701785 5.166624509256386 10.403588497288796 0.3297730339006385 -0.5518024471656948 -0.3225124956834833
Ni 8.797975507885415 3.627415922893307 13.520161055309051 0.3341950742277341 0.7251202541576609 0.07228116606291422
Ni 0.7995981086596169 8.081652511399106 0.2439134420773396 -1.2421894116072283 1.5020168695566647 -0.41497373623869827
Ni 3.1585943408414834 0.32227342191659447 9.923780258029549 0.4111829017376984 1.760394482433452 -0.14508220918504044
Ni 1.706532832682238 6.004925572711064 3.5731935491235447 1.4699554702457458 -1.7014653121974117 -1.236469992624948
Ni 5.874873175813267 2.980402232054093 12.297147869401899 0.19256174282324257 0.10174009475397962 0.0065745678937241606
Ni 3.298298810298597 7.399956325219345 9.345968215105037 -0.6313338670331192 -0.8678851280634343 -0.8195563590510595
Ni 0.9348125082088484 3.593420209638713 7.391907981639115 -1.0052208605338364 -0.16366125773880846 0.12401458988146384
Ni 6.298719812074274 7.5850997824172435 10.895485957428585 0.9303127983710364 0.2110754853567139 -0.29243213135833507
Ni 3.8977203587491793 4.016218111092794 1.789768037247848 1.430683926339633 0.8522983293687708 1.1827210810382662
Ni 3.5292710504752525 2.0450699968612813 11.883477673103672 0.38220528355842565 0.23735113122379123 -1.2986580361179183
Ni 9.082823018453258 3.316108740338337 9.693785290199525 -0.3802137070496936 1.2200355012180084 -0.3941511430663921
Ni 2.9030742815115653 5.235172786105536 8.467729845268385 -0.41286825985992115 -0.7846590329532421 0.3403232986126591
Ni 1.2129778146971641 8.19436830104613 10.31856951546751 0.33555004559373175 -0.5044954345496151 1.2828128415555453
Ni 6.252974556646511 4.244823737324617 3.49496628528198 0.6643375756526495 1.927780240211699 -0.856369671224667
Ni 4.519026125560213 6.628003979770972 7.05423671973871 -1.2617246534266786 -0.7251202541576609 -0.05329588320966305
Ni 4.043596586140857 7.890587878919626 11.459701571219059 -0.4951741571486891 -0.07108586020323242 0.3190399637538506
Ni 7.222478841034905 0.3703045479898956 9.553834878508926 -0.49811009984856147 0.20111940258526656 0.9600126394283143
Ni 6.743717480414785 6.704134702082585 7.059425636823243 0.7600744016353426 -1.1223598063413895 -0.8987648483614262
Ni 6.117715609070083 0.26998888732989434 1.5076537337653118 2.7046783982725997 0.33711096232294846 -0.1380921510204525
Ni 1.8957320165228493 7.017799217743389 12.244390012026232 0.9679964289647393 -0.575648400545357 -2.844283129282837
P 2.400646781443119 7.177169785040111 1.5275267943146051 -1.2920659847226974 1.7545009997671526 0.7304583785411227
Ni 1.8562606082586426 0.3743584184648087 1.4820358338754243 1.012293708220218 0.1558494750038735 0.3332499367056454
P 7.4886533035360685 4.963327730975772 8.164194437291464 -1.2301738752035911 -1.622051134634142 0.723463178170212
Ni 7.196511053514742 6.969390361522814 3.480866834674178 -0.8277815751743293 -1.4883663686527657 0.25436772038644584
P 7.537860311910587 -0.12086343820454716 3.4422900992895076 0.2950436008392532 0.941316862791024 -2.757378299769477
P 0.6864832429356214 1.870812963809613 13.213785710598334 -0.08720333459038529 -1.3405634181024524 -0.9365508088609482
P 1.4669108505581947 1.4696115747070035 8.432454304315781 -0.9473602407716265 -0.5636305501488744 0.22799771503334926
Ni 3.4569269104753717 0.667607872578757 4.7380149464209165 0.8042688367643698 0.2789844904938614 -0.6650418008085256
Ni 8.48672401036444 6.3363164908606135 12.232857641485648 0.24762834478008316 -0.323703687778107 0.13262367170671352
Ni 3.76219226684177 4.245426991859574 13.01542726674927 0.3143592704487296 -0.2044980892495123 -1.3458719747995596
Ni 1.2462217799928117 4.293464614520175 11.941940462212234 0.7214446050782866 -0.10133540311639322 0.0931703508070976
Ni 8.763589999392849 8.865948372716606 11.696773178786083 -0.8544747681947994 -0.06626247067266007 0.4772641096374876
Ni 5.456279494425889 8.540970514315601 3.9480011601959215 -0.17776118747530031 -0.03871001497568818 0.34076115748102603
Ni 3.3029577914762673 7.433497277362972 5.247597973357856 2.644388857353923 -1.1922395620516628 -0.6633376736332254
Ni 0.5289001652301726 5.544150478071671 10.088506797512792 0.4446982598863245 0.952921536909488 -0.3710857766064964
Ni 1.9704891746625592 0.423276792746447 12.08330341759853 -0.3444357781191358 -1.953016646180985 2.118978527028512
Ni 5.082688601346326 1.7288810929926566 8.4887166064976 -0.5256664122002753 -0.9101340094303164 -1.1563171371234409
Ni 3.246196180156284 0.4569977931666608 7.37840528897897 -1.1615321056654768 -1.314915378517045 0.24702105021338744
Ni 1.624091139851072 1.653214412631011 5.7660506981264685 -1.1361054380622562 0.3665246395983752 1.5161589653850016
Ni 5.8045429778762445 5.797508101914742 1.101018413428587 0.481877440039783 -0.9818803860356831 0.8481747941187004
Ni 4.456798100069617 2.00439207952716 0.36942472445275787 0.22575725573860475 -0.6177944377857876 1.5789080235877646
Ni 6.9568612288737 3.093934735533059 6.576669803097804 -0.3375395652199348 0.2872716702033181 0.9403354727143611
Ni 9.155362056072125 7.613591958145228 2.3947747946082347 0.8052360857736455 1.0562652287051615 0.06776013826410911
Ni 1.1449121414759809 5.874715401550278 0.36647341765096664 -0.2012872956216985 -1.7142740339263058 0.1253209673977132
Ni 2.1280035741594125 3.0942502840590365 9.904451054645616 1.4064782756277068 2.0048791393782306 0.18220302529673782
Ni 5.319127255693594 2.134797148306932 3.2382387887982476 -1.6253341762607878 -0.8953442527156517 -1.895128258504633
Ni 5.001546225975068 4.289260394453472 7.545454822463749 0.46471018423187704 -0.30855500506212663 0.10992134501319134
Ni 0.7582751730150411 0.7519187263843908 3.777800781870866 -1.2038797173937525 -0.0029179449777433615 -0.043215873265841705
Ni 2.4835525162242527 2.565307426969467 2.919693479907689 0.15823288763438556 -0.8195147071798466 0.8499591397126329
Ni 5.279173243801422 5.4292815337768 11.747018713044628 0.7442130091230538 0.9824308592225145 0.6796610933835973
Ni 6.474368970975844 1.321266644141501 4.956639958392846 0.9222061101035021 0.1549002237167268 0.7290717826062412
Ni 6.356919953439156 0.5068006314049365 12.57734753579887 -0.9385529268926417 -0.5505477488229873 -0.7949940963306631
P 5.372881875177791 6.4545729413902455 4.744928243391527 0.20165856291818818 -0.2806893890001101 0.4918715751380174
Ni 0.3525892825079492 2.0228423874578545 1.8531626642006618 1.0342987517363993 0.4563800670996269 -0.6932815123805092
P 7.46008688109609 8.60061846656438 7.617881561930725 0.5285658452352574 1.7060549884506229 0.17394926992837784
Ni 8.396542097807822 1.7558883344807454 7.979948437224803 1.7386442352405542 -1.107906349920221 -0.9802487639695311
P 5.330570530179784 1.6407131224988956 10.59171945656058 0.5297194992237264 -0.9586085599919363 0.8703346180451914
P 3.1044684877973134 4.26146428165044 4.236214831068827 -1.155485899471397 0.38244388193179296 -0.8041081428167894
P 4.656234049326504 1.7861995546526004 6.245206494404061 -0.27461027268556576 -0.8407365926731004 1.3764022821779327
Ni 0.15288418892008124 6.859384576863599 4.876022878508951 -0.7178903120681249 1.5499093223625695 2.1331818151120876
