# total energy = -340888.9806398043 ev
CRYSTAL
PRIMVEC
9.06507267457197 0.00000000000000 0.00000000000000
0.00000000000000 9.06507267457197 0.00000000000000
0.00000000000000 0.00000000000000 13.26765017082523
PRIMCOORD
 96 1
Ni 6.442900786455571 2.264881247256117 11.34408016380791 -0.2892203092892567 -0.4592003101572414 -0.4494414309982647
Ni 4.815248832630509 0.35610416184339516 6.149330216402139 -0.2608229890934863 0.015326088834109087 -1.6734104629427244
Ni 3.01107271590648 1.6401798844534383 4.88302566253585 0.06814168997324394 0.6675270291242246 0.47718800498391356
Ni 3.288364228201273 4.599146561827424 4.829464679816775 -0.008376139878837188 -0.3822963006103352 0.10678639892863545
Ni 4.20328389713092 3.0658438858461685 2.292848809900593 -1.9378183411739918 -0.8696355350956378 0.20833726048994444
Ni 5.287176523305816 4.984693173662066 2.2395262385965156 0.7191097862975229 0.2822472204055333 0.7149625968983687
Ni 4.829698558695365 4.466343245108383 11.11769356789781 0.2508021145223745 -0.24011943799754779 0.5929185004797144
Ni 5.645573242063767 7.959469338022945 12.187994930403297 0.4937425669084851 -1.0618671482729714 0.7356646053324104
Ni 1.9006375565334022 6.557700868566829 0.180908032111618 1.6405059989052198 0.945582065825281 0.5583659593158254
Ni 2.8868086977778376 1.7512904819295665 0.5398287120781945 -0.26069211994257685 -0.20996682567356745 -0.23881460314319516
Ni 8.074885845085527 -0.17935881116777605 6.5241147737924905 -0.5546324604153222 1.3798822703067333 -0.022493553116825778
Ni 8.768635867509293 2.657725242705696 1.3330271158034097 0.48423128498394025 -1.180785297468134 0.7798353863123537
Ni 6.604259082537409 1.201022431999246 4.391114925350274 0.16723329136078294 -1.0891768918315177 1.068460999440405
Ni 1.0034763652455716 7.638638281004496 2.498670381625791 -0.3036999909626705 -0.3529101341387342 -0.23164533908826557
Ni 7.77119684075757 4.062421730680601 3.840680078080183 0.6495041101842427 -0.5842214869263487 -0.7260430230822463
Ni 7.75471653838247 3.846319459877515 12.47754876669303 0.658440236331608 1.181250667140327 -0.7588150753069448
Ni 8.29853932154233 7.629917680957826 8.764424234680101 -0.12702920833807155 0.0024965411696086038 0.105555868955644
Ni 6.921019921862557 0.8197853557801826 0.15918539812842095 -1.1287484834765529 0.15694965004658776 0.002672404625840559
Ni 1.8041307913599616 6.494172838289216 9.124574138520199 0.4656067279042175 0.7401367821711512 0.11631490724436096
Ni 0.2966554143318957 4.956002218207065 0.9844977288030472 -0.14441295103215776 0.10776058991644666 0.7733281813214552
Ni 6.716239927003641 1.9191121749274913 6.682981987865155 -1.3072246947410067 -0.4164269237454571 1.2137496682092968
Ni 3.464525788187698 4.25846299534722 0.3381063662793008 -0.4147742186333825 0.7077655649292972 -0.4094183536381078
Ni 6.371749029941731 5.821054921589172 4.614727608979416 -1.2229688728147194 0.49405752704574263 -2.05768317055314
Ni 5.147320579937805 2.7818714148877612 9.357435009433763 0.2917785569347362 -0.029679015121671468 -0.3882106092122411
P 0.4250748618382858 5.736495922384038 12.14031174089655 -1.9689240614398607 -0.6539423484612544 0.19214239589763682
P 3.9748621923741703 6.126230597858558 12.430302513695896 -0.020128138208442753 0.19171019345622464 0.13071462760945873
P 2.316416186201355 8.744477448461085 1.2483276079696652 1.6086199488299007 -0.37311771943486066 -0.05230806537509701
P 6.511360216343776 8.071513637998873 5.298236818645673 -0.5090748263901813 0.3507720047498088 0.5750071674169323
P 4.878930969145953 0.9925801477236408 12.376236606421106 -0.09110729763048181 1.6654336153848348 1.160908098928233
P 4.239716424768723 6.117029548952768 8.039253763377163 0.4337260771455369 -0.2739790668594701 -1.198910032093303
P 4.6159532068238125 1.3192763068524804 3.335765493943516 0.9466884115155825 -0.7303977005065163 0.966916051416367
P 0.49028808915194483 5.631703680658981 3.390136894172126 -0.47566488347116787 -0.6364017684743298 -0.22067778433316834
Ni 0.5744382535731859 9.324152594598681 4.5953963412044425 0.20305544326571479 -0.14334465766864343 0.8885938213656955
Ni 1.8653472280701104 6.773141389054523 4.7212802878448725 1.0555414631652595 0.20574404584147146 -0.3672358067327869
Ni 6.416557684859289 6.0841595949307035 8.795735902685509 -0.03716015399006503 -1.3824240628919804 0.7200821775131212
Ni 8.713846567423976 2.2767383624962876 10.193695228545357 0.5685557553646337 0.40733678851873073 0.3208711034253183
Ni 2.288278200187983 5.525769239759409 6.79218801354315 0.5657493962640902 -0.42122717334757775 1.8305100083036154
Ni 0.7513621861832326 0.11220112573560272 9.459582969419099 0.7473533545242483 0.5383913159661115 -0.2202790062328529
Ni 1.4525691375034544 1.0288766992692406 11.761692657706051 0.6772540266040014 0.34178188543605653 -2.2862115612789786
Ni 4.274508174227268 6.853340088236322 1.3288218285251867 -0.3802880119310547 0.7364809305861187 -0.4545689820328171
Ni 6.037746422125141 8.086335032049087 7.821239668717692 -0.8252181853225272 0.6334804810624768 -0.5636212941774938
Ni 5.40029956694656 3.526077632591949 4.362496490477781 0.20990974718338687 -1.490786033837852 -0.356176977815464
Ni 0.9248912490245912 7.787033522962905 6.844754557774574 -0.0797371081203272 -1.3157201338065276 1.0211550152655897
Ni 5.13264422705261 4.729293812212083 6.271233689570123 -0.012385518148546411 -0.11114081924258923 2.692515280547505
Ni 0.9426406615935934 7.70431473353893 11.362296427626811 -0.900373587609443 -0.8962066007159469 0.7022459206626486
Ni 4.622516319540849 0.20032179204919456 10.410992275945272 0.06681088697696236 0.08300369468674093 -1.820780696830993
Ni 8.532717347535709 7.253164189752362 4.430188108698675 -0.9770217723918012 0.5206761580745356 0.03158523100544883
Ni 7.423379061973074 6.444849777110492 6.454021817783278 0.4898915685935112 -0.3569197695187595 2.485970078960977
Ni 2.5809803362658736 5.19583684963612 2.6919132583148557 -0.6589079199966459 0.2614287409982852 -1.3321294284024863
Ni 2.2317574711952717 5.0281873930216525 11.370920031394375 1.2514366412371092 1.01860808047402 -0.945365836049417
Ni 1.2137951195935892 3.363622462699668 4.061055624207593 0.5525449817586742 0.6698921869222915 -1.0316296895446684
Ni 1.711240990239142 1.2407455810683816 2.8479140963638634 -0.6294230231636515 1.2825888984701976 -2.310195582898402
Ni 0.9049589669220777 3.2426037406382893 7.994276498105273 1.1322395273489467 0.8079840808324279 0.5210165721330897
Ni 3.918604350493053 2.7753626926076063 7.244800753574547 -0.06357721053101309 -0.3801504579119259 -0.3115662810846247
Ni 4.251383173479809 6.864997771874594 5.837248767663364 -0.0034023408133296244 1.0878656292192619 -0.7010783827171088
Ni 0.47123783863419305 0.34085398984909876 0.3940677802794136 0.141388305273221 -0.7499874497129858 1.2474223778713935
P 0.08682164137940493 5.884863969124007 7.8376782717578495 0.5669434165721913 -0.7035276155885497 -0.8335328758358097
P 8.868514839769388 1.3862309346536295 7.988837454417121 -1.3180546954769752 0.017756552652472644 -0.660491462433682
P 1.641213302754187 3.3180795368842095 10.16441323034291 0.47406719996674485 -0.3914653687041129 0.2351286696511757
P 4.24425802624833 6.409695424739405 3.6597620743884702 -0.08770238571399089 -0.22064744531586516 -0.3887302291611369
P 6.765173190051381 4.420392391016313 10.182231537465295 0.4728407837588115 -1.0195089950217346 0.5919345392998903
P 6.676018198929758 8.175544413607591 10.14590507117941 -1.3169925727610479 -1.4963054209941844 -0.5422610833341629
P 2.522021102686308 8.592383656794734 5.824617495204913 1.4423557062506063 0.7597306451426786 -1.89632587835716
P 7.147927759459439 4.1088530336317906 1.325357157695834 -0.5159047048278211 0.5274502435735755 0.47047614018137685
Ni 5.502462937555679 2.9720566425168036 0.2385519236259324 -0.3237049733296877 -0.3345123483578368 -0.8169950260817864
Ni 1.864304744696548 1.0856421852279186 7.169983988122175 -0.3692070715265448 0.48894848795395146 -0.21837998943792714
Ni 6.917167265916783 1.0017540014109902 9.06786848204209 0.3344362437042627 0.005253020868823211 0.3230547413401985
Ni 2.8620338537783057 1.657503238600202 9.381568952785374 -0.0674300086182 -0.5744446100452428 -0.5260009127215587
Ni 6.502159167437985 1.997842332313489 2.2088917315302816 0.13382643376556308 0.7593380376899503 0.37092791087239346
Ni 4.360862057849491 6.6560297133758 10.17254641367126 -0.33429226192723077 0.9442193811497996 0.39907866227499655
Ni 8.455999636314326 7.26164909790588 0.25929734275982486 0.33130849670855844 -0.3638527491931669 -0.34796281743578783
Ni 7.686864468372775 3.5773496844255934 8.279053947529526 -1.6571068406866944 0.2733918268974324 -0.358828299395382
Ni 3.1911413222755596 8.52686131049813 12.289850995044034 0.3156286240794564 -0.6361526285780011 1.6024341317341628
Ni 9.03314562713693 4.962039556700913 9.80086664371956 0.06370833679223867 -0.38277863956339236 1.0547318227797706
Ni 8.780674284205736 2.5057039716218528 5.662991779475074 0.5824394553252614 -0.4800915517839538 1.1059541112898565
Ni 3.3992844591483165 2.545952894914176 11.54236503399589 0.5381342056499829 0.43749994236567236 0.152149400444467
Ni 1.1013972817779316 3.2796254980089765 12.466880989006 0.3027538249993173 0.30932916422398987 0.4529466159380457
Ni 3.4194270509401052 8.13100771087444 7.746861652789498 -0.29323302999307566 0.23540069236563974 1.9813275773105359
Ni 5.953087707119058 7.984017555202137 3.2217839879073256 -0.9264849399845141 0.06384897613516101 -0.4982242568289226
Ni 3.188240498975212 8.648106659379849 3.5973907474018705 1.1687684755129164 -1.4205216410946504 -0.28444062851242624
Ni 3.389321944126185 4.470866716442362 9.082357187920046 -0.4828701429703555 -0.7290599555316992 0.09235068311927966
Ni 7.5415604162438 6.401772551100329 11.306360395830577 -0.08382439081582338 -0.42990901739229187 -0.5354615439138263
Ni 7.992085470006229 9.020273223741638 2.108853213988668 0.7058547210598295 0.41136545006214964 2.1690939556276647
Ni 4.6457954265261385 0.1957620604239606 1.2343873389969322 0.13008445022462758 0.26716461504079797 0.43273928775223536
Ni 5.998884454973296 5.3887506641820515 -0.1523258575303801 -0.26792437602495794 1.3296598838160714 0.35197759502213577
Ni 8.008620162818211 0.011555248315478559 11.481241061028442 0.7290028770415186 -0.7099291482395192 -0.6126828275908351
Ni 0.26735165995469634 5.151862181417412 5.659595096691823 -0.8236855507280847 -1.1449253503467314 -0.021794213056956013
Ni 7.5035052405723635 6.0796633188151645 2.368301943464479 0.5154095103589574 0.37974808026718465 -0.42339461331254186
P 8.579447797889745 1.9061309906584354 3.5288234431471843 -0.23961164512319377 -0.7869486003183673 -0.6046499299840296
P 1.8676044312006934 3.301100655504362 1.7094832726205875 0.3706972829188261 0.23359989171147508 -0.2463145110646661
P 4.869920286769248 0.8708325938080502 8.201092508318121 -0.38448713761406683 1.606837145897865 0.2401729169433025
P 8.556875766583914 1.798664552453369 12.478198732413762 -0.15081011280775317 1.3127001160332812 -1.0069524985129625
P 6.58757934856041 7.868582917993928 1.018483593288464 -1.557398431650763 -1.2457262211158933 0.3888716398350077
P 2.0406113458479895 3.280695176600979 6.197027910025387 0.2934011801398237 0.19557533283858575 -1.18850272071705
P 7.110126405826783 3.9124582311254414 6.05214447727496 0.023681916997972115 1.1177271926653847 -0.7554060496253957
P 2.5867003972112466 8.287144525015652 10.242665658391632 0.7583353074570489 0.7016319412277335 -1.46110239073049
