# total energy = -340860.14656070917 ev
CRYSTAL
PRIMVEC
9.33591430105551 0.00000000000000 0.00000000000000

0.00000000000000 9.33591430105551 0.00000000000000

0.00000000000000 0.00000000000000 13.66405426827341

PRIMCOORD
 96 1
Ni 2.512602589837111 8.603866473315437 2.4699281261401826 1.1573000698620004 0.0016329076177326715 1.2640710421716683
Ni 0.33412583320684314 8.667276002396498 3.7472576341479877 -0.21472825161795278 -2.8731324494143613 -1.7217454026026864
Ni 8.95698809109549 1.4829819590605966 0.8293886114941095 0.832269949962986 0.8867361993316665 1.0706112130141885
Ni 3.5994056949395246 6.631775970592166 1.1541057103947254 0.24637596043022084 0.651888037035387 0.7143547881110407
Ni 2.1634954151525907 0.022179331307108474 7.125995927266012 -2.545045287856578 -1.8751109348424415 -0.11768067724363604
Ni 0.6056058151121924 8.824791546368186 1.49350820229365 -2.291974431904685 1.8394990991761029 -1.5263595600670874
Ni 6.659438284294638 5.664276512740474 13.040372244858164 -0.2222271310981592 -0.27043454404132133 -0.2383888284596862
Ni 7.865274295136679 2.2196416030049924 6.292816001025169 0.6121601223181456 2.3973868333039294 1.28734389665668
Ni 4.167552088013311 8.802945507197148 7.688585584222447 2.448802211661428 -0.9246730835867559 0.5059103126192707
Ni 0.8095778016133652 0.4877968477209934 9.95829476136007 3.662595074403834 -0.8224570776376223 1.075572927894838
Ni 2.698994116354104 2.1025225596713746 6.708858879574897 4.245844684335217 1.7267192016681938 0.2836021917715309
Ni 0.28902216464140873 3.306986191129594 12.637691860268053 -0.43014298777996884 -0.8340458109164861 1.1291140943460876
Ni 1.7720685415098174 4.411200776169609 11.266162978227866 0.939409361355666 1.2099200100505614 -1.4131556876478824
Ni 4.254460113074502 8.052450038444428 10.964337540885962 1.1047035267122072 -0.2154928976981192 0.8479768191752814
Ni 9.210644879248091 1.01655968684477 4.865441547569038 -0.42932434853341545 2.267163286398276 1.884099511494297
Ni 4.793879898229791 1.5606007495170096 10.072444050394411 -0.31177016956531467 0.40507756017090885 -2.504349352799113
Ni 1.221688393112307 0.15048373341458096 12.74033650226373 -0.6184829792123799 0.20254945016357373 -0.22425290327893638
Ni 4.054270105405887 3.9357693467742725 10.033569303766976 -0.5288391535013021 -0.29370405609222316 0.771538179300568
Ni 2.166566930916382 7.420016540357067 4.941701028921474 1.3240872748243002 -0.9000491143904885 -0.34598795309760416
Ni 2.355927278141234 4.4177452520067435 8.373455177868802 -0.21441431992195978 -0.34101029737735467 -0.7044997496938319
Ni 9.022488864951898 9.25581203202992 8.127543464116325 0.6179309633636518 0.7980264553990837 0.2724569737879888
Ni 2.2995663642627924 2.222787806082189 9.239797204852998 2.614380998137923 -0.32108733320118255 1.2567097167105905
Ni 5.3017256216430075 2.9441552226068586 6.362666377296017 0.6455633803689398 0.6463079718444482 -2.0229151709443354
Ni 6.510016977913247 5.026829628740787 5.28062365483177 2.2632531527105924 -0.5320136945745417 0.46061184579278736
P 0.5484196064206225 8.315386725287633 5.829850817828587 -1.2165930511953629 0.954631320511743 2.1530474436877634
P 8.138611190371567 2.0337915595101874 8.584934172958622 0.36987761523100815 -0.5130775197916713 -0.10588548438092088
P 2.837072287012072 9.03557781662617 9.455347592114821 -0.4145407624663377 -0.2759883839800151 -0.6170953548362339
P 3.1259814870919556 1.4486911462934082 2.621694614162499 -0.4267185354794522 -0.13585554838044991 -1.1485804306008154
P 4.314863477791003 8.688589894459524 5.438990634176276 0.18931418242022235 0.4644643867696582 -0.549591555557305
P 6.608436185153024 8.50005110768213 8.724198004716897 0.5724982849521495 0.3213398155316208 -0.4242698168286435
P 6.531816337513407 3.26507727239507 4.172072537657164 0.3421896623974365 -0.6484985517378639 0.32128916479934344
P 4.3189339363715895 2.821033186458293 8.105038309404486 -0.8221297762051906 -0.9361188635298523 2.6478945565143364
Ni 0.7964347016368752 1.9650138797781218 7.657034862265814 -3.6431973866035126 0.6423500156379647 -0.157737950275838
Ni 3.3453567983915447 0.6429214640722934 11.320053609215432 -3.330491592597806 1.577908635788973 2.2519958346292186
Ni 7.225446753022199 3.2329897353733363 0.39404373038621016 0.9884184442645172 0.9622836948506783 -4.472546820485594
Ni 6.010620256828999 4.9288025298963865 10.64726282132954 0.30471197716695264 -0.4172435061094814 0.2390416315523367
Ni 6.340131347658816 8.1436992635973 4.2882309154221065 -0.21881322032060382 0.8290545283494818 -0.54862559209961
Ni 6.825888298132428 7.062609737970389 10.800560399276664 -1.0185458597775168 0.5661263199875347 0.3401068117264788
Ni 0.5713308733991025 6.619004439999868 2.1855104343702076 0.5472863044628962 -0.8419419258351112 0.2238078453217178
Ni 6.749389817377094 3.5599147779764952 8.45578113625258 -0.2589121452240186 1.954538739252466 -0.9920367577433948
Ni 6.117572489625327 1.1026834951152062 7.9881834724420395 -1.0854737319483176 1.3343446908862504 0.49060067884539377
Ni 0.16279220266376723 4.490593390319396 3.612680431305891 0.37678822630791237 0.15600965473082162 -0.6062514701431946
Ni 7.8330840630590135 5.291465451963961 1.5117225708503568 0.17132700181418237 -0.14216606397951 0.3268820855060886
Ni 4.84665582106478 4.778886420063685 3.5412718909591256 0.8656117586482254 1.0615452461571782 2.2091039203616987
Ni 7.454531415064472 7.71374307215159 1.8780283666292723 0.9500473006854864 0.4214079218998162 1.1688849464861224
Ni 8.01241763845921 0.3469627151983716 10.25040431281937 -2.9779817792212837 1.0921118060901258 -2.07948175448547
Ni 4.094069107536714 7.144700431316941 3.6237752317122425 0.7777954730641895 -0.2094970851260005 -0.6480488657949549
Ni 8.06680867444659 7.013073377354352 5.448104353594553 0.10798761832558823 -0.16559267043356643 -0.34701793702401523
Ni 0.11098161335454083 2.6466943251420734 10.189722737860434 -1.0606260767770186 1.1110765201180866 0.5640686661275576
Ni 1.1602954214931862 6.59608477069863 11.995481792855944 1.522761558303184 -0.3765645403328805 -2.9152237221574566
Ni 7.4648102565718695 9.319370935737794 6.620220909616955 -0.05473904341409283 -2.9907069400974367 -1.799753700957365
Ni 7.162634722448378 9.383900774519935 0.3597995971899 -0.8830582362594469 0.20158965735346573 -0.16708133916395096
Ni 4.848429644758156 9.320892689748426 2.438733102513642 0.6560151718298831 0.11082174534027366 -0.6428801771098219
Ni 9.074088462600756 7.626676336549412 10.121333432158075 0.9282980819338528 -1.2402199465856836 -0.18330114345692303
Ni 6.708937301253973 2.5004752373229326 10.490004014997684 1.2851908548694186 0.37019771757458825 1.5105681015607855
Ni 3.7542605033711482 3.777544273325237 12.873179092251991 0.40050202498508447 -0.5172828161222705 -0.5304959723784348
P 0.8382007808845122 5.740401556928782 8.849360871704262 -0.2908647868712152 0.8400819898082371 0.8982655401275046
P 7.991038394996956 0.5021918937884391 2.7079015120690983 0.22631801333808121 -0.2533948149502152 0.029298234743485026
P 2.327480747648007 5.688204460772683 3.093186287775707 0.5721105625954276 -0.21540368041842262 -0.13963275603469502
P 8.079990985262617 6.233804621112257 3.456172232473759 0.2741958108559665 0.17621569736505135 0.7374975447760912
P 4.631397647916656 6.533104693669647 9.702161155176666 1.8112005093417258 -3.301970088119345 -1.155015901813514
P 1.361400348751015 7.463615259557386 0.1425258001712509 3.1373282116348227 0.39867217086519724 1.518954268741952
P 8.822737645249541 5.269918162046545 12.571967958062844 -0.5031867430405206 -1.955556381883703 -1.940119735613659
P 1.961055452167643 2.338151697550783 11.512101766131455 0.3552164136744076 -0.9190248841620431 0.5142473717300564
Ni 4.6746042587215975 2.215739190879568 3.899981053373309 -1.238665200504054 0.40004411151205943 -0.7580018353770301
Ni 4.783778439091731 4.906452351359864 7.923279263501454 -0.1820688137117187 2.1201591776001747 -0.5171992552695287
Ni 8.734737318229797 7.160338087561166 13.205543238453888 -3.1027049651339986 2.7551432397913715 2.045680746775625
Ni 3.5316176221100783 3.839030604086114 2.1407475266721847 -5.837838851682978 -0.2862262596579393 1.2620879503033684
Ni 9.009269210479168 7.118485184311696 7.560389478719412 1.4003428521539303 -0.6479781604580196 0.19382055493100814
Ni 8.610270910439937 5.159642343803683 10.161178180268363 -0.2678953225592354 -0.5667534120485723 0.9762242161911704
Ni 4.749058174272462 2.322093925168653 1.0626510951299888 0.1937472784909115 -3.5017273202497625 -0.9716633362933653
Ni 5.268909883315574 4.378310350528769 1.280443035385387 3.8177470091200507 3.4196006288513363 -2.245552650107036
Ni 5.181114946407694 6.637302831784155 5.781357278825972 -1.5512254700708317 0.8810777154943084 1.3183789115856135
Ni 3.207577376987198 0.3963216934450704 0.2890809809007154 0.2945759171742153 -0.4567289657986134 0.5797068868854468
Ni 2.513638876310609 0.869244562701407 4.798610405942597 0.4735498940106941 -1.4478185291373906 -1.3323955375796794
Ni 2.302983308851083 6.732323766263993 7.477448283591457 0.2944345065003446 0.529958611817726 -1.045518788821935
Ni 2.5783741052046145 3.3503235047329945 4.546440828918176 2.605574969810519 2.5659406432483487 -1.9891804976960514
Ni 1.028238915478517 5.092806534220154 5.955996756578648 -0.12891871205130054 -0.31116930275652216 0.459025475142274
Ni 2.143992690439643 2.5275120447756354 0.7979695259273533 -1.0067833199249498 -0.031162798756049555 -0.6030620166716195
Ni 2.017145624534991 5.19817166160662 0.19590669024482285 -0.8294769605988812 -0.5150513556885905 0.10146472960540591
Ni 1.0181654640829831 2.0157172296661154 2.998289520954406 -0.22520318300734762 -0.08393623380333931 -0.516588104048091
Ni 4.260267051691761 6.229033968968497 12.621486580441948 0.09916179250384213 -0.17355357715185593 -0.7285992138451968
Ni 5.650123266850179 0.4401967557049884 11.973646956781916 1.2566778350313905 0.05318378311183099 0.5592493903620434
Ni 8.223278596030601 1.3439608610708873 12.339788440471342 -0.2581958358832844 0.6970273525761866 -0.6879870967507894
Ni 2.51819480242833 6.778881970257995 9.859585207189431 -0.8332351420897328 -0.1254443803494549 0.5058457779299225
Ni 6.952333919727527 6.427216755089345 8.554285300311356 -0.9530953434831908 -1.3477252259582144 -0.6507192135382664
Ni 6.2750133462836075 1.1974710317406525 5.08805642108758 -0.3393719904429833 -1.4625023564018105 -1.0506864490658034
Ni 7.028244237889795 2.469339963547116 2.2227177867258714 -0.48775318209426965 -2.1415795522574794 4.361600376641998
P 3.3427987579074148 5.415549087272619 5.917806332460287 -0.013129081182790292 -0.11208415699246504 0.21632439246047905
P -0.06090750408198665 3.632529518434756 1.142569321247866 1.52484518030509 -0.3081086615533274 1.240124815768716
P 5.946706588382451 3.448247908521461 12.437499985416604 -1.506418083948154 0.5595530376453911 -1.2197169415363251
P 8.06035755775121 5.2955545823728984 6.927484516966181 -0.7558806752689692 -1.1228899678132467 -0.44204770963735485
P 5.806761234889352 6.482849467662085 1.6499071709299271 -1.6699405021162532 -0.7915914984070174 -0.21950176174719616
P 7.659202661537401 8.594661261938239 11.93111066461479 0.014967934163741961 0.2600830256036682 2.058185049890223
P 5.063650474249577 8.699867678783718 0.0947632632485894 -0.5277019545730653 -0.5607956518032406 0.3196436587761205
P 1.057320288135689 2.830901247741963 5.614259352544392 -4.694968841203379 -0.5673082561107777 0.8015385823174003
