# total energy = -381171.55318424647 ev
CRYSTAL
PRIMVEC
9.21524455408639 0.00000000000000 0.00000000000000
0.00000000000000 9.21524455408639 0.00000000000000
0.00000000000000 0.00000000000000 13.48744189609583
PRIMCOORD
 96 1
Ni 4.593062068643585 2.4782372216126602 12.502777187502394 0.5200824903545946 -2.432329410817385 -1.5372749214280106
Ni 6.169329607750133 8.773207470275851 6.863610721635294 0.8883588225367539 1.1235209165290263 1.3550700963590598
Ni 2.3388197904571912 5.429935265348771 8.020981821698214 0.4475002481114938 0.17480390461918927 -1.4415668918007238
Ni 3.558982643719282 1.148468252535701 1.9207600955968491 0.5940094195510479 0.5396293021382705 0.13412159640847868
Ni 3.6889913104349508 5.223126752559358 10.492204399342633 0.9646781632247837 0.9884413270826524 -1.6939582051870892
Ni 4.439655896626593 5.658224512623173 6.362363173345997 0.14850486171334426 -0.9005347957776555 -0.21828305884874666
Ni 7.145905908184376 3.4398203195556647 12.210990299314728 -2.6490299556703603 0.4303489331431879 1.1807439027072375
Ni 7.311264252070536 7.233542881565862 0.2774111070651502 0.19430597920785891 0.5346681014782534 -0.2249764117085222
Ni 2.4628016873945753 6.454458481924325 11.942508763985295 1.5186290241920493 1.2160163527562864 0.12094829225131427
Ni 1.6173675287260456 8.17202336202544 10.47232435279417 0.4443442189810154 -0.8177033650027208 -0.6164952593583898
Ni 3.4204775217504344 7.892377558215283 0.9576592469161025 -2.1041049523507893 -0.8935557933566611 1.5995071878953548
Ni 8.423636392646692 0.02444527857929224 8.056304774660209 -0.43058753151655516 0.8615429878954904 -1.2555828021949988
Ni 1.417986502849932 1.8517941287104447 2.714711448882587 0.8620664644991282 -0.09171227820433238 0.3238188731997326
Ni 4.565683577800641 7.621366438322944 10.673219443310302 -1.5250809504649798 -0.6598851963082506 -1.67894759071087
Ni 8.369644276238477 7.978733612637776 5.863503294857242 0.7909050138629541 1.1410530118755187 0.5098307307195995
Ni 1.1578401559982638 3.9765530091068 12.146439355976911 0.6968064948146323 1.2475681594206385 -0.2955647634500458
Ni 3.3431892677282966 8.874630449144057 12.308302357696554 1.9153227311746368 -1.0971917917161942 -0.048956375294044716
Ni 9.064685647779156 4.447986477482203 3.555599727533336 0.23263624224662516 -1.7289182662020415 -1.076716554580978
Ni 8.477941827361423 5.141433611757372 13.246906322429876 0.4468196771047015 0.7965781529883313 -0.3292498144073168
Ni 2.082571491948359 0.8876510358983155 9.303448020211082 -1.6151091560986703 0.30637136714724655 -0.39857601160696515
Ni 6.772356764862406 4.348139305390888 6.530362606251206 -0.43961107517140413 -1.0217821073266273 2.6162509614671263
Ni 3.00921959871479 3.2030530475167023 11.022112278958296 0.8077377691495766 -1.8934917513424745 3.8182581444285146
Ni 8.962672893275153 7.144744787401403 8.909466837206521 0.13733444691882155 -0.0183443068351426 0.149106242742769
Ni 4.878430539169821 3.2016984066032346 1.0049887416886907 -0.5743749331495721 0.8491263593986925 1.307052945049833
P 3.6403256052375137 3.4007200379512854 6.720576307088423 0.6019710976002858 1.2576772228301822 0.1990895166394313
Ni 5.135056662695334 3.433535522936719 4.876344207858193 -0.8683453555293045 1.6902797278942372 -0.08820863592644808
P 3.023337352996644 7.206560646228218 9.006765072721883 -0.5570438980702922 0.8315824369776582 1.0403876382429567
Ni 7.974024622795722 5.88234846946977 2.2445257245866634 -0.46623536262715193 0.9941280930547848 -0.5446146711680039
P 5.3504537831810195 7.7486381774787505 5.2945089565036625 -1.1336729173613636 -1.0678120530024964 -0.3249249617797178
P 8.067061729342461 9.109923282093531 12.536779595954867 1.3093579390339256 -0.15806833703206324 -0.11660235657779273
P 1.592679889221419 5.622893265941299 0.0745752860974782 -0.9614858815397312 -0.8054114350092452 2.195779692448967
Ni 1.8354555005500477 1.0825516099912453 11.830374906656383 -1.5468491953800068 1.3996975052604474 -1.193295514120003
Ni 8.183247529594173 4.23203644233796 10.533367974147865 -0.051874834492420335 1.3991136077325195 -1.6183983683729033
Ni 8.891521991963014 4.921585528270294 8.174953809715799 -0.6132446136315761 0.35320092590627555 -0.07263006476190072
Ni 9.092819788655461 2.2800265317638284 12.68367059024518 -0.6546589149123048 -0.7673722208483365 -1.0747036379160073
Ni 4.20620611253898 0.15381809343761915 8.168035004288372 -0.30458856421521097 -0.01946170826903745 0.4906654706450582
Ni 5.393249377753429 3.1740987498968676 10.268973399669607 -0.2585192806609741 0.15354088147535494 0.9164080153644864
Ni 5.023100659581592 7.18096069753697 12.905377388509446 -0.5257947102480235 -1.735135193646031 1.137990313789795
Ni 0.5779229885648651 7.8960175797174585 12.770084700706823 0.41995062062799937 -0.1652517421543799 0.7143208495493117
Ni 6.922058408667057 7.558813359951385 3.929458503064099 0.8085512661898074 0.5135989395127799 -0.33419610266899863
Ni 4.947508010512367 7.0464549915983605 8.236847998119243 -0.40118208177124454 -0.37706616255964737 -0.14301915600842466
Ni 2.326038246600186 2.4401598321266134 0.2983251040251169 2.2068601186328443 -0.23184819912769103 -1.3419644122150374
Ni 7.841868804155985 7.174933927758685 11.110293873278462 0.03312866423316875 -0.0052967296225650716 1.5142972295859147
Ni 6.919303050618576 8.97584147739315 2.138582668384743 1.3991902266067258 1.2839790939495048 0.08996032851023217
Ni 8.940961777682432 0.8618299213436441 0.9873793313380406 0.6266184638353208 -0.9033059307648895 0.5383535207496406
Ni 1.5807922240624157 4.177132016743124 9.736772767269787 -2.6699327672612982 1.4722249830062129 0.15076254739926936
Ni 5.294821353285747 4.588325433068603 8.566804428236047 -1.600820764500456 -0.17815379492802866 -1.638591041270694
Ni 7.082071910853823 1.638193980865074 10.388351360550061 -0.660065944860489 0.5816275009469274 0.6345462033228298
Ni 3.1710208582975596 2.8587070134109185 8.986803932023498 2.0737754481293127 0.020891498737028537 -4.5981596080921125
Ni 4.137994874161507 1.0853714747498926 10.291970041843477 1.0027641714632278 -0.35228509896022553 1.625152656377601
Ni 1.457418533249446 8.343067511650442 7.631450680170617 0.3776958257238463 -1.3300339793260383 0.8817719133478557
Ni 5.849118298490417 2.12483260235083 2.700778921011349 0.5976308183537191 -1.3515628545367497 1.2419757529345257
Ni 6.0458729797383794 5.5860322887040805 11.385585474152473 0.06076570922414695 -0.4506403364023723 -0.4149174290794661
Ni 6.199269936511063 8.696813094951716 11.751190155355392 -0.7896379742250723 2.018019533414931 -0.20869515804999542
Ni 1.633383623335617 5.679963273948823 2.529043628063149 -0.12121363009755899 0.1664393347045779 -0.7551633374869704
Ni 7.779048483699455 1.9370259233272027 6.697296756914258 -0.013972660130008195 -0.15563427366927388 -0.07021374201092424
P 0.20992602993925097 2.594349299909898 10.15010872789718 0.4021076789093075 -2.1670242175828296 -0.17648154943192831
Ni 3.385118629335633 8.065780810383467 6.27596288575082 1.1944167722086396 -0.1276861251957801 -0.3275896530960745
P 0.8517438364471103 6.234435308795369 6.484438436235786 -0.7997910034986742 0.8892872478882942 0.8635109102551387
Ni 0.3039335017117597 7.938545932204899 2.0165341297034516 0.12431360917912138 -0.11105417306605389 -0.05445930739014492
P 6.822220451820052 5.745603459163998 9.238236343856288 2.026939718722696 0.8703053074691529 0.3416900970531986
P 2.065772101572497 0.3475639974185931 0.5335608024598729 -1.3728492747193517 -0.2856963552963983 -0.1316685068822958
P 2.2819985940460192 7.780956039271482 3.0479457414002114 -0.17538831636774957 -0.36214990756944726 0.6079070034687466
Ni 2.625671915317224 1.5323568999727109 6.589950219004031 -0.2590335012932313 -0.5937672216332548 0.6384146851393004
Ni 8.72751828899032 0.18960825928609626 10.267854669010458 1.9075320314856248 -0.5753367828422091 1.5590336532613407
Ni 8.787122489182902 0.32423744949845046 3.8928933351692097 -0.25832464815166484 0.22747500976065985 -0.16050599993927842
Ni 4.249103074798792 8.753726443805983 3.6046810402491234 0.17320673533539846 -1.0224745054079618 -0.09270806645869839
Ni 0.8778699755884196 2.9621757765157897 7.7297063795697145 -0.15457549338745635 -0.7835406030780828 -0.08898947995653061
Ni 5.14518421619126 1.704663538068088 6.595790840847268 0.030548047990186098 1.0669707880481236 0.04737591818080228
Ni 7.028678785325712 6.689594655720541 7.084251316132973 -0.12410277871989593 -2.0847525159661067 0.7201526257397404
Ni 5.502155135000791 7.190738071749142 2.0391123997856786 0.4793685575750002 -0.387362659389649 -0.6767758014160021
Ni 0.5442302123211857 2.560308187431327 4.965158889462409 -1.1364900750951847 -3.5868017814226034 0.04920114431499913
Ni 6.843249639333885 1.4377163409161529 13.175099295722914 -1.067709208876045 0.08992767550008383 1.2639640842801585
Ni 1.9123843600441222 0.10902555542338241 4.8245121447160795 1.4556400820643383 -1.0003164812536838 -2.9800733716429906
Ni 6.415533289961823 0.6611882500460176 4.7328241499362225 -0.2923966501347093 0.21350774894729035 -0.8275936275332392
Ni 0.7581095820691285 3.6124494912018674 1.0366799668683893 -2.1222705675162223 2.155396917756546 1.7379448951806842
Ni 9.033915947030387 4.518022334232919 5.7744324294612275 -0.7023011993806163 0.8870408750562787 1.4743934514124413
Ni 6.714614044020303 8.016893939322607 9.369536987824123 -0.2895195856972304 1.1245115625770696 -0.7591344063195764
Ni 5.177262481631948 0.02647816147392483 0.7319751492079406 0.8885459988468956 1.0941450344700703 -1.1031446668655194
Ni 0.46281629342177266 6.055880735058285 10.917679601298671 0.9399343806212006 -1.0133602018115193 -0.214154895612986
Ni 7.3480699378419 3.097943970924774 4.67779531854321 0.7964151450479058 -1.1057682205312955 -1.6291502075727684
Ni 3.7906723161438176 1.6987381359772051 4.318988723067266 -0.8974476722118995 0.40861231279704463 -0.278923555348939
Ni 4.5173311909097205 6.0353307402485346 3.95462533527281 -0.22024763877428524 0.359413996695523 0.4861444428462531
Ni 4.111694566902752 4.71980853887376 12.807660780902443 -0.49459360205487085 0.8983835537626077 -0.10941766590389541
Ni 2.3220111848370197 6.292749374784649 4.944415374522165 0.43073974082370337 0.9698329679528458 -0.469840563479907
Ni 2.102209177571487 3.9910854493825734 5.21644293586182 2.5809224613691617 0.559868769113597 0.0025160815536343765
Ni 0.10627756957034777 6.755262486668645 4.216093148158432 -0.1401873429865844 -0.26942975692589083 -0.47186633566068414
Ni 5.948615291297979 4.631931969140233 2.6612879130482554 -0.4184336697628407 0.12563078532864813 0.13598256087661742
P 8.59923287296049 2.3026868175204083 2.6567696787634034 -1.1159328197691232 0.3730020197926028 1.07892796041
Ni 7.421349560589489 3.5120678349406123 1.2504045205119354 0.7705657880849697 -0.9535342307928223 -0.4482677224051377
P 6.125299170440275 5.024178843165781 0.2408063136197306 0.02722335449232731 0.8196028960182787 -0.07834074199343281
Ni 6.781783959790824 5.442984051290746 4.6806409859859235 0.8565254800762411 0.4831555354212583 -0.749046425955955
P 3.66475521790148 3.8228888102491463 3.0081985496453187 0.39552462637515107 -0.6413894514969082 0.32602822214622557
P 6.316119234353045 1.3300638568948568 8.4397667562857 0.07631805513644921 -0.4538318467564765 -0.3776462034328335
P 0.5815501087250073 0.447572436285321 6.248839657175243 -2.821576688824257 2.336984420956472 1.0287945340887186
Ni 3.859934092372551 5.618792482223659 1.71279691269548 -0.28488105848395456 -1.1636591793108089 -1.2879277941846077
