# total energy = -340871.4308751991 ev
CRYSTAL
PRIMVEC
9.28382634915781 0.00000000000000 0.00000000000000

0.00000000000000 9.28382634915781 0.00000000000000

0.00000000000000 0.00000000000000 13.58781828553998

PRIMCOORD
 96 1
Ni 1.2290393321071447 7.693163274252391 2.065797086613693 -0.32758785332386164 -0.5742384075717079 -0.08312556497658588
Ni 5.108963831047464 6.126870387607675 13.572559348634897 -0.19397225001752402 0.04896100327973503 -0.8387786976157813
Ni 8.68761888581957 8.160938141401619 11.590694549589893 1.474396536736235 -0.9126950852892733 -0.7455790362326449
Ni 2.852539155825125 0.6816370876003381 4.4706636441705925 0.5782035628670429 -0.7094385817563459 0.08177419315501401
Ni 6.0635918281965475 7.71305851380903 10.89263344505085 0.1442414584513 0.015974521051385394 0.09470015718806271
Ni 2.933679796854066 0.6558057695684243 12.920329708920518 0.7884622087494163 -0.30382340391441226 -0.5065438324382115
Ni 8.977803441499391 4.581865314450303 12.26622566469541 -0.1650666227267673 -0.1610238201159614 -1.1536632444403614
Ni 7.076977161395078 7.386546346190279 0.5277483844314895 0.3775117347374983 -0.7637053135197105 -0.8897243354257129
Ni 0.6968105731492743 6.9226428345684035 6.680477941549693 1.339934526269202 -1.8712535087695643 0.4961455199230229
Ni 5.280863157053401 5.276499758737199 6.483128862768856 -0.14915946457820764 -0.5018145452833422 -0.18912443500691944
Ni 6.228444730113129 7.1669931402756974 5.10098902433764 -0.3449057757770189 0.11018873974196508 0.16786012631150446
Ni 0.3431896330128455 0.6672053797651563 7.267716155918181 1.3214498372014531 -0.5116243322849123 -2.228487209984317
Ni 7.553404554567072 7.214814129056027 3.029566867426529 -1.001418970289243 0.6946431686147263 -0.0311892811186108
Ni 4.388919554438346 0.3744064986260968 10.887116995520026 0.3168558116183382 -1.149257144952866 -0.15319481098984586
Ni 5.074725080004588 0.8994180110924453 6.211059837162236 1.3522472821982843 2.5107424008096504 -1.037443468012968
Ni 7.778017445763206 1.1208549053439574 5.495511717584047 -2.4723239489324516 2.163437014452203 0.14190921077369753
Ni 1.2682449301695269 6.473612012526434 11.710579382518846 -1.4291916580648225 -0.2759688435959892 0.4656841181093722
Ni 4.945262123580264 5.618413794029521 10.130003329258223 0.09364163401656131 -0.23497774589560821 -1.1451642058304148
Ni 5.1442238029728555 8.210532340987044 1.784243704156368 0.8526857946151766 -0.3718457947009725 0.03785846560867028
Ni 8.7352449142496 8.89605006794094 0.9564699082680924 0.3492900208876436 0.23691995722364356 -0.922214080523302
Ni 3.340088572790331 3.609300965073769 10.330831986100575 -0.2568485778267705 1.310740421203749 1.1956079643032635
Ni 3.3313617761579275 6.354723334149246 2.706285471327009 -0.20382394600062317 0.9848106723086006 0.08141603848464687
Ni 1.3347449772736812 0.8175068124885149 1.9856284621883817 -0.2425337038659952 -0.39063567371396596 0.0696252164973059
Ni 7.5615743216271945 6.621085591787845 7.195945680677626 0.7139269565450027 -1.1514991469095073 0.3404821927880265
P 7.752291963350026 1.0145458114741162 10.657631952331672 0.13207088452703708 0.3136241920549179 -0.2861707238296555
P 3.497449426959731 2.204602357347791 8.524657099300883 0.9289089760449744 -1.3724890631664555 0.8174830214617986
P 1.5097915203630055 8.39682159761024 13.019874607017625 -1.7746995862022144 -1.2809721888023808 -0.3669925803737292
P 2.1835187880369524 2.4672139491996985 3.0605878443068613 -0.47900551780862666 0.7639320848185359 1.3036315780731096
P 8.553012689677852 6.347751180669527 4.9735220905473225 -0.33547496938142224 -1.0009975664811084 -0.39606995735565986
P 0.9058006416081659 4.1443835722069595 10.4386506301113 0.0266494842667283 0.40897021035709563 -1.0125374487999077
P 0.6097821295413218 7.446733391475249 9.422499645086393 -0.610637257915716 -0.4072223744280535 -0.38362453250345546
P 4.0470612221032525 6.428455481866849 4.911113425651573 0.06465887363096606 -0.5772995629955348 -0.7114545837451102
Ni 3.1279717116657015 6.672304460959089 7.789624085284303 -0.31063168508549727 0.8932593451621648 -2.137145684855842
Ni 7.130516987117493 4.668687657116511 4.966931502324618 0.37080398370001943 -0.47316628541903033 0.25552060304396634
Ni 0.8072676805673684 2.70795284651337 8.617951197214378 -1.0898124685329875 1.0089618156335074 1.513202196749523
Ni 6.9228470787449075 1.1700034812715565 2.7758826028530454 0.9582552904175756 -1.5515430013112503 0.7978076545200583
Ni 6.708427828721517 3.427040889023405 2.666296318332951 0.004250290635921712 1.7479441724852414 1.337685325223709
Ni 2.1939073895599943 2.602052240996535 6.823625257799723 0.02762984590212661 -0.012070558011288889 -0.9913299614843573
Ni 7.832912710111505 4.029143437528211 7.30717520243595 -0.7094447524039331 -0.31212523891188826 0.06137197534957817
Ni 0.44947923084765673 4.446098640032997 5.05863620919187 -0.2901731601208293 -0.061547581695494 0.5090452587038266
Ni 7.754789312599086 3.4287398292188622 9.929474540002282 0.9540309679235827 0.5375454230260484 -0.3099822244269565
Ni 8.104046854419312 6.205448692604125 10.040107111735644 -0.2404685938068504 -0.9462942614009574 -0.9817870549909286
Ni 5.4332942995081135 0.41854088002054596 8.510987593597106 -1.1981147898855173 -0.04755795228462132 1.3837402106002428
Ni 2.36303085153073 1.6022862808402762 10.596365198059098 -0.6373440777829411 0.14976341671079368 0.16496892080663847
Ni 7.201269026623392 9.248649787194852 12.738484619901502 -2.6793478899276115 2.29221251605742 0.1584079797596691
Ni 5.075579192015419 4.755064376124895 3.7404953550852666 0.22240762254008148 1.2525733259447136 -0.300403836709902
Ni 5.691496073912797 2.7544091128416106 7.7079886163186515 -0.391757446023235 0.7979243826035807 -0.09911679819851962
Ni 5.711892640084488 2.161191186014687 1.0538126827894494 -1.4995596662654238 0.08139701232125336 -1.9576464316435127
Ni 2.1292455400443675 5.211085919298993 13.517772705053192 0.1737132426581718 -0.6455219856080432 0.24396426566493465
Ni 0.22563689722651112 5.249242445000245 8.26911142757336 1.5392443864495555 0.04679484886635167 1.050777466117713
Ni 3.1238404090046172 2.1860532725908315 1.121716444415752 1.2642309647883 0.46389540164006554 0.3978928694970115
Ni 3.251474451666618 7.626718930105464 0.5059100400502105 -0.5163477059025108 0.2585336788386773 -0.7428510957785207
Ni 3.704311642452509 4.350159580033789 8.248593243278387 0.097549967932032 0.36441993455054655 -2.170030865619637
Ni 4.461537643011388 2.475578676610119 12.037284653722653 -0.2278449915055689 0.36040310008166965 2.3704982364432015
Ni 2.4465295844156616 9.269946884508398 8.502020345866 1.946326378645003 0.13289492309022918 -1.7248320119478102
Ni 5.222755688838281 9.273261210463472 3.874715344056871 -0.4758893407771481 -0.25036708386748496 0.705879660760494
P 7.492103450137541 6.2944155991236155 12.02136010663376 -0.31369772560533077 0.3769319509746283 2.431282714720426
P 3.9570452432226326 4.734073645076103 12.34498129077237 0.7057151101581717 -1.397804916223425 0.026450737992360897
P 5.089402809234194 0.35501351406713155 0.12704080616752184 -0.34583317268729474 -0.34982275346266206 -1.04544936903658
P 1.8170768839118547 8.671743543009558 6.330931672734501 1.4625859172545521 0.5590519296392565 -0.9540080851054474
P 6.003154119604051 2.6824594597553064 4.7462113194561075 0.7524665073810977 -0.34215675227697206 0.3924195050872661
P 1.1304265301609868 5.398971994029395 2.068160748765406 1.3501688024027003 -0.157573913894148 0.38560711015112303
P 7.84275356588847 2.4853823970822657 1.0942790244504277 0.6455461539777593 0.022364740848445353 -0.6402368259497038
P 6.706673185568832 8.885011598583569 6.982276563811574 1.134871308544839 -0.12575316983912538 -0.614521937682103
Ni 8.496084267390726 8.303147791204974 5.681121398129061 0.008911443557016912 0.83312175644032 -0.6586860337938268
Ni 7.144275617552835 4.650184991490574 0.4071765483633918 0.8125681006586845 -0.49425395932726496 0.4165451944908762
Ni 3.6766829756673687 6.677670512505397 11.631280652608913 -0.43036101732804594 2.146452821189381 1.061172950419424
Ni 2.8008560953436468 4.45559599424039 4.106319884767753 -1.6599569085409798 0.033057958896233385 -0.12643116974275645
Ni 9.217632523845003 2.722147816780332 3.14491376610663 -0.28400379808532383 1.2900924059360945 -1.3886610449406278
Ni 5.463578140587794 7.276607276274406 7.802369850280713 -0.599424162808716 0.23119925268978248 1.0794370388359347
Ni 2.0952110331779945 8.405372001544755 10.653827440352993 0.9887609152056004 0.2401502912354832 0.9551085172584778
Ni 4.362182134968855 2.2300307573224214 3.3874156620165707 0.5213294753878183 0.569879873492696 -0.9120258271363906
Ni 7.238627143271043 2.5302696967819154 12.29130963471785 0.5276453903035171 -1.2198611804236732 0.7564712576651166
Ni 0.05585985389096558 6.325794931695449 0.4360278950596895 -0.9911870081485897 0.3799853930889714 -0.5211379282023024
Ni 0.4782637339952807 3.3888193765387196 0.614310779963967 -0.3472501076394794 0.23002811519981675 0.8397068658570054
Ni 8.389218143948604 5.108369666170364 2.918200873422996 1.138107813204266 -0.6654094685605896 -0.566328922916644
Ni 3.900506741636105 4.518094712250325 1.4287186512653582 0.929763867846102 -1.0455236739179414 -0.11583873893889081
Ni 2.468931457047565 5.88669780369249 9.73485676289086 -1.6908240304334814 -0.7210563685009325 0.784002887426482
Ni 4.060866271669618 3.2545195466617547 5.6278702994016125 0.8524322838434738 -0.0781399388365364 0.7296425675080467
Ni 7.789167321035032 8.425898541283312 9.197934101403902 -0.4150979205213884 -0.09607261205555712 -0.4522776148954792
Ni 5.644185695573725 2.347025535153854 10.09894150354259 0.5287460795668636 -0.45484126185759727 -0.300233886790941
Ni 7.743230948974254 1.316103054254675 8.257887281691898 -1.2402034915254512 1.5367889829305272 0.6225543210682761
Ni 1.8200755597759677 7.3540436706476795 4.410198084099483 0.6509670678830144 0.5667387567605531 0.8975662000676348
Ni 0.5164722491232798 0.5261552798547657 9.51016867270247 -2.097052159269066 -0.11726544408308835 2.3800732817261463
Ni 6.270389056905891 4.531806923554644 11.757226895666902 -0.8500578700740263 0.23567708595547798 -0.4545784951145139
Ni 0.2993374799350187 1.0067659651145906 12.650394106575733 0.34667675163451267 0.4436106832491005 -0.029831224428819594
Ni 4.142786754099753 8.283939554787484 5.98305556425353 -2.187480428554652 -1.5122781422733567 -0.009216890612577675
Ni 0.5512949528344305 1.0411068382457183 4.4322378875094035 0.04621352244158493 -1.4325325495125973 1.2142816294533667
P 6.170597209031739 5.025483665814942 8.551058444261765 1.0530138116473995 -0.7301609019053619 -1.148663734343241
P 2.042423197378159 2.7042950189887245 12.966705205960777 0.11374688940686861 -0.39885420496901625 -1.573302504475529
P 2.1531606763476345 4.879662607617964 6.487422632388522 0.6219526829285353 -0.07912132891319922 0.2162698850734598
P 9.224558258193698 2.6353069064617145 6.44040840810538 -0.05555434022653658 -0.18409895676787003 -0.4023889575951522
P 4.18128678137058 7.8264883023778635 9.528851444556775 -0.426066246607434 0.27760380809625096 0.7613411841629081
P 8.594437122203152 9.016749092428041 3.047204280450188 1.2979227006137906 1.5815662871462182 1.135069283488258
P 3.1490367133241306 8.644746176406338 2.588805149385071 -0.15110578967130103 0.11778969201767456 1.0188243102498842
P 6.086829245186872 5.9158583018014035 1.8441661603945034 -0.5651475010140331 -1.1980021755670527 2.061260089271121
