# total energy = -381170.410377418 ev
CRYSTAL
PRIMVEC
9.23875297775369 0.00000000000000 0.00000000000000

0.00000000000000 9.23875297775369 0.00000000000000

0.00000000000000 0.00000000000000 13.52184885040071

PRIMCOORD
 96 1
Ni 6.010677273696723 9.100624410581228 0.5266597345283212 -1.3314056628625845 0.8331965755423135 0.2166288110747753
Ni 5.861009474986795 5.023913781300965 12.454555980380425 -1.8115134125964545 1.3810066137191637 0.6663749177976523
Ni 8.168711394786756 8.920422533183872 0.7366649052502657 -0.7736346568182806 0.32740041990340385 -0.4087776347303153
Ni 3.549972365351384 3.0228275962902065 3.207342123591129 -0.32279351725901184 -0.7896935100533561 -0.5622241567196511
Ni 4.171795875226101 8.535674664216284 10.598168068837245 -0.8226949046800411 0.7083841723499027 0.1741845258676355
Ni 0.7528706018994684 1.531563518452903 11.297504716438894 -1.740824016500692 0.2619504178297102 -0.20360180268748804
Ni 3.6942816873173765 5.76252436793446 6.943794099007979 0.5419738911110473 -0.10038229517450455 0.14763685728609413
Ni 3.3101250985422213 5.195394275859914 12.785841033448346 -0.43863662707327683 1.0108240656532268 -1.0525186171785357
Ni 3.6429881306237024 3.9801194665943185 5.257186751470499 0.275022677632636 0.3305410224149146 0.9927908623006
Ni 8.461949415222135 7.701655475281712 2.7513717838189278 -0.10345039257686699 -1.1694652444696245 0.032939173930181975
Ni 5.783052877115537 6.833933315378388 10.59685616591028 0.5223535457769584 0.31063374196802634 -0.6394187009237826
Ni 5.5394361990796055 4.232171126125446 1.5082947951300125 0.43267963815889354 0.2937289957928877 0.05004960835822348
Ni 7.774115015113933 4.642824458524062 0.222969912816367 -1.4769609550293015 -1.3601891627531801 -0.1114130990673694
Ni 9.201622458451409 8.193674505411092 6.8224079710024235 -0.16322031354664793 -1.9406570961743674 -1.491402070155296
Ni 2.144674884242221 3.8945131812334424 7.3328038047375985 -0.49019470165622664 -1.2270350724642933 0.3716406206687019
Ni 4.126692283046974 3.49738538323676 11.215872942621537 1.1629999484602551 1.251248179375387 -1.794814868894851
Ni 4.516429078638227 7.460403918015518 8.425626333900656 1.319033771560793 0.23941881238609733 1.0232810604696572
Ni 0.9562848462263722 2.5726324010225476 2.508871147146216 0.29243136002738673 1.3693800852238287 -0.06478357213428843
Ni 2.7696395701392453 0.0902108798594581 12.617804746010327 -0.14261857813589632 -2.753363265072813 2.338392099937276
Ni 2.3597068604751574 6.886307806173857 1.7586114168464653 0.2943964541735575 -0.8554633573603138 -0.8038803430766993
Ni 7.685838730134096 3.4920731002578584 2.8001856592055807 -0.6154207953472884 0.21830594166688208 -0.6589624273836651
Ni 7.668700843306508 0.9981456361001181 12.156074967613694 0.5594782185433977 -1.4738496630938294 0.28498338838977366
Ni 8.140893509483323 4.018183128982276 9.144812442337383 -0.20708359058850143 2.156890471582937 -1.0765396626834816
Ni 6.916176694644794 0.8801732273305697 3.00965221062723 0.3742091527268265 1.4118305410785557 -1.3936428144259354
P 2.5662669002008722 6.308645535671574 8.893333585492677 -1.3465779997276486 0.08897328200661452 -0.20345139315255284
Ni 1.9065367867393133 8.782802068394794 10.053372662156603 -0.4070079444244023 0.48571301173578924 -0.18771829868801218
P 3.195324353679902 2.711666395021665 9.362960649959508 0.42050777868304995 0.6460781152218292 -1.8001558214917899
Ni 1.1599901112729898 5.925209569630948 7.243356969751801 -0.2574026505580277 0.7823195861867882 -0.4454240823087555
P 1.6316284522693985 0.710315981674913 8.271545182879386 -0.85883073117065 -0.6498987745195001 -0.8960549056294309
P 2.7516055242699995 6.437054963712889 5.189145183326125 0.06373867580954184 0.055478492683278646 -0.9844437758874853
P 7.069133489425138 8.126628874840847 11.829238374118539 -0.013815565726853626 -0.09857583809338506 0.4474398271872036
Ni 5.567272561889051 2.4244243252876916 9.48319747709102 -1.2013122137768923 1.1932649179923835 0.5006390369180024
Ni 0.39016270210486675 8.587698082397493 11.91403349696542 -0.8188367072762156 -1.0637656508472648 0.8456610265579113
Ni 2.7684754872603903 6.6368245199786156 10.992222133708568 0.15932354959540304 0.12246267201331167 0.3939505970198119
Ni 1.2504190257034078 7.365512685882822 3.874834637328989 0.796963561352208 -0.3399150074306469 0.23615813935695457
Ni 6.934811259459481 6.8055149111295155 0.6215639009152264 -0.5108429740341976 0.26822699486704127 -0.5835141764466789
Ni 3.8546017682441285 0.7357853759640197 8.358098440423458 -0.26914025070993003 0.4460187784699609 0.9074472066267726
Ni 0.39859583584946073 6.884395384301452 10.055063353956843 -0.082919876723683 -0.050206188540745794 -1.4268774081093492
Ni 4.337853221770067 5.274108451477728 9.560718005820357 -1.506919963285237 -1.3974539606419094 0.6265192192532951
Ni 0.6918393995366423 5.657174867398082 11.99512387985658 1.8228550628615185 -0.5112422663551454 1.0681542668332635
Ni 0.6894558012608916 4.530841533328813 0.6444889426262643 3.1202990240666777 -3.471527399627615 0.47520002801960737
Ni 8.058289818849653 5.663383309418642 6.973582610327758 -0.24864701585258467 0.17320724955603073 -0.53868827838124
Ni 6.630542167934001 5.8361017968805005 3.017130057310922 0.04735817756898941 -0.7437484107818094 -0.5482039311811591
Ni 2.7902974218624177 1.6486185190488776 0.9735890306080818 -0.5157617514920536 1.565819822945239 -0.33829264133587544
Ni 3.766122230698142 7.779482730610876 3.5861836577614805 -0.5941839974556994 -0.23356389626721713 1.3747878865029615
Ni 5.0951076119712555 1.8944617365594443 1.8139155162203848 -0.08537656579429166 0.08652842001054775 -1.059013737984576
Ni 5.930632717645932 5.476732782422551 8.048177079808426 1.3664665111214596 -0.7537572011680631 -0.7825540707950974
Ni 5.090515951726883 1.6331620852685251 5.4994166926801125 0.5946565662167436 1.7751500434760719 1.9450143447017985
Ni 2.160925850781157 0.6337119372438488 3.3025761134603764 -0.06527105329366824 0.13367859533378912 -0.5410606352681584
Ni 0.35171470759182744 1.3475367973107388 6.3230330457290425 0.33937507576677683 0.9240655319097442 1.9319693385923826
Ni 8.707256785058307 0.051050577489595635 8.593405784005085 0.21443771696072744 1.6364449414619686 2.0156877999579605
Ni 0.4269828283381104 1.5132153549814265 0.4395613905568491 -0.4973320840319565 1.8762661314928073 -1.5286097895538449
Ni 1.7900176338177325 9.033449437468889 5.415784728836787 1.8737220249147146 0.020171846962184617 1.0580716857862809
Ni 0.5584188718644476 2.501004348960938 8.63785157697013 0.02743444206186888 -0.08562673413188479 -0.03253911027828589
Ni 1.0454942452598948 8.756471622325455 1.1781867591951547 2.5584625897037485 -0.5733449492231609 0.7256702131238599
Ni 1.2208734935877072 3.3123516380168567 4.795091118454799 0.5229613545642865 -0.7867935627977418 1.3013335260675523
P 5.633486704688684 3.7996589041127735 3.857580342213516 0.12777379981357995 0.22201552930798538 0.06531939003310042
Ni 5.835593665465127 5.7138453783417065 5.118209113864723 -0.37116368103228337 0.24495953969866843 2.235043523045596
P 8.960971420130656 0.883115770163231 2.658625790134408 1.180101384027232 0.09233139984557003 -2.0021679110946553
Ni 4.355979655169381 8.387983958649807 6.219292935966447 0.18586170509524766 0.15748341106287073 -1.5291101262290312
P 8.813871994756614 3.5530303925966304 6.431680781088842 0.31047947577834917 0.13167339197830225 0.3012093633303329
P 3.0341265912175057 1.6938976475351342 5.1532711054007745 -1.477419896943591 0.2425604433388726 -0.7777396801255896
P 7.4486707016969005 7.28895113971559 4.9833556556011755 1.02809776513201 -1.0801073254300817 0.03624766947812467
Ni 9.170192220722324 6.52641218279452 0.6463588662348377 1.665369594916119 3.7093274454633667 -1.28344944669828
Ni 5.130150202125993 0.97138096863946 12.040233015287512 -0.3699462636854145 -0.07854360203285828 0.35972947105341274
Ni 9.038299782797452 5.391643867230056 4.683752134344123 -1.2345131260088933 0.3224986117264123 0.14231133130812265
Ni 1.6070626080243555 4.985877835172028 3.2963159344229784 0.6798734665047195 0.28745010476271143 -1.3487750073789673
Ni 6.456872088912444 2.921515430817795 12.028292850901542 -0.19289187246915168 0.27321030701424565 -0.9430173904218986
Ni 4.917252377837624 7.593977808987626 12.683372176099486 -0.31240523204615234 -0.07666926782828086 -1.2029605480135928
Ni 4.132678994995371 5.54468381078746 3.4121172362359324 -0.5540213091938846 -0.8764448447079873 -0.6747816538041089
Ni 6.540020865973515 3.6290098973244356 6.322640398726254 0.213267093691394 0.47394198724279024 -0.7561817514491558
Ni 2.892459552611454 1.6080419158430748 11.233532818994005 1.605553651199751 1.2005149146865777 -1.8626184588023857
Ni 3.234958604079013 4.569182358306973 1.32613522597052 -1.0170512775098615 -0.47558029417716163 1.617280709828692
Ni 4.3552682711878585 3.071053886985628 7.386986319496495 0.392285293502247 0.1369256415161771 0.8312096270192718
Ni 7.134645486996256 7.560348748042926 8.559709280163435 -0.03699508916711048 -0.1964281677571843 -0.549063450967977
Ni 6.137682411281006 7.994921211976111 2.7303185134670644 -1.390494755715257 0.6853324327367616 0.5269861594529633
Ni 2.4479646679489813 8.044607225646605 7.532589066883437 -1.7489996103329493 0.18213052018758955 0.0025721316025504085
Ni 8.906915476287953 9.158643779463842 4.503897634059824 -0.23736912894592022 -1.2415643764287199 1.2294727353715085
Ni 6.478490770948323 -0.05645155249736254 5.0282079536985185 0.4167740226722306 -1.1481518277038292 1.3842714005133643
Ni 1.761238918201595 3.972904000496019 10.510587461958819 -0.13204388794384356 0.10952513801603718 -0.09344802994851648
Ni 3.7140618575049045 8.996706916760903 1.6736666262008748 0.4270862032315161 -0.9000527139349144 -1.5775620510828317
Ni 6.1769840665718725 0.16900081325192773 9.969983677517353 1.0832283875575668 -0.3487362052667026 -0.3428033847220354
Ni 7.062185947164036 1.8820356137653178 7.850690419410676 0.35873214013714994 -1.0464649547852882 -0.9651479037723507
Ni 7.769458683598513 2.094961154312707 10.126850312570172 0.5988852595861106 -1.940124363599349 -0.08036882816705514
Ni 4.369440518300268 3.0916378286847466 13.297331659414825 0.03540177653806161 -0.8637358817817512 2.0669633103034855
Ni 4.701767702707355 0.6129653934918109 3.5820733365487616 -1.408395804365394 -0.25513750867293483 0.16575413571209519
Ni 8.321548085778012 2.090923819248742 4.5609192176177045 -0.9687003970102994 1.5546859178156065 0.5576835885368201
Ni 7.847609295282913 5.78011495365938 11.393983166338153 -0.19544369235672793 1.6072876031717223 0.1367531204940548
P 6.459264925941202 4.718037146752304 10.246559606904993 -1.4153192709581044 -1.0504892454533328 -0.32401633392251944
Ni 4.777756446188167 6.839799923537697 1.227913423378878 -1.6554613346634717 -1.4585791100880041 1.3528679465014184
P 1.905945506546879 7.317064665115238 12.973078221260367 0.08233032276880015 -0.587477274859485 0.7912035189399793
Ni 8.753450550092236 3.4967571480322985 11.587994207854752 0.6430269871003312 0.918386993467728 0.9708976617719345
P 5.757692500111911 9.203387060275704 7.677489669041863 1.7696265425546815 0.18451007616335965 -0.285933668118185
P 8.536339854432772 5.481777141564256 2.276565474416492 1.5468813341695231 -1.4175409611997716 0.9796694944272933
P 2.0302067344881465 3.221377637159038 12.663103275877898 -0.30879077522201653 -0.0654343183444099 0.5551852475949987
Ni 7.066694458631347 2.12053402263549 0.6558221209396883 0.694280900179301 0.41542033685781354 0.2964895892571603
