# total energy = -340866.8522059797 ev
CRYSTAL
PRIMVEC
9.36006493648430 0.00000000000000 0.00000000000000

0.00000000000000 9.36006493648430 0.00000000000000

0.00000000000000 0.00000000000000 13.69940116440748

PRIMCOORD
 96 1
Ni 6.020515337749053 1.5699917432431587 2.3629137177078183 -0.020303230333726323 1.0993911133603584 -0.1871050905840455
Ni 1.1574188085274384 1.2500179292484923 13.252101375259052 -0.30662744902211064 0.4369564111573765 -1.4854054862522288
Ni 9.044143859140513 5.888388663525016 8.693653425992217 -0.6645422354642878 -0.686142844453199 0.6510593704865045
Ni 6.902317679203596 6.156835320987851 3.5963119159594137 -0.8880765154096447 1.5818174839250756 -0.9682201149397712
Ni 9.069584515172034 2.3462125541474648 1.1597925209518656 -0.535637150259742 1.0592546503507885 -0.38768481861575815
Ni 5.085098545320064 3.758066003184396 0.3216370975034233 -0.6835468015912486 -0.41635827529105074 -0.41129731582837553
Ni 4.464975534503196 7.155563591487922 8.873279620879666 -0.6458156055890619 -0.5749246350054551 -0.03597976052871867
Ni 6.862771405571082 4.923188145013504 5.489856761963409 -1.3204789886477517 -0.3584521470028859 -1.071461733939942
Ni 6.956418853545827 7.8038135969238915 8.119854311704266 0.42283205594085244 0.6822566220249153 0.33503093986546817
Ni 4.451412800658578 5.926615168025651 12.69083725970451 0.20608317434844506 0.5435170672284511 -0.33354972733425137
Ni 0.404060891818346 7.977227516826749 8.11329197029746 0.0753070973734316 0.14655519418614113 0.46668273457721554
Ni 3.7099271900975284 1.204967937534105 3.5249376780996817 1.3106028671846204 0.141826164141588 -0.9264268330530689
Ni 7.830910984418832 9.084953741516314 6.021982995904219 -1.1432425633276697 2.4144707853694096 -0.07246988503495261
Ni 4.856881446217593 3.096103502867567 7.1741845043315955 0.7154871019432709 -1.4834118528609677 0.6271154580763973
Ni 2.0102985498578465 1.3439648992957196 1.7243710354397257 1.1838330831555224 1.218992918886107 0.06127067388502351
Ni 5.390966741713737 2.789402260709801 4.585532232671103 0.06404335153415422 0.47509512701062695 0.09030151389973479
Ni 2.2104541747945716 5.209306604752833 12.226633271738066 -0.15105436760807536 1.1816134497963844 -0.7458646857938638
Ni 8.428494959281359 0.11568665647062978 0.07509767162328529 0.5066129951132501 -0.6572780977027067 -2.4163145234463674
Ni 4.786044476075378 8.85380694214237 1.7698122778612937 0.29953891760644535 0.9637047435679209 -0.8457708126628983
Ni 7.957590100949586 0.4067397423541153 2.152408669160331 0.45947927485024087 -0.5751732606811514 1.7079648038788262
Ni 1.0514909555808933 1.8877659420180286 9.737766778525266 -0.1509610365633207 0.8671968437471581 -0.22384229810407902
Ni 6.14343170824424 7.406347806739029 5.8932764893453475 -0.31847792060279345 -0.2031192066241147 -0.5443305642686819
Ni 4.581667461929597 5.385706385315756 3.9321800559316826 0.0816410100112594 0.6902288415971145 0.632629188805775
Ni 0.1275037382365583 1.5898163604156235 3.4650033113958454 -0.23775736552327442 0.9080545011934683 0.5588737521901794
P 7.194173858643926 2.4277012779923544 8.12096347937893 -1.2389883881714274 -0.9519077509329928 1.885471195030843
P 8.052005074235067 5.200517503938412 11.298252439992998 -0.05325577400034699 0.6631427840135998 -1.0790457169347867
P 0.9404150670135478 8.290162562118066 13.09899692388349 0.43130024131286365 -0.5192844199333315 0.7681620637394835
P 4.9547690035309255 8.849388991573246 7.691295322376245 0.910643087856251 1.015409113920748 -1.35168703881944
P 4.322356227677491 1.730236052021532 1.1034542911307774 -0.8676380450496347 0.42518127289931934 0.4705633005785444
P 2.7765789719816247 5.867188116832082 0.6043615977589301 1.1549418540424692 0.46300914238037033 -0.24056038218970824
P 8.464465688173608 1.9174935077119606 12.437795396832062 -0.45383390363900544 -0.5072567993448361 0.6395318294628792
P 1.590789807151193 3.1687844057685055 11.74594808173325 0.3988164097525454 -1.033372383267388 1.2223528364972756
Ni 2.13848463681578 7.8910587605993125 4.714717038539471 0.6516090723423875 0.03535781067400363 -0.23293628998554722
Ni 7.819304504110118 3.2052699382228336 3.8842593323538415 -0.4444925716334216 0.34034798120300735 -0.3666614222865556
Ni 9.100070246111937 5.652383990537988 3.5610637840670303 0.4125466148544443 -0.019322868698328013 0.05194091184366538
Ni 5.351925911578539 5.403396907721779 7.402909854950811 -0.38831679577280215 0.4801126348298764 1.155639908550758
Ni 2.7757459262175317 0.6821128477431189 10.451546597381643 0.15914485792569366 0.3979106101088244 0.1826920491180144
Ni 7.9557368081260975 3.0971705502507874 6.376865171440296 -0.5139357540269085 -1.9124986314622803 -1.174670442819648
Ni 3.0163089507451586 3.5048949714181905 4.3573001574650085 0.023476228745069248 -2.6393014155286867 -0.1590337862691261
Ni 5.288314911434974 0.43836272116297825 5.527571270921395 0.2952276918256012 -0.4142204030124415 0.8908196253724205
Ni 8.538475720271189 0.5491821439557603 8.808700790039392 -0.2560307099111655 1.242926289773253 -0.16584592409495308
Ni 6.353050358658473 8.699758996238488 3.568091320692661 0.9570982939949969 -1.2309534336820929 0.2942180196141643
Ni 8.97253936368756 3.481139127044387 8.784809224726494 0.19378173127327272 0.029517292732826585 -0.8960960432800117
Ni 6.267265365086406 6.972162482480711 10.333142714109707 0.7652104373103273 -0.7931562717909759 1.581948095965669
Ni 0.663139060457801 5.969502984779302 1.295015504600195 -0.6429647664038283 0.3458699394625011 -0.601829172705783
Ni 6.24631754014213 1.2395346567115895 13.274336209108528 -1.0866358705772188 0.5356867725507548 0.8339884753159894
Ni 0.495117473866113 6.864737019171752 11.060635963853422 0.6091452467512218 -1.494511305208239 -0.8450038525898866
Ni 0.9421466789950897 8.581485217866787 1.7689080956049859 -1.030844731749528 -0.6636618897418635 0.6559313538668251
Ni 3.4639634082004434 1.5824687095750263 12.866600555863405 0.2160022332343699 0.11020056681650699 -0.3728330983149063
Ni 8.714735099862635 7.153710298664433 5.606342767964978 -0.46178041217959187 -0.8138544235702757 -1.4528998003150397
Ni 2.81528283978528 8.324607600453604 7.3263164449780644 -0.7956415001066749 0.9683101035504161 1.2570257052891125
Ni 5.028797755758037 6.140473927778471 1.8687490984347914 -0.30777056148761833 1.2146642096037663 -2.0074947226242075
Ni 3.023141798023676 0.755774685431439 5.694731731554694 -1.5514941503511859 0.6720259454358426 0.4402592502783644
Ni 2.368545668676974 3.74625360145085 0.3512195821934962 -1.5008624442372474 -2.017917203509112 -1.4071997271747634
Ni 6.08892805111711 0.9113249217301186 9.259589149871017 -0.21660952780106565 -1.337784826916051 -0.7858018883084337
Ni 3.8513016083094764 6.7404072788970355 6.117549257155808 -0.2877748350919818 -1.4325235506515328 -1.1021265100136501
P 4.233079929948045 4.487533290587068 5.748158981233839 0.0011973627422108412 0.4193122157130521 0.7341831356908776
P 1.2511317769555383 6.980184057984395 6.445718743858789 1.1852284208411523 -1.5854393969483793 -0.33223769339104714
P 5.511880058349194 4.296410128148656 11.14150317939791 -0.34372615364662096 -0.07634068084426852 0.7133217188608361
P 0.40939706474092485 3.6108977048828557 4.696017501151772 1.245905169895919 -0.9634193511170182 -0.4801799977327021
P 8.20765359121378 8.115382072759505 10.005001307601022 0.04668480565104863 -0.5666513392530693 -0.46681206106622836
P 8.537455473211795 7.820774034278238 3.1472178805432574 -0.3748269888164835 -0.6082265915916945 -0.07790314023538196
P 4.503894683796449 7.693907716452182 3.45907090234773 -1.4730585346511018 -1.791116079887025 1.3939464617092832
P 6.259936434375339 7.756891592256485 12.575282580147068 -0.5828323198883059 -1.7111822823748595 1.238055591944513
Ni 6.88239946138348 7.847094536397676 1.0360608888156393 -0.28614218458456525 0.13588280207395953 0.37703736620424094
Ni 6.580303371090139 5.776011725955322 13.66375515161484 0.20792665531508706 -1.0877843823593651 0.7872831008396506
Ni 3.5273216865953505 4.176161376111521 2.1272291589357573 2.8914978392954267 -0.08185492579427837 0.7189421503714069
Ni 1.4002563287929826 4.426093825469005 10.041153621749713 0.339417498968938 0.43843222437195456 -0.5943225799160926
Ni 0.9751221871625085 3.0186583270011966 6.95988488552834 2.6056919550043576 0.876286207642936 0.9364798464136969
Ni 9.24853023335106 4.913425597463514 6.277298418508108 0.400463201327349 2.472178167383207 1.083844680985327
Ni 8.556550005332582 6.7403979188322705 13.13076591970269 0.48189826597538943 1.9213560818529103 -0.435913828825475
Ni 4.637406647605719 2.5006161825124207 10.074497916468877 -0.19640657049062948 0.9958507321728461 0.12703563609597476
Ni 4.015271222864356 4.7840882225394745 9.67281822512677 -0.2513875547121993 1.361356957809036 -0.12261436709982754
Ni 2.139673365040947 5.22768041188671 7.71179012018589 -0.17127660819222115 0.877615725087637 -0.049232768883882956
Ni 6.3448322217947215 4.177256503689036 2.321500111154669 0.15575280152500917 -0.1509666929902755 -0.31007658391297566
Ni 6.844135516623784 4.365880528835168 9.204873955280195 -1.0743472830178529 1.6069291913910388 0.533141637531398
Ni 1.4440614318936125 4.2624330930513725 2.714344837365005 -1.6994207709635571 -1.2075502242668041 0.12812732649825676
Ni 3.3229914727733942 8.246301298628845 11.562239962601742 0.24361279586278692 -1.6171603822007437 0.5250195226448957
Ni 1.8528622605090008 5.288249390981619 4.921249675600655 0.1499678194121159 2.1462247643389745 0.6571078906734296
Ni 0.2963546265664335 1.2253915988515356 6.062190090109148 -0.37218543742857835 -1.759432632740815 -1.5711098676995845
Ni 7.026628699348781 3.65814731181704 12.662918058523195 0.10057949878697517 -0.5401774613322567 -0.28082180081291636
Ni 9.26689468042017 4.550807328399089 12.938920160264411 1.1012970721338193 -1.4563196246298662 0.581008893526322
Ni 3.0094480232723457 8.301797122621075 0.47799229937190085 -1.228586219001497 -0.7042572946657225 -1.1076181292558407
Ni 7.021602344569927 -0.01884649040451253 11.464014506950393 0.5096237569151159 0.48686152351793566 -0.9191464973415718
Ni 2.5348178591640664 6.688178117507823 2.6536148651561358 0.6767994555650859 -0.07850837791954866 -0.0319842662160804
Ni 0.5048294770663723 9.135582331830696 11.196752833686817 -0.37468892057672243 1.6410251046334834 -0.5624123614710572
Ni 3.5379079198446695 1.2222466170904647 8.313262265951836 -0.44587839623735465 -0.42836506994393964 -1.3342523882827604
Ni 7.596020159138851 2.4871844895745134 10.504180113568708 -0.08607847695732272 -0.7329834589558215 0.2651684105463756
P 2.4084195445762653 7.567434521346261 9.449778177845872 -0.30615359470948567 -0.3018020026090093 1.5289517462742959
P 8.340716271914328 4.47457896095218 1.3818993697756843 -0.12667928119782054 0.21632413535016293 0.21795652874726332
P 1.3034077386685765 0.5728715318697314 7.854153897243508 0.6738902523380911 1.3207533253550607 0.1174140538458107
P 2.9621235358200417 3.322738751024737 8.443338149985841 -0.4329894560898285 -0.14261677836368344 0.5425598455215043
P 4.816090283971323 0.7614618607827088 11.309170955541479 0.5424037795596143 -0.7238586138364179 0.46524265969657935
P 6.98585625723204 1.2108273380770527 4.340189023067944 1.1634419210936802 0.8482622116261842 1.0296501972207945
P 1.7552180648795623 0.36836722084314455 3.688604962562649 0.881414787118753 -0.41844883927149223 0.6920106160878856
P 7.400900249045745 5.850789283363642 7.254024920771353 0.8829556492433116 0.3555935945081682 0.7191257271371229
