# total energy = -340897.55682403763 ev
CRYSTAL
PRIMVEC
9.00457868509988 0.00000000000000 0.00000000000000
0.00000000000000 9.00457868509988 0.00000000000000
0.00000000000000 0.00000000000000 13.17911110241172
PRIMCOORD
 96 1
Ni 6.162850833129054 1.873294577429859 11.355623077599784 0.5971837035139715 0.1890097638059261 0.09724709197963252
Ni 4.5503288595618 0.4027450974164916 5.930534499388224 0.37514837671164425 -0.9944466527364682 0.17311340429064379
Ni 2.7793623163271985 1.604219751855882 4.830684621534917 0.3827830104387666 -0.5383869450907373 -0.21530572138797754
Ni 3.3244725069359884 4.506071354451831 4.742265960308809 1.1744012483186612 -0.5550955160946698 -0.11886775557320173
Ni 5.132141713614788 4.470098061895508 2.688472798661177 -0.021147580611892612 -0.877533706896792 -0.44657825051785666
Ni 7.224841859612197 6.112605283075417 2.5968782224702096 0.26375301825608766 -0.2933448729805916 -0.6814225561593942
Ni 5.202233355481726 4.452656192638538 11.500567082178348 -0.5400903009350891 -0.5948565980426916 -0.4261284673039371
Ni 5.563515068609332 8.036397538767067 12.43994816103598 -0.3004213202113988 -0.5795829597130728 -0.17043791434100966
Ni 1.8266058360269721 6.504043330814067 0.29310084289532395 0.4906027357279228 -0.3819677136263228 0.48328589035153546
Ni 2.572779268060075 1.5736582111960173 0.5157615667217251 0.2854184190446633 -0.5278245961938587 0.002822557050459655
Ni 0.5021835622547215 9.053833909037774 4.863566642167689 0.05586621504000056 0.10227694109405612 0.004486575016443886
Ni 8.66008168453142 2.0376641599888368 1.3224709815327125 1.194417286429272 1.6451023600266503 0.028000084757351777
Ni 6.955226759306461 0.6696561226897717 4.817004865326766 -0.3926938417945753 -0.2365155226963733 0.3151915365420378
Ni 0.7443626112238224 7.331339013820865 2.5370319904332046 0.3321446194566086 -0.43919764178306947 -0.09151867413628754
Ni 7.525387688311168 3.9693264176064518 3.6670616148026 0.9520483902759153 -0.854595867153696 0.4842436262791144
Ni 7.5807388345799325 3.751397599972378 12.519114617480705 0.12818517631938567 0.1840562764553927 -0.10706253540815755
Ni 7.790905705234394 8.67464208855234 7.089123046078428 -0.10604052190154639 0.4825466981926657 -0.16555436099646326
Ni 6.906376918976536 0.7408265131044562 0.5341705277485452 -0.43692375814722817 -0.24164101684839673 -1.877616731983431
Ni 1.805616162698114 6.5394763486386305 9.104169504880039 -0.25480866457860635 -0.3886186432839372 0.24453993566274657
Ni 0.06832494349408418 4.838979639583198 1.311074786524131 -0.39979831404984045 -0.5169704270881741 0.24858556648702998
Ni 6.413664372769558 1.8735106873225629 6.933003458673419 0.3624054752236791 0.43687259319431854 0.5104765918337144
Ni 3.333188939275042 4.226578231133757 0.546476185222255 0.017299153400079884 -0.21349412210053553 -0.10675220325659035
Ni 5.890309244692953 5.68785929812379 4.858848242843655 1.027313835778134 -0.3273232868085653 -0.28057523201974904
Ni 5.303102647901232 2.9273075470406864 9.052257207278922 0.21707618302483905 -0.4915715273990953 0.20813877132589315
P 0.2282156485267755 5.583208082581967 12.217826811483453 -0.2594579904251596 -1.0730378201778101 0.21305703456311692
P 3.983193469054947 5.954637956087789 12.607454038412824 -0.41372263744041654 1.2848794942765873 -0.6796297259250296
P 2.3938492814801773 8.409223121996602 1.506135575678596 -0.09011202359674804 0.22780051142087862 -1.1963924078777717
P 6.262666589821629 7.682310484150727 5.8358423480685016 -0.29233571498978683 0.5017271277758585 -0.4107818096445377
P 4.557136321181971 0.985569165675756 12.62432321645413 -0.3531479611811531 0.19660351699278397 -0.19533544891363777
P 3.8405699444492902 6.075182253322206 8.24460141122947 1.0205636615384939 0.18768384590565096 -0.7835722276469667
P 4.961937163952808 1.1565210953833376 3.83969469938384 -1.3295778656252262 -0.9910818500292932 0.059875593309709776
P 0.2669803605305226 5.40048716830089 3.5562908874657135 -0.3532382069021142 0.5841227565649553 0.38238886032414143
Ni 1.5224221574674874 0.9343781348415394 2.801628838938782 -0.5346195076285051 0.7412333576694395 -0.7347415792975087
Ni 1.7854459060457577 6.464017977769548 4.743465370213315 -0.044147126830859446 0.3724204362575199 -0.3228703932435343
Ni 5.974538075374266 5.603000146922091 9.211856163956464 -0.6666353705478907 -0.2510692521408321 0.25595897613296564
Ni 8.599345800102785 2.27523196412237 10.174668957930507 0.2839636888760077 0.08751186696973962 -0.23750951117852645
Ni 2.2485784106888995 5.283301578982245 6.89481053742745 0.9890136546463549 0.18042870700513441 0.9097246898070398
Ni 0.36210743300931136 0.023199396981754723 8.986783113452756 0.4075820717603174 0.015509408489508773 0.4158144869724387
Ni 1.5034224960672768 1.1099584180845279 11.49458353952411 -0.8813574515182563 -0.010439450165769117 -1.1114940672714795
Ni 4.088015771595161 6.960692538676094 1.510761227840344 0.09451966574614044 -0.027597450002294403 -0.24138467786321652
Ni 5.473046064776196 7.8082035012295625 8.040853004388312 0.568684310522698 -0.15544066960122907 0.14896097541415637
Ni 5.299473802619581 2.9584183670111734 4.942337797600343 -0.394240874566721 0.19484591087172892 -0.38774652509162894
Ni 0.7513150465636814 7.34201844435198 6.786214415885896 -0.47839693769035024 0.2685846353167762 0.5941022363751705
Ni 5.114348665782174 4.601690977394408 7.011458553387993 -0.03735735760253566 0.34536831723573425 0.1291691374992098
Ni 7.963478459137255 7.098102412120271 9.211170915505015 0.43095674193051586 -0.018095424049130126 0.11104568842562165
Ni 4.3450424706509 0.24333073460563492 10.381304232755035 0.30879463187675854 0.23364797134059118 -0.12672324706187854
Ni 8.120617364869517 7.137155270647624 4.60512442331474 0.04741191362506028 -0.19305025242388688 0.5418610196822667
Ni 7.245219221578394 6.178788937715961 7.0752848092822935 0.10465752551109073 -0.722367116892556 -0.7111427089316462
Ni 2.3114753940445727 5.246706970484399 2.5622826304798734 -0.22810261604232973 -0.1518562946840804 -0.07320933430413844
Ni 2.3853219452972394 5.154644156192574 11.245485372156944 -0.6838157389819192 0.17427451447828052 0.8482678680531391
Ni 1.265449485884924 3.2154810843823634 3.844715652557659 -1.1712012533241247 0.5949442726604915 0.247397973936832
Ni 3.7004857110829037 2.517139975267705 2.5364385886861562 -0.344795989672032 0.2603339652722097 0.4415378598804718
Ni 0.987631214235305 3.4628008474241563 8.178020654661083 0.39515207352708076 -0.7436573937298999 -0.5584274086813802
Ni 3.8081714697014433 2.617009759433456 7.002615156486976 -0.08718122310319824 -0.059217905121052856 -0.23640522237075415
Ni 4.053023978134868 6.8480992845774065 5.836171915654875 -0.21597626509244097 0.5498041857887435 0.4988315513956183
Ni 0.8871680283225045 7.4568898569029205 11.345844104954937 0.38272181818352796 -0.5727916478228523 -0.14291862587481838
P 0.201149685381395 5.5991281780111475 7.985829624790147 -0.3453963422601922 -0.19400953101336266 -0.12807050511839232
P 8.513000893388748 1.6928338124433095 7.87341195997928 -0.6090393173009769 -0.22258811398200376 0.29021326933014535
P 1.7075653034626197 3.152422018607162 10.367914423986262 -0.4809202183328363 0.2452030231680422 -0.17865798825795684
P 4.170083503349435 6.06679899040107 3.5661887205515486 -0.8415187222547637 2.486002217750493 0.340783011857897
P 6.951913074285002 3.762248117501882 10.245560206400448 -1.017586838298357 1.0053607285458106 0.8239907406733294
P 6.2722564663103615 7.930422650132433 10.320865499428868 -1.090619280704999 -1.831977079767445 -0.059361372677452603
P 2.3680781767752475 8.418975080904861 5.817404572389321 0.8107657573426231 0.4663536333725711 -0.7939828814573293
P 6.840814580277516 3.99512453604797 1.501113722046891 0.7763286587106759 -0.16610740528645587 -0.6010938372016551
Ni 5.27522447174244 2.7999647927649622 0.3223468145833542 0.15940993866162226 0.42776523157641166 0.701782607872985
Ni 1.5395038435699517 1.1146498036719732 7.024453061144697 -0.024757409450338004 0.4076417213536592 -0.31858410716335456
Ni 6.806903336280741 0.7192110215446432 9.320926826804081 -0.45309291170792293 0.49886497573671507 -1.4793055440020784
Ni 2.7916445618958656 1.733354417325275 9.028270810104573 -0.45917331357404795 -0.7480041007343698 0.8282585148107477
Ni 6.473103597841971 1.8987054989802827 2.5250252849777355 0.582346381390823 1.720207368691605 0.6398197930169433
Ni 4.012971611353761 6.803238472683638 10.328759813717761 0.5367396392953016 0.007077218561755553 0.5838134528546526
Ni 8.222576211331406 7.01604368494486 0.3892238217963228 0.13760801229518235 0.17707161760744342 -0.3570992325194173
Ni 7.5061809215971165 3.9320204473784552 8.145587062055672 0.5277968282797167 -0.47525119297251694 -0.7856828462320662
Ni 3.0288161645594416 8.370890629778263 12.344478014102526 0.1282273424112308 -0.47759038262865494 0.3554573260406201
Ni 0.031003665482021305 4.797054320398657 10.048545423632786 -0.2520249311858821 0.16743538006926004 1.0999996934786345
Ni 8.74114990803194 2.3439098871078703 5.776206823176883 -0.14826652045029304 0.23478285627598275 -0.3715102657384247
Ni 3.439145818751951 2.5904552563674748 11.470518802513656 1.3497548547937335 0.45346315056314807 0.32032602955512574
Ni 1.127364269026048 3.4234238240577484 12.631967203450639 -0.5074930837253582 -0.006860217454943024 -0.20373035784555235
Ni 3.1356644973437535 8.317790628225163 7.9549772362330184 -0.38696825216470776 -0.010064326214537506 -0.16019618200834346
Ni 5.776779514392548 7.889839013198428 3.4910671209319295 -0.8185083774025194 0.07771185016018228 0.5059316527755093
Ni 3.164938383226258 8.258540499308866 3.5157783867047243 0.6871442891345197 -0.3181071675269361 1.162945955293868
Ni 3.361949564162375 4.1915684285157395 9.285975553948669 0.08587227448378759 0.5418381368641314 -0.5994617009148708
Ni 7.053088522385839 6.0516532887540775 11.462664108371758 1.1048043139561294 0.5574676158712721 -0.7519281183791243
Ni 0.5887742939717096 8.933289611803358 0.27626228042215156 0.19958008312260467 0.21392683876257995 0.32311490515417257
Ni 4.788887167370226 0.4509592144787131 1.7059570856777486 -1.0280561132607973 -0.869242156311961 -0.6655894457818796
Ni 5.952927086103884 5.764659351243409 0.38209939900018697 0.0664416765630017 -0.6622115304485822 0.5439942639751857
Ni 8.035073865674256 8.735116840193959 11.236035967098468 -0.4543455531681014 0.7157138732420965 0.7384624797925218
Ni 0.14069654472904733 4.752553691659396 5.897612858608456 -0.9046809567355452 0.19730491393518276 -0.7834824961466378
Ni 8.018982683246685 8.817490727629561 2.5513708818141034 -0.12062459036330839 -0.06338643467644567 0.2165089976674594
P 8.472633366347447 1.6753469202920257 3.5690089546513333 0.4256098757963057 0.34870046693276074 0.6462084701521065
P 1.6538529905468586 3.1918170511312955 1.7315643070473785 0.8122611109412269 -0.18405961888950237 -1.2520472782379146
P 4.704514263427111 0.9285341631596737 8.232081444778828 0.8833230598850593 0.7015666352074369 -0.67073705142109
P 8.313747572315828 1.6119907034143568 12.28214111555211 0.9271526554755001 -0.05350208568319818 0.5346981833852404
P 6.463027474094655 7.817802382297157 1.3265698658309948 -1.141631510086808 -0.990635506520494 0.5883493930517932
P 2.053134026474885 3.3504056940604463 5.955179131277435 -1.6231425679261078 -1.2698801926542775 0.9975229776689466
P 6.970858708212036 3.971883718003447 5.85814128716399 0.0871717100215015 0.09905663438454554 0.8691130869332644
P 2.199809611568738 8.50454559383671 9.957991776758345 0.8407844151919004 0.7740426908899766 1.2892074322279796
