# total energy = -340864.62989987934 ev
CRYSTAL
PRIMVEC
9.33903928571206 0.00000000000000 0.00000000000000
0.00000000000000 9.33903928571206 0.00000000000000
0.00000000000000 0.00000000000000 13.66862799919793
PRIMCOORD
 96 1
Ni 6.834505223184873 1.5049862148206217 10.348135788474654 -0.5403407263829983 0.6075419068198441 0.5455256130180477
Ni 8.680711924079965 5.376457020872402 8.024878809359787 -0.8773048787154375 -0.8953959318891934 0.3414260447585346
Ni 9.154472058685212 0.9289215720537101 11.74225359591555 -0.19639705740893273 1.1578916806994124 -0.4347691736980706
Ni 5.698747273887975 0.18590572192419325 5.947206816261998 -0.6878706257775831 1.5723869346397954 1.4188244558978855
Ni 8.416828024073938 0.7348507278979458 6.706935811474003 -0.6681230108370106 -0.832515747425205 1.793183246828699
Ni 5.995046979985486 5.722122889747087 9.21424097755726 -0.2524671609296233 0.7776314366824995 0.5919167986880773
Ni 4.852256733947912 1.7639764581306154 2.8334113506369976 -0.8594333977516554 -1.021169413443293 -0.1482850323930543
Ni 1.5049675367416293 0.8425354567134014 5.581953245947878 -1.494005312106098 -0.23965021167061307 -2.2568608760310034
Ni 8.597482404089389 1.7496130153853837 4.55750357279098 -0.5920337838819159 0.7180391789411633 -0.669049379306022
Ni 7.377262181588411 4.564875810569319 2.5292705869784355 0.6767943133587635 -1.0590782726739243 0.6207116114325826
Ni 4.7649553927369706 6.187403176489738 11.640941827652334 1.213957927565361 0.6246754811763371 -0.10768757058666616
Ni 4.517825729587214 6.08087275295602 7.188003744485063 0.45535471115890613 -1.522169947465772 1.4220848718167123
Ni 8.938394701860485 5.447601823754831 12.626189948619775 -1.8383580435931244 -2.0280185536091717 -1.5214610943242055
Ni 3.237191260584996 0.2321470420859235 3.897773276889017 0.22564849807488238 0.19360226827261498 1.9196480980228683
Ni 5.876982842673898 6.051772305885706 3.261922904978964 -1.328173529078532 0.7702042909804928 0.11886981245573076
Ni 4.322154174061793 1.553717322912052 10.43378318579081 -0.6802236507552866 0.8867223153745954 0.1831939284550974
Ni 1.193678672252638 5.121688023414713 1.8699773581248973 1.082313074832149 -0.9965716694992707 0.8067031572374752
Ni 3.0506252685684183 5.099965417546436 10.29533379306681 0.7976816704651554 1.753906303605947 0.28517956356097984
Ni 4.644537817472329 5.933698829534622 0.5023562735427618 0.6364164237623491 0.8998557674327599 -0.23776507883275824
Ni 8.581932903328134 4.3806539174663 5.442601702008538 -0.6963562946510911 -0.3770155118273701 -0.2101563159765542
Ni 5.390176069892392 3.644887029793772 1.469309216137049 0.05735025578469478 1.0431603158920872 -0.7984272903819281
Ni 2.522325143305075 7.15402178147006 12.006154306192672 0.3413903064245927 -1.5245456467868002 -0.9999809522911358
Ni 1.1537449393666745 3.6456341529534724 10.30529854820931 0.48391143975067624 0.4702182585342998 0.21405436547937973
Ni 6.647668399022903 3.885395313940688 8.060622115223785 1.2818229668384504 -0.5124715107765562 0.290874299952912
P 2.164798694270152 1.5275493342435607 9.492451898054483 1.1065680907247717 0.28257889271333914 -0.09067715207159867
P 3.3686102243762206 4.209628087171481 6.3018801887308165 0.3198850853629652 0.010448449026833619 0.17141853308672414
P 6.220949006360267 1.6538878605488252 4.469613872091775 0.1063138301675911 1.0420508848779924 0.1281952036217147
P 4.282575324676687 8.105287005518548 12.722636077305443 1.4051366739981477 0.27980930038800195 0.4479288510084802
P 0.6759914314728327 8.916363907688831 0.8553075271284722 1.356714316830702 0.47851032333976296 -0.49155687211107607
P 8.965095015780262 3.280627133282053 11.773869046322202 -0.16275134433002936 -1.0472735667295126 1.3216812364859691
P 9.138287503238212 8.877868386885291 5.174259344547001 1.6951059456382873 -1.6056207569922605 -1.2405647315196118
P 6.002303413674072 1.757485825680722 0.3183575834837027 -0.1318420563456826 -0.168113122862575 0.8629529808691396
Ni 6.685463491864225 7.291118881275004 13.505738820568663 1.0697522074480028 -0.7013807444488759 -1.4509272499697012
Ni 5.6307030321183005 8.73974399273576 10.797984246353703 0.03235553351257008 -0.6541832608274669 0.4038987093714592
Ni 7.9821144136025115 0.3095686134137822 0.292183057487564 -0.5614692808314976 -0.13007339448103405 -0.4093450771980111
Ni 0.7174082038308005 8.562134139596084 10.266958055461405 -0.17006973236831355 -0.47734252828390694 0.13349244746491204
Ni 7.2826203553334175 8.888561587108498 4.231492646440101 -1.7119217316440454 -0.24096867337172054 0.0984421407289982
Ni 1.2629369891568247 5.032276059277619 6.612062377039503 1.0301021971565485 0.36146856523170645 -0.6228317430993789
Ni 1.5627481741049256 1.4191044076131105 2.403081485305111 2.4159918499996262 -1.8030933068535593 -0.5464509530457944
Ni 2.2181339488332332 0.20725850182841832 12.228706419100147 0.11703327346762425 -0.23283473141067645 0.30205217094660236
Ni 1.5690053305674125 7.619152643580771 5.8514853970412375 0.06084541342214682 0.26364014682730724 -0.5232151224463053
Ni 0.24268988377323963 2.271450525317322 8.898823323706976 -1.94600447652921 -0.5629224683382563 -1.5767565244624007
Ni 8.31858132857339 3.788465423009113 0.5301632636428449 0.5851483696159923 -2.0896538099224657 0.5500517830231753
Ni 7.674897370333885 3.8596008868520464 10.095539985507743 1.230947263034506 0.7330076273255376 0.8978263957075571
Ni 4.943246995759871 2.198549983009598 7.804061889990715 -1.532364885720903 -3.161229186622136 2.967212199409606
Ni 3.2390777465632383 3.408067666247875 8.749767583827085 0.2541630605748074 0.25126079932634793 0.506450758503773
Ni 3.6473245191022934 2.367502546536249 5.2382831298135395 0.2586074694994062 -0.7906101083303546 -0.845450453209002
Ni 8.623416916770475 6.130453713641609 1.0875946548068396 -1.1433253528494631 1.603640236227122 1.0046377343368569
Ni 2.964762139439899 3.176076586121539 2.7212457506712413 0.10094639520809068 2.7769989022138817 2.198827735246671
Ni 5.569186778956505 8.660222071425194 1.2205760399057863 -0.24575092525171222 1.2509733284474456 0.18677341827623964
Ni 3.9419525371299757 7.396818130293557 2.8838346926851486 -0.6403710375347229 -0.32433360805262207 0.20902245948242712
Ni 8.248034224218722 0.23125609771798128 9.094722751796105 0.7379554582491161 -0.6431156901593956 0.35911780561134277
Ni 1.1777929660695174 0.22589268733528514 8.06982106912759 -0.3881188208293832 0.5790085752668416 0.14673954228280534
Ni 1.3821031331289697 8.305768166384537 3.076288949104112 1.8508731453409994 -1.9933595687744057 0.7328227650082412
Ni 7.118626821779275 1.9789051130973037 2.3487077295500467 -0.5958148481909029 -0.19784176027525927 -0.27980570084357614
Ni 0.7112547107067215 6.181239410422214 10.754654838706905 0.05522009681556942 -0.5987687886129043 -1.7321887094231974
P 3.6841670299149976 0.027416618249139928 1.8614209301384332 -0.6978732455162496 1.2682868800252287 0.2005643014127449
P 8.544025742012858 2.7979668940368816 6.974062225993129 -0.12655895356987237 1.733223321335299 -0.08263268450056736
P 6.26730799841965 0.5168373881856464 8.316253106026977 -0.22939022450550173 1.0842935955972874 0.2699416635653028
P 8.26445225565313 6.99547290794223 9.480218690218347 0.9439761547907419 1.032220786161448 -2.201063566555725
P 7.452264007782791 7.85796122253937 2.014605459379617 -1.0221027238908398 -0.969197391251376 -0.517789837665676
P 1.4389125103846558 5.13688264067511 8.738900677469248 0.6798374710604614 0.7289560829639833 0.5254977478328949
P 3.4451343140084894 5.371572703215863 2.136775972357705 -0.08605636547013565 -0.8620034724716766 1.371435682201277
P 5.529355775505 3.5644498826125743 10.162119865884407 -0.69624213767073 -0.03409257080833483 0.2793264472143125
Ni 2.1224835063126446 2.487789375247944 6.985461457602251 -1.9447893731751862 1.6563614778802376 0.35686783323490157
Ni 0.3972463179164223 7.767764779084591 12.581535331268457 -1.6399311002383565 1.231643517770582 1.0485331501682265
Ni 4.457495534441442 4.0488191660855595 12.680345170850629 -0.5077550791374933 -1.1197066849892587 -0.4347483477624642
Ni 4.997516154272578 3.969661467315348 3.9753424050409163 0.051974593295078225 0.29242493226948346 -0.18593626708692496
Ni 7.123753954462716 7.954097295113763 7.770081794783611 0.22882072515527688 -1.4822702830573569 -0.827715240712768
Ni 6.702488560865889 3.1687454401169832 12.382574566032458 0.20183751169821368 -0.5595913470824943 -0.8697651186949665
Ni 3.0517833094659528 8.806256632028049 9.935028979781752 -0.28533485819192145 1.0626310230221894 0.08575760328279425
Ni 0.1853799340005544 7.622925615537256 7.866445739921712 -0.1281887758638115 -0.48767064968279245 0.36523831668678386
Ni 5.755948890802504 3.17761752763842 6.2507321372177564 1.2923866012869096 1.471683508680446 -5.868490515130564
Ni 7.415150664824695 6.397195359733489 11.12768502720955 -1.5980504008441703 0.1679683697545946 2.324356704890133
Ni 1.1137738503227264 5.66093350296766 4.303252892025333 -0.29019552871833243 0.34951550663488834 -0.5614829076782524
Ni 1.894769706275591 4.32616996104518 12.39409707296293 0.9328031688930581 -0.4309963369191997 0.11891609231263392
Ni 5.769247683045163 7.305986632153033 5.476677989322454 0.6943315509115784 -1.22031035214595 -0.4116307879083943
Ni 3.383823519715611 2.422901728828002 0.7809351521961391 0.7045185187469093 -1.5263564747432938 -1.9838552288283964
Ni 1.2692221627378009 3.1440716977678913 4.452583199666415 -0.0017550350178937516 0.23939361557511676 0.2676207287416101
Ni 1.0042362560712148 2.3662884714017367 -0.2023601756126354 -0.4226245679157367 -1.0089371330431591 0.3386857630092361
Ni 3.0822005611052377 0.4727823371699882 7.054994342267627 3.5904069822753586 -1.1745912528422804 0.7344682710314642
Ni 2.5200744347864785 7.2178447773874295 8.197705206469484 0.0201168253545331 -0.5607308600035762 0.15154930496662286
Ni 8.084442269362919 6.527465621666675 3.6313715718347996 1.2150462755335332 0.0769366625570546 -0.44004816270882274
Ni 2.7042589717315133 7.854561812162734 0.6704421742041612 -0.49240070816861004 -0.3454639622733341 0.02752648755504292
Ni 8.479063383276944 6.846636635490501 5.894582262604581 -0.38392072358763557 -0.2829406469281321 0.10183445423999882
Ni 8.883733303688935 -0.05965871820599202 2.6379219063817527 -1.3021071710087833 1.8490553754059702 0.06058650333380534
Ni 4.863669040212328 8.22383677288394 8.019972078008458 -0.8451522052422928 1.2947093358828154 -0.8064481038038757
Ni 3.6307290459174575 6.0965156441122375 5.159032040648365 -1.2553963972158055 -0.520413134221136 -2.1795532032877754
P 3.719916873106641 8.22929077194975 5.786217651713798 0.481497430992545 -0.4336409736308984 -0.6282441723642019
P 6.55384840824358 5.467419265565872 6.511624742873136 0.7571034919324767 0.00045817058334114637 0.07883053714565778
P 1.3017500373032382 5.946511991723477 -0.10447863655639307 1.8732396859616578 1.668526652487862 1.5441243402496763
P 7.722759947752165 8.736764839136455 11.799990339793215 -0.8842386297207931 -0.30110086277692655 0.054642369935228474
P 6.758298660895476 5.076309630502435 13.454823311139059 -1.266308159032303 1.022115065186014 0.35444199740222826
P 4.369185576964906 7.177995095856932 9.716986689047015 -0.5835738260400208 -2.3717894444507994 0.6965519556016649
P 9.120477954918863 2.164210334781888 2.3068949819174382 -0.8378795828402795 2.773550024433333 -0.43460539442669666
P 2.9270510979540436 2.16856232718714 12.34258012938977 0.7585134849061259 1.7299392512673886 0.08918308402457545
