# total energy = -340877.1187406981 ev
CRYSTAL
PRIMVEC
9.17631452726544 0.00000000000000 0.00000000000000
0.00000000000000 9.17631452726544 0.00000000000000
0.00000000000000 0.00000000000000 13.43046386673853
PRIMCOORD
 96 1
Ni 5.589164589769483 2.8839228911978987 3.63494182013966 -1.1576029458144 -1.6818056289849552 1.4820411977656864
Ni 8.869687786293456 5.999749598133895 1.9759036474964105 -0.2950847384898337 -0.5318776832173098 -0.043057236200790355
Ni 1.3796680357723403 3.9851999028382994 9.75094614451548 -0.037963623727966876 1.8542140367887745 1.280376464199911
Ni 0.7554134658742153 8.718829178714541 10.075869340981477 -0.2057764417413037 -0.21087365375855296 -1.1594227726319581
Ni 6.851348273179729 7.490597858323882 2.199291843536622 1.9369490511951608 0.7360644118739904 0.5737933496144892
Ni 5.289181698019953 4.286192189164087 12.036677033774234 0.36945878252603465 0.3870597834372495 0.38071944304151856
Ni 8.703587320613048 9.074493945816192 4.822987307186626 -0.12741307404005153 -0.17854408838791186 -0.1754230262604269
Ni 6.546878163723016 5.441324989605014 0.9062665676645315 -0.9384961055127774 0.9810406637432072 -1.292641140499877
Ni 0.6150443032054874 2.684539933443967 12.072616986477616 -0.23701560226124338 -0.16404255233762716 -0.01676616371474532
Ni 0.20873270442437925 0.14969963907908312 12.334229119857849 0.11389472783864256 0.05301897539919255 2.044598312344724
Ni 1.3046608424420456 7.764593427891935 2.8231775255986964 -1.3786594536432255 -0.16425569678969776 0.2827593841552614
Ni 3.775310065176955 6.502896089141158 12.453263351710214 0.11745442016544289 -1.248124803255057 0.3577731186579903
Ni 4.426709090493522 0.6830921797482 0.45468178687538874 -0.9912304597920154 2.072069521181799 0.08395911662147475
Ni 3.5418095707455053 1.45646461039691 4.791492361144512 1.3608283389990756 0.02671144785291529 0.2770109117072584
Ni 8.264418093111876 5.9032606529579645 7.234359374615073 0.5987857578937688 -0.6433488892161242 -0.7726748640081724
Ni 7.67903347308258 5.241694271364182 10.949481076472631 -1.0277067003411786 0.6678144784576564 2.1827539696132603
Ni 0.4346012582278864 6.175402607031435 9.702919150577129 -0.07144889996960598 0.8895674981328743 -0.10250885459920411
Ni 6.148947292819147 8.980060495050097 4.588894022849483 -0.8273012931038011 -0.16495400840830302 0.8672323249707838
Ni 3.308813773602184 7.894263925683761 10.441500503076526 -0.4583963261987073 0.45354851118810274 0.6366617070039358
Ni 8.748505379256525 1.749748792685819 0.8869072973233371 -1.1036102936480283 0.5391837299604197 -0.16275134433002936
Ni 8.184382279528952 2.8804450680669738 4.190492407020505 0.7904036487465033 0.030167781832631916 0.32075051868705406
Ni 7.883353287945846 7.737477419047914 11.159990315351225 -0.6236388123817066 1.0071407032643687 -3.144393860232352
Ni 1.4376623423355235 5.212320889195077 7.463591047620383 -0.5607799680739568 -0.3076263226002702 -0.3494669127851401
Ni 5.768451419141552 2.8279657264158904 7.770973719245317 0.3840081410951193 1.698619100997868 0.17329826660794023
P 2.2389839911693827 5.546228615021202 5.426699779826469 -0.07537240339372826 0.7967185352209376 0.22651007474422924
P 3.237054995544574 7.052364614884333 2.170685601245472 -1.5722750916522794 -0.7012542461733406 -0.7088515989046245
P 8.872550796364296 8.74579836652929 1.2673701362693455 0.6822630497828185 0.44234312939058656 0.6180374070345291
P 1.706675173222594 9.390856558644089 4.631186737963257 0.7338586624719233 -1.3829773642922891 0.9326278196574583
P 8.675562856650394 2.4592430640231946 9.960568951429831 0.3431281150513058 -0.2233681866811379 1.7179838786777248
P 3.580010567299703 3.944236835670886 0.4568464794257455 -0.8036792828094869 -0.8867904496083695 -0.7698949872701902
P 5.087155961739091 4.869246025353662 4.480792451889422 -0.9577922347382278 -0.1347630866472195 -0.2938673211429648
P 5.373567084595116 0.2638942827540097 2.5122619729568596 0.3861118177016834 0.4008884617902257 -0.4746181873742084
Ni 3.0521063802311303 0.19896727071480017 2.6287442717941603 1.1521321525078159 -0.6038973680887213 -0.4540187659563019
Ni 7.379931507508693 1.0667740697610382 3.1361338905474394 0.018725858544277427 -0.3259513461617032 -2.105614189906464
Ni 6.631612250242705 6.291492159615427 5.108653313319087 -0.4107473568621765 2.306631005475595 0.36556716078111234
Ni 6.821259138492913 4.7555056092380505 3.2191877939133753 1.9299317393370634 1.033816155673026 -1.0516400712283245
Ni 7.179254689434285 6.820057041315732 9.065657155116769 0.05247107331552254 0.952901739415146 0.04361413714552489
Ni 4.9379307381108495 7.075883508511143 3.3224415180130986 1.9386817176155517 -2.4287208675305205 -0.1894702483821124
Ni 3.0610349340738483 1.5351331531447219 7.354897604386063 0.6972443536829992 0.5061057164595284 0.07713977970679618
Ni 3.0501151200216037 3.776759922841035 4.386818734471241 0.29569820370411654 0.27198980434358316 -0.5429496247607553
Ni 4.093324414584184 0.8885241639082158 9.722795965046513 -0.6882118111670857 -0.03647701188011137 0.3676525825552313
Ni 4.201549865787694 4.08405633711127 6.4628332184094806 -0.1673317646118602 0.2498631476478729 -0.5519052912921463
Ni 0.7994276575562264 1.0165888066923594 2.872157938595896 -0.9140695970392967 0.6065957408564908 -0.6723843572165259
Ni 7.98788986078885 7.442743379094925 -0.2256354754195349 1.6728044539276097 -1.3810066137191637 2.8523201406547005
Ni 5.154234819488596 8.365981540112085 12.140239082035432 0.8095264856188832 1.3906083984749857 -1.7240084876052502
Ni 3.2783942915995015 2.4317049447200123 2.0976641623361068 0.18134967615750702 1.6923252975693563 0.3473007583717567
Ni 5.272049519166558 6.456408880747316 10.457993092821148 0.3706047232050198 -1.3795824796781273 0.58369209678544
Ni 2.093796345846173 5.278500468140279 2.762525758405655 -0.40877454940652186 0.05563918663085902 0.05135804275700188
Ni 0.577547129960371 7.079361331642067 5.767739337149574 0.40320451151791203 0.22343297848080232 -0.35440343085480897
Ni 1.7068954047665048 1.7702395025838553 10.208481765147381 1.3926953629110015 -1.660242815212515 0.7715857447090518
Ni 1.8749412490847925 1.2884554713359408 0.5174018953183251 0.3150611816117606 0.7136798735312032 -0.6296701061774511
Ni 1.446122904147431 7.214216447030129 11.794176410248296 -1.3290083662750014 -0.965310397492144 0.11481312588785386
Ni 3.5918204838419214 2.471291564737983 12.12041549018916 0.20024265640726804 -2.386999576532334 0.3322109539181698
Ni 8.095518851560934 0.7803822171651049 8.709198636825608 -0.6475557282086202 -0.8510821975734826 0.056783584647947374
Ni 5.572390287174942 0.5796622704133478 7.8258370673592355 0.30163976599953213 -0.30727073903306434 -0.9353488181330472
Ni 2.3478701370046258 8.182134082518195 0.33734517317400103 0.46586795198540415 1.2955341457769558 0.5777194241417728
P 7.787901266289163 3.8576674862852736 1.3532136391914853 1.920985071666737 -0.9874473386004995 0.7636914295626396
P 1.1200884560161166 3.101245543466233 3.411216853363552 0.27538546028869343 1.1821623803213188 -1.3757862458604886
P 6.141257541410928 8.895308055901749 9.74721230221476 0.7015003007458757 -0.4009393696328192 1.2231079694957452
P 5.112537647174814 7.649421506740904 6.169646305052466 -0.31563685160957256 -0.18470290890045607 1.158065487273115
P 8.2953147434597 7.051281809793438 3.9124014483671434 0.6378906943150304 -0.30931296627407373 -0.1406290585096933
P 2.3003827103488543 0.2584407991479179 11.901338326621003 1.1637018596232862 0.7990695519516174 -0.23796536776902247
P 2.7120229948611714 5.787785913434057 10.647980422332983 -0.3142615685286007 0.10709827374209943 -1.497628510680982
P 5.693526812640224 1.9549036521530805 12.477653077566906 0.8974551284110672 -0.03863699564590765 0.15524603709191975
Ni 1.388119421269918 2.22753195088602 5.402981760178705 -1.4026771567140617 0.34463786682761294 1.0861129081942134
Ni 7.5051698454793145 1.0916602342229613 11.454990468419773 -0.05950741133701364 -0.6160270614727197 0.2221073176908433
Ni 3.7286301541821905 3.789065360357052 10.100487557064977 0.8855583769734813 -0.4089912934030182 -0.098409744829166
Ni 4.767921162526024 7.635124809015359 8.509192607328695 0.6322579215092853 1.4300015555606276 -1.6421946994615524
Ni 5.870886616003074 2.7564638851595102 1.3149520789627118 0.2716997839069902 -0.44606968631255434 -1.0967421057732853
Ni 2.7538394592612394 7.311586318381701 6.9854665305271215 0.538991925664588 0.5857682625881783 -0.8220315600644293
Ni 5.965439358855454 5.505540837283678 7.565192117509343 -1.1423442198831164 0.10240961001717847 0.2694624099360392
Ni 0.8286835829019134 2.441532777367033 8.202024661459076 -0.8448007354401451 -0.027355252084501274 -3.156183396668113
Ni 7.202773583061095 8.161358906875941 6.745181986911784 0.5433977680417673 0.09677889409396236 0.37563688631228853
Ni 7.680345686031715 1.5511274690212455 6.4106557774998425 0.09947700975141578 0.6095733354275761 -0.3713721974986637
Ni 3.6193127215734555 5.754448363474556 8.48675009537275 -0.7084412508400831 -2.1772538657306373 1.197695957180544
Ni 1.835804268468973 6.029912143335347 0.4833944744127623 -0.48210292578702785 -1.2591162692695541 0.47021337343829345
Ni 1.0603139444729874 0.10691690878010683 6.907798206041237 -0.2781776783218499 -0.14756435217694586 0.4563199032856528
Ni 3.7011379164506555 8.195834319812315 4.60777704247697 -2.4333737929214996 0.8414469884765637 2.329574758755962
Ni 2.365507013146151 4.330009090088011 12.183216350198197 -1.496430890828455 1.3158083226449597 0.07275167794142955
Ni 0.25568974011189854 5.029244242004874 4.371105213813204 -0.14599957879298725 -0.0024620883872473725 0.637350248430528
Ni 1.0156895278880569 3.7897260549887846 0.9733885540913855 -0.24401337373531526 -0.40366345343220156 0.17513737669920804
Ni 6.765659849969759 0.13154888933509945 0.5499053183052638 0.06304062130125271 1.3093887922718612 -0.23481036707980854
Ni 6.897936421031198 4.20812928316203 5.7690955964074915 0.0031192623552720473 -2.308910288428075 0.7891432939768409
Ni 4.828282958186248 7.6729128714247254 0.9202723762258268 0.4931167603990281 -1.3726361302672812 0.1476808231501521
Ni 8.050426442945193 4.273455464874577 9.018663414171932 0.2089808076112143 -1.3074023579694516 -2.1865638302776538
Ni 6.0316281141149855 1.9900764649785048 9.983132590734929 0.29684748681721135 1.8027032705039918 0.07312834455455793
Ni 7.611266391758353 3.3109885600983033 12.652665579724239 -0.7792221782083871 0.13555395797963107 0.2962337644926124
Ni 4.494054061358585 4.894765355504329 1.987238230956354 0.18708272198654233 0.7727185727619144 1.763913294219988
P 2.885868269835778 3.6417763390523596 8.09992623533345 -0.3966227445353363 -1.0874046304224434 0.09356578647330337
P 8.980730365996159 7.859907804833673 8.210821076375447 0.0012917222282300333 -0.5084914430828856 -0.5570624100130536
P 2.5349476572425407 8.950760523395626 8.743997056026384 -0.22851553521003223 0.2531693292029704 -2.00704555090193
P 6.217347539832117 6.54221659604357 12.472267498686852 -1.1272850115571489 -1.1756765154866593 -0.14482098510385383
P 0.14727525683319814 5.374530597599727 12.487671777551983 0.4388618557102055 -0.2464528364147433 0.41747619094557775
P 5.83738389238564 4.396243726919192 9.573194512530756 0.3136298484818728 0.11056077836940313 -0.27120201833496516
P 5.513955517523938 1.7153467902640824 5.896631683486249 -0.3653920686558288 0.37786423298091054 -0.6358788060913243
P 8.863218484691075 3.6435748966609647 6.523618959791734 0.19244912850477824 -0.1443432741364869 -0.0001807485522383984
