# total energy = -340864.60718966654 ev
CRYSTAL
PRIMVEC
9.33122963253355 0.00000000000000 0.00000000000000

0.00000000000000 9.33122963253355 0.00000000000000

0.00000000000000 0.00000000000000 13.65719778235834

PRIMCOORD
 96 1
Ni 8.051721867410839 8.870966481164565 2.2483027961617448 -0.36678637790019414 -1.5708874672761335 0.6420322272872298
Ni 4.083980495835415 7.55769859088385 11.044015711827429 -0.56209405889969 2.1433734109331084 -1.2738353206472834
Ni 1.235678718070567 0.4040412985907672 6.4911428064038565 -0.7151824262186587 -0.06925754874524201 -0.03994902958911185
Ni 2.2885773152448747 2.8891912248634495 9.955741490989155 1.376015074041843 -0.2836908948305953 0.11182858933823323
Ni 3.303815070682542 4.47411919578807 4.956060396527001 -0.3211264139692341 2.147129021320799 -0.7944330816208706
Ni 5.443652589772303 5.525496802575095 9.02731216237903 -1.357189713805224 -0.33777584960045703 0.37951950919614635
Ni 3.9431909071033973 5.263391900805898 11.130547934265627 -2.240736459665315 -1.4629517852344032 -1.0107052806871755
Ni 7.271957685120869 3.8841148939629937 2.448995144956333 0.9182247568582508 -1.1547014558968887 1.129956644852041
Ni 8.5007499559165 8.079351637574911 5.0188287771290465 0.5967530437344561 0.2652563422744916 -1.061804413355836
Ni 1.8241900231964703 5.915952764326325 8.305529440024381 -3.299541681183511 -0.7387596993179665 2.218266560697573
Ni 2.1916165108629557 7.176331246538836 3.789981452080134 -2.728432049048772 -2.280262285674079 -1.1478808334306296
Ni 5.383839409511683 0.42903033084317593 7.846510404232442 -0.5337633302757968 0.7311633750279473 -0.952308071695205
Ni 3.532794108188838 5.91952662517497 7.1926450348461115 2.723156916692762 -1.881173596096754 -0.7385547823960119
Ni 7.503680104061894 6.160636260862047 3.0928639683187615 0.8855763746956103 -0.2570336972543832 -0.6388818545837062
Ni 1.9289517353315684 9.309599580152234 2.459019684668343 0.6850418980795363 0.18340835845874867 0.08526266592424671
Ni 4.965632371614574 3.6345231707787407 2.4311724968599546 -1.601092530104604 0.5957693396649482 -0.3058178086366217
Ni 8.202234597146221 4.05826362769216 6.221208070070434 -0.4592645877362736 1.6193067391197855 -0.4014615606848764
Ni 0.5491904376843701 1.1614394572041877 8.766227163979956 -2.366710487265995 -0.019235194080528165 0.2127868116208658
Ni 7.408305608672848 6.052347344025152 7.976349795298963 1.1770533412295276 0.6705241640793355 -0.41356142927220385
Ni 3.1928947471633555 8.310504851524376 7.019417293455749 -0.6897153922958057 -0.39668342256994266 0.9031107840349478
Ni 3.515540665084019 3.2383564966531746 6.871154323121433 -0.48158536272066094 -1.0153322379362255 0.46137006411505055
Ni 6.42515795103803 5.556439159165456 1.1486183480500392 -0.8515503954591528 -0.7976999252976004 -1.771671340898852
Ni 8.081917725651612 1.7623053100157478 13.496902912553919 3.9439424087029176 1.0313664085809526 0.6194638550684105
Ni 7.197615780731422 0.532641502396974 4.486703291716225 -0.5824749365488872 1.249374359391442 0.20123355956562763
P 3.449550210980571 1.0451070206504984 6.497848227829017 1.1294588792800162 0.8936246989213834 -2.4667721658762867
P 0.13065773988225468 6.988866848498921 2.1662635606651235 0.13637336855713286 0.11272950388594778 -0.6221575998504898
P 1.0561645274537486 4.068388011558427 5.6426214605022835 0.31640895388890666 0.5292811261347272 -1.9256511096838382
P 4.69122890953594 4.478084968270249 0.3299672004842337 -1.8998200075533473 0.3861133603635802 0.06748374467427087
P 6.364803559473959 7.673303191546692 3.8877811339824007 -0.7197296792697089 2.3538567712317784 1.3607396359400112
P 6.391061638920666 3.985302745249447 12.720969199920267 1.51576790059417 -0.6863171652475342 -0.6513046537280911
P 2.9722391662549494 7.56321334744142 9.172091784789588 -1.2095379441207943 0.4676728664046268 -0.13568636979243728
P 0.759536876384986 0.804167213337953 3.9719777497093274 -0.7260587068115302 -0.17575367012696827 0.6314025154875255
Ni 7.955563548754726 0.4048083256449673 6.973255701763193 -0.24092059374260444 0.9498326135715189 0.3764287860859646
Ni 8.267543871505671 7.301547013452605 11.154720483948173 0.43419376081057476 -0.8333143320671003 0.0337639838243225
Ni 8.977519789338672 4.97198693881543 1.0781153114233404 0.14386633450006833 -0.5998450523962185 1.8306496192052732
Ni 7.5407904032657145 3.483562542033607 8.475493117381177 -0.500960424813163 -1.363004520714788 -0.9330034578293221
Ni 5.7902424422559555 0.4673546229880109 10.300408177099683 -0.738818834690676 1.346174850751959 0.27091739721501085
Ni 5.857688568141096 4.424122468824513 6.805804924475692 -0.6881920136727439 -0.38015148635319046 -1.0225045873149488
Ni 8.644049645349003 0.6921467378760628 11.31653146620455 -0.2306752618655124 -0.7923234914770355 -0.49686877124229273
Ni 3.0775420896934986 3.042344692510494 12.531174793906706 1.0703492176020535 1.3882051883501318 0.02163557599190467
Ni 2.4284431122692793 8.976054786327609 12.645608325283634 0.43660005625922227 -1.6262034662396188 1.3178811460135882
Ni 7.055669119557544 2.340011051531386 11.469628946475373 0.8844486888490702 0.6500661533352997 -0.889578553876468
Ni 7.087395299414972 8.46918240695836 8.961388893127044 2.0797972288433604 -0.016965681320061102 -1.496620638241758
Ni 0.48815206700749136 9.130178701829115 0.7880297852657665 -0.541341656843687 -0.08445816774508035 -1.8108824638806749
Ni 6.390464440240996 8.30029648659378 12.016531366718262 -0.8303837886838666 1.1608273662889685 1.8073793358234227
Ni 4.063414466304306 7.971016064591167 2.971806197212189 1.3893048491722138 0.5992354438366776 -0.07313014432677083
Ni 3.7044234099881486 6.7765720491058845 13.044303762568424 -0.12843123089192077 -0.6919424818541116 1.9821261619524315
Ni 2.2865897633891006 7.266778852820613 1.2402575523223434 0.3216560612204589 -0.00497431328613982 1.0867124894514253
Ni 0.7152424636893326 6.46942530316851 13.36603988562553 0.5371119350330555 1.5782937870425333 -1.050121577701269
Ni 9.177320072605504 2.134070819339205 5.3632911093163775 -0.7829132539067291 -0.6444169254693224 -0.3152820393733151
Ni 7.1094263319571445 6.248788384718845 5.524595405817969 -0.7534982910797217 -0.4139923461620354 0.02757893805953315
Ni 4.986478338026779 3.1269042930599067 10.981192276972104 -0.9830736350128361 -0.6025118005951043 0.16311926919240938
Ni 2.285684634140227 2.3381634681161594 4.797486417739022 -0.32771306604781625 -0.49556933570457873 -0.2948209433054858
Ni 2.572657262180025 3.0987333115923854 2.0361246371358313 -0.4084909567278319 1.302888529259498 1.6973487189258767
Ni 0.22918245830655762 7.531580479877691 9.157506140161603 -0.2931039606143791 -0.09342334735816814 -1.190823912651059
Ni 5.129917995899828 8.94266764764235 5.312758769786992 -0.1476502270225328 0.053586417866888364 -0.15443022605884374
P 7.596395199080541 1.5501691415219983 9.429748489518186 0.31773384334791727 -1.206613828495464 0.027677925531242653
P 2.7278169441415834 5.16746686288403 2.9273932779035396 -0.2623643654386772 -0.5756797680039246 -1.3459956448616175
P 9.097267455841719 4.850083758327951 8.70638132441654 1.450495047528289 0.9123654698639965 0.6879439022176798
P 6.000549689793217 7.280327797865608 10.215228982920113 0.5191489227967317 -1.6695064999026277 -0.3406392871911811
P 8.707557992440076 7.784615426699412 7.11378868168754 -0.06375667353167083 -1.246675215292724 0.9270418409292487
P 3.708697113039532 1.0298224669427143 10.337022988023966 0.021744076545310936 0.5406870539788237 1.3359305473161316
P 4.0837005589543205 9.112318728815257 0.9925255431514979 -0.5564589721010996 -0.5864146379229255 -0.12219604861548633
P 1.5394009028292128 4.346160047439571 11.582381923442796 0.4287792746632229 1.032038752057629 1.0242681069732746
Ni 8.587063827587443 4.936369636310784 12.47126083636889 -0.6778487227652068 -0.9354915143584985 -0.9952483227021569
Ni 0.7350983866653972 3.1242168990013957 7.46901178758416 0.6605652530944107 0.32592692068167095 1.6702960856834588
Ni 5.842823919754955 5.938487683254468 12.149019893802878 1.177081880474618 0.720677645005275 0.2830537754672286
Ni 5.315086911514765 7.351226478617588 7.0367892431735655 2.0009345529081863 -0.6740817995236068 0.3606805221127724
Ni 2.8229021714201665 9.18748178138925 4.63980077198705 -0.4520940381297634 0.8366547092942429 1.0609078696834955
Ni 2.223445334243451 4.878049452749336 0.4580252598640534 0.7540428507292819 -0.43901843589272777 -0.15496990061239763
Ni 7.7790726764537315 7.2121818297777285 0.15558052040613765 0.5382133956273505 -0.02897838951022106 -0.06145630753326835
Ni 8.34897751021619 1.7503613364223634 2.600971944579842 -0.31449836712975515 -0.7138104855717965 -0.5979771459495444
Ni 3.979732001315657 1.144643244338491 2.8822693189169084 1.1833067783384073 0.7382696470554253 -0.45237248860213064
Ni 4.331211417989101 0.7872870194079278 12.458737393431639 0.8107184490444553 -0.11476144671431204 -0.9315602976248925
Ni 7.350722592231617 4.734199220784014 10.389808819446165 -0.39522046487117096 0.9350140605014476 0.6829407925761335
Ni 5.977986777176964 1.9178102474639898 13.563413116133267 -2.7820328650933632 0.7281017053834881 1.3186612187127225
Ni 1.5026078654239672 6.6677232585068 11.02810503262893 0.9000596559134499 -0.29976928844969664 0.15748649638666426
Ni 1.422872510458757 9.229668269370258 10.473800148126957 1.7223712091121435 -0.25704269611544767 -0.26690596206277256
Ni 1.0605781989456788 7.021787425715686 5.91760905753947 1.675619040558269 0.4259901419538599 1.7740241574017448
Ni 0.36164205858012677 3.402100909634978 3.1706686919273537 1.1447993662918283 1.7292584231502799 0.49113803940610257
Ni 9.335708359929024 5.727639224413755 4.423798675165379 0.8385285292781882 -1.3445265165152587 -0.4289957615494031
Ni 0.07128592677082778 3.319500867253229 10.460921185350713 -1.5523904369132104 -0.5562887650718226 -0.4625291174201582
Ni 5.251307958771966 2.973778819100972 8.683915456585733 -0.12264522033776297 -1.1051228736378127 -0.0944463893060438
Ni 2.812021957974943 0.9940745272268898 8.447563814754336 0.07077475672071681 -0.20282275842961842 0.42444645161582384
Ni 5.987896542767725 7.717962455310706 1.7865114521240275 -0.31984883280839105 0.8665270713736433 -1.6948272380556038
Ni 2.6545294686709267 1.5051552910419312 0.5814251695424532 0.6283760699563758 -1.6807404209452343 0.29320269097577245
Ni 4.762230233810987 2.647437734349855 4.832108078069909 1.421958630651493 -0.8131975067125673 0.32226849799347723
Ni 1.1842169880959463 1.726799982263539 12.523199392164308 -1.739036071362334 0.40094631161135463 -0.5861061055435712
P 0.4463164332507888 2.7849147366555824 0.9496345473530673 0.44163170514585876 0.25886020894016065 0.16921175524339244
P 0.46629272908572406 8.393226199887932 12.31278296924342 -1.0029122670053179 -0.34532126604788266 -0.5699621487938571
P 3.511910816859155 6.803212708956753 5.350821787509472 0.7357227122638555 1.3078600143321604 -0.3117246610393599
P 3.49723279306041 4.269858584882458 8.69215026650461 0.11041088305510018 0.8682173145918725 1.6543318490447183
P 6.143224186857941 1.976167755942916 3.184612347974693 0.2024345218522643 -0.8124976524320651 -0.2461432755941245
P 6.955526365960513 2.2346614719459885 6.417011787798167 -0.535615295882871 0.6407780431651545 -0.49338081269369216
P 6.10228808361249 4.496224878165201 4.25365677132762 0.1550467765969201 0.6071446713814254 0.9418315976439133
P 7.1387450546371545 9.306865529946874 0.17486257277595746 -0.5263171584103968 -0.9054047222754471 0.9905979684143391
