# total energy = -340887.45598147635 ev
CRYSTAL
PRIMVEC
9.10092770606550 0.00000000000000 0.00000000000000

0.00000000000000 9.10092770606550 0.00000000000000

0.00000000000000 0.00000000000000 13.32012763370167

PRIMCOORD
 96 1
Ni 6.603915300180588 2.3231119169927927 11.376960562285998 -0.7630388835803054 0.8734384537814956 2.743869980870397
Ni 4.678741448816739 0.6129966286029449 6.220220186471811 0.4747380007815244 1.1564942861312535 0.18948953165582205
Ni 3.095635067658253 2.0823468735116326 4.979396967506232 -0.15569289482135124 -1.426437235248137 0.1529497848585753
Ni 3.2997506751122487 4.450954328299258 4.702178157944416 0.9598084938373083 1.0749563773567616 0.46291246890150595
Ni 3.891620410049075 2.6519830419686077 2.7365406717356766 -0.738620859747257 1.122838545750021 0.27242072123341465
Ni 4.851422451841178 4.980682928596533 2.631630637253547 -0.0004633127896637182 -0.4715367202354072 -0.10053913246734299
Ni 5.359536348745227 3.257813600065521 0.7379086820819702 -0.14658630453439273 0.1603224231735626 0.3162719140904101
Ni 6.131604453023463 8.13390866702208 12.73151079453259 -1.933505315620935 -0.013722491792415078 1.058305913284274
Ni 2.6074340006592034 5.814737451742663 11.729118231081705 -0.27398575172768946 -0.5001078470048806 0.10474134347414864
Ni 0.926519949030409 7.78644434666422 11.822039613445982 -0.11623108928130306 -1.2846583794047164 0.06387571560803838
Ni 0.9476250004699406 8.735561899284262 4.430167809330785 -0.08589361464002628 0.0016696743929390599 1.6244962537405248
Ni 8.737181864422785 2.743820503838514 1.8280014256501067 0.07434061969510423 -0.04112608061634852 -0.5560604511111004
Ni 1.3899209879256536 1.1395453647462852 2.629339933740253 0.6246407712836597 1.399652768065441 -0.7635636457355236
Ni 2.2633097207835804 6.668732107577028 0.7415517834580998 -1.7222835344943435 0.8907216663419756 -1.9401457037555876
Ni 7.6767508645595735 4.025922800774891 4.128586726289674 0.8111743056349513 0.16799330945525906 0.20677660087104388
Ni 7.5181762995391335 4.014947081915006 13.073824899879831 0.9802179107315956 0.3172288786870408 -0.20801741525668044
Ni 8.41760278667412 0.09987540125386292 6.766264930029452 -0.7200574949227728 0.904438758817752 -0.6177360737440264
Ni 6.767085833712008 1.2273420146976273 0.49989211877965417 1.4297855828950796 -0.07852277609725186 -0.5827695849711706
Ni 1.9885618131043996 6.7725736931419505 9.476311891008068 0.9750196543601078 1.7338537558304463 -0.4643157770069359
Ni 0.28615046005028455 5.089639235553872 1.5291906650144267 -0.0073384426429422 0.13372821762480194 -1.0196864011398632
Ni 6.527540314548612 2.478637671218819 6.963442900263804 -0.029324202885414014 0.059259814102581805 1.2555493778539022
Ni 3.3591979351394246 4.710685705199989 0.5263476056401865 0.6604562383203723 -1.629094671744485 0.3105193278773491
Ni 5.985452654374287 5.866594538030913 4.676204110161567 0.08299058206061836 -0.25955646367623686 0.8444937457226875
Ni 5.506379817902986 3.3968666750739747 9.272327336913595 0.19169476683725695 0.4420435958722968 -0.07473219870656807
P 0.21665577579316356 5.744514693265981 12.569631682648119 0.38298972713293394 -0.023149441533269807 1.0081634881019284
P 4.400034637568694 6.535166891998516 12.872451401955257 -0.6906343045656493 0.7911143016602826 0.90376281579665
P 2.362637246187224 8.811345324612843 1.2148355197911136 -0.3470706446388216 0.4210849913427586 1.0523427537223038
P 6.505561574045608 8.370778513428588 6.2334201720724565 -0.7317393021360753 -0.2172178508090259 -0.5940875810871511
P 4.907529671386116 1.561309659210371 12.685303564188137 -0.46138754761654727 -0.8912294592163297 -0.18027546925672178
P 4.1325674720851255 6.593858775022898 8.651955316466495 -1.0262090327497295 1.2040424682238617 -1.4683205057454842
P 5.020162753152242 1.2250212781227756 4.0056422933890135 -1.0316875393657972 1.0828455502968513 -0.29920133176136854
P 0.27202217981969856 5.974486036442145 4.197891201156935 -0.03194081457265467 0.13242595387361064 -2.3663281642259117
Ni 0.769822905403663 7.497453487064872 2.3785220054725014 0.06497974730549455 0.7874666776053664 0.15773460784172835
Ni 2.042703232256523 6.623391285553851 5.145778308345918 0.6365069265936264 0.6831361964163912 -0.10759141132843406
Ni 6.181877977884167 6.0536914106026645 9.145666085122073 0.2924447297638254 0.5569906762348537 0.1374984833005116
Ni -0.030733832993229123 2.74493991795109 10.515868092903684 -0.29757408057059076 0.6615918945867122 -0.36515681271657113
Ni 2.5141039866391965 5.479177144874629 7.223425462770282 -0.51020791155336 0.12624682164609224 0.13858785970994844
Ni 0.41566849306080916 0.38151544151396555 9.918846322770689 0.2070637930941595 1.2205931734936915 -1.1540005731751224
Ni 1.2778703655351777 1.1327287698656432 12.052411397442906 0.49180215535266264 0.6637009705099151 0.46197838712301087
Ni 4.19533657073905 7.4182572138320975 1.783565235844735 1.1379340066305628 0.00230216577061539 -0.2542497067513428
Ni 5.652877451806454 8.628307465815146 8.239964508307244 -0.08359787662731409 -0.7215227666143896 -0.08005669624327502
Ni 6.971219643021492 1.115746438694377 4.898942946059166 0.38822475027962816 -0.4365062109938353 1.397201221201155
Ni 1.1481184386816188 8.097395744911084 7.259110200456528 0.4774371448802422 -1.8820871090499585 0.06362606149107752
Ni 4.992641547652826 5.118689396914367 7.2799695268469575 0.5245919481891739 0.10295545521831946 -0.9467043523551827
Ni 8.456645766698092 7.695626188701699 9.239173567233099 0.26032959439683556 -1.6327397246962398 -0.1826902493458015
Ni 4.837598142597258 0.44408431975751017 10.45797891170637 -0.74656891094974 0.8093429088531674 0.8677051508421443
Ni 7.886763873192016 7.480380146616161 4.802945450117241 0.3824348830707284 0.9453627507256234 0.36171539113518997
Ni 7.889466848732137 6.760178229553921 7.151377058188051 -1.367063007054878 -0.2668383420496308 -0.13477568505270981
Ni 2.200649833262591 5.659721349470329 2.886671395994754 1.0365458958993632 -0.3756975643468949 0.0727017985401006
Ni 3.5825073992066034 4.7390623979073885 9.612176911027618 -0.14314051207763734 0.4355294489028628 -0.42282177152820727
Ni 1.217121672840536 3.582698518689238 3.790082269296289 -0.534811311924337 -0.08965899521972945 0.4935147671683952
Ni 0.13585500899903083 0.14927432695831905 0.5975796570037355 1.049969882614753 2.4208890301909274 1.1127963310226707
Ni 1.3194069997611466 3.593337503222577 8.496776307587533 -0.9013269526616476 1.4545026260257854 0.6055559867380668
Ni 5.46281367678999 3.2684161808878818 4.987575061177455 -0.4169619703133206 0.1252114384030424 -0.32999646276535427
Ni 4.049776332393267 7.400747028851649 6.162849758155933 0.7575197535342889 -0.702856557663454 0.4782979502186408
Ni 8.365126837299243 7.327803092979357 0.39373343701097774 -1.1415188957683438 -2.369512218380848 -0.7136019691054162
P 0.4049020955390472 5.791193351667601 8.236341428972153 0.8867917351599502 0.6587443978355881 0.3101855986870142
P 8.728617891415196 1.6893415107202163 8.143139738033343 -0.28071792824520037 1.0179537347194727 1.597463932213081
P 2.0958344484290046 3.701629442454568 10.778340669241063 -1.3448826143030965 -0.33672401129717494 -0.836886622799391
P 4.14045797643962 6.676285877604975 3.861638313687543 -1.8758961497478985 -0.8700844497075984 0.6740859132886649
P 7.053983479930117 4.314777146458072 10.641116880709259 0.11950744603972967 0.5852792387669017 -0.3624694956923951
P 6.673846828969446 8.269539793198597 10.142011992179505 -0.6726288691271641 -0.006911896628484871 1.4398694494936428
P 2.550225568857179 9.057725640512368 5.842660918248386 -0.24962506349513783 -0.07702973649149314 0.528520850929935
P 7.006130801849454 4.375362022453312 2.0390583106948443 -0.036258982332034326 -0.6110224091692767 -0.2469914825270327
Ni 3.0085118863600053 1.8284218885119035 0.510763176970478 -0.517713733012102 0.29284479341572145 -0.27871272488971355
Ni 1.6443829276623094 1.6876032335210138 7.274867546753382 0.5726314680959042 -2.766017977722346 -0.6118770438600882
Ni 6.914229633485335 1.4464104464358616 9.48944543983618 1.3985641629869525 -1.8197039188270467 -3.0010705427199476
Ni 2.614441715022481 1.733763139041197 9.55223638071669 0.17380554526166198 0.771240188444175 0.6781636829024643
Ni 6.584093479553033 2.0676579761319847 2.743666698159632 -0.1729820209191021 1.418737552611034 0.11335376773350801
Ni 4.652485272273812 7.1438733432626975 10.75417861617215 -0.4455598365556714 0.046717458661196955 -0.021285391741337534
Ni 6.9981947928562365 6.410811815297455 11.354649637920318 1.4820375982212604 -0.44970728306514157 0.8200780358824844
Ni 7.690657082153193 4.36937361199742 8.492167597777712 1.2955521434990849 -0.6331673206974321 -0.6915143931777574
Ni 3.454612061612926 8.681893728374853 12.66726825567683 0.7220809531107047 -0.17324273077965646 -0.4273389426722705
Ni 0.49576120767641857 5.339741830900906 10.455900259809523 -1.34452111719862 -1.279680466574151 0.1958332144856627
Ni 8.83607254529469 2.6026833163765666 6.096582262877018 -0.11946425150662006 0.5543193000502776 -0.4359940472441072
Ni 4.00576424582079 3.0094583828454353 11.2365268765387 0.35134407520319494 -1.472392876042645 0.8502954400061292
Ni 1.2584125820174035 3.4524460408097313 12.745417012126211 -0.8760715205289688 1.2070259763322182 0.7078077310211423
Ni 3.0578662175185136 8.888002439004897 8.255788291376632 1.3850758986925307 -0.7072690849088529 0.4997314375020684
Ni 5.626867000312628 8.243119799956268 3.856417111440514 0.8567296256672471 0.045314150555767124 -0.0992965183094935
Ni 3.2053922562571113 9.040752410268848 3.5003960988172604 0.6791522720679787 -0.7244324840620169 0.3569855897596884
Ni 3.6993360086629496 3.2256509214164026 7.502708362744556 -0.06009259441652231 -0.868454370303343 -0.36948217956480234
Ni 5.224860819981886 4.798746282055921 12.00375237716408 0.5649055602065561 -0.39870996608166814 -0.4608794976318773
Ni 8.300783278145518 9.283674373625457 3.0168492462667564 -1.4457891574121873 -0.9126858293178928 -1.2482225051751858
Ni 4.814836722308225 0.7367510440728678 1.6763117124683933 0.08910106583373041 -1.3768213719932223 0.1006869708991169
Ni 6.215023556729692 5.901806027474444 0.6827980141250561 -0.07698268530364161 0.7527670693406519 0.2168632956830846
Ni 7.973004264499044 -0.053629947012881436 11.823198161547861 0.24560385815088673 0.8627647761177336 -1.0492674572310896
Ni 0.14870278869596348 5.105138115502783 6.096676002432786 0.018988625287360845 -1.3173378719156086 0.6646373662812554
Ni 7.7006863045276495 6.51576371404721 2.6778114749075432 -0.8978950441619632 -0.9035399011525664 0.1905953631254911
P 8.846565914984117 1.9476622438205466 4.003936779529691 -0.4717678624096069 0.23523331354984003 -0.18365621280349662
P 1.893903063633693 3.4116556826588122 1.6668403769646758 0.0952064074005199 0.07018545987615009 0.07591567749170797
P 4.676766547496179 1.5502247292175508 8.5181152528701 0.13438564870314276 -0.5042966882752475 -0.5962982155852247
P 8.430043754900874 2.0135074560521167 12.556590963283 0.7106197465486407 -0.23893878742588523 0.92205415790667
P 6.80893189948129 8.324718718113594 1.6920954514557065 -1.141631252976492 0.1476440563749457 -0.5795420791728084
P 1.914207233431707 3.4498704782580334 6.155710080340361 -0.14104969098687967 1.9409378606395797 -0.21165089824420968
P 6.928663704888137 4.694294934332117 6.348279340764889 0.03899772141943606 -0.9013063838363574 -0.5969512757881912
P 2.3301014295005804 8.983716896093968 10.725126634626106 2.151269525851734 -1.0104286299870213 -1.6261715845604185
