# total energy = -381168.94238911 ev
CRYSTAL
PRIMVEC
9.26496698470995 0.00000000000000 0.00000000000000
0.00000000000000 9.26496698470995 0.00000000000000
0.00000000000000 0.00000000000000 13.56021569933362
PRIMCOORD
 96 1
Ni 5.24560187588327 8.798864905455783 3.5761410122353587 1.8292172576341208 -1.163779249828441 0.06913567845539705
Ni 3.3688901890952123 6.209538292772666 11.213660851955018 -1.2989611691806338 0.6933838422863284 0.04724016393388638
Ni 0.9763792673799004 5.205632808857184 12.132853964396324 0.5731842552755806 -2.1842961172893993 -0.3516608351126653
Ni 2.892846926956304 4.989647901459855 9.002695102831899 -1.536107897703103 1.282575785844075 -1.123622217993581
Ni 1.857449820689951 6.373213197288849 5.754195746084936 -2.149754631869104 -0.1075628720833438 0.8631141890373522
Ni 4.461785679683281 7.425898731712521 12.8858798962366 -0.08832947777502852 -0.07905859399606384 -0.18919359768195804
Ni 0.7144067704854277 3.616311129042265 0.8683673572508332 -0.7500779525442631 1.5854656222006245 1.0388426623533398
Ni 5.073634826029037 5.298004528432999 5.080334323564171 -2.136757448278488 0.964230534164404 1.9467701510506406
Ni 6.377317577607012 3.4835534189317494 11.928039827539871 -0.5849642786296442 0.48930792817589924 0.21244614045199542
Ni 3.604489031331258 4.390019246400005 12.831774342778344 0.8370511734017132 -3.052010266992608 -2.022594811490439
Ni 7.429475008919769 8.379356471085345 11.215559243664254 0.9928258293035934 0.3574509594318811 -0.1538913228362382
Ni 3.196330181362059 4.6009269519590665 6.669592075107769 1.4602012190724596 -0.3981924030153013 0.4851689663068611
Ni 3.31147518947522 7.49428345209257 2.0595391307934188 -2.4344415720643817 -1.4098325368119202 -0.19198787259764355
Ni 3.5430900959622593 0.3819695681512504 12.716091966587408 -0.0415107176492769 0.4087676074279864 -0.997020069890599
Ni 7.938205074134251 4.622329025401407 13.37853617044887 2.2126278743545567 -0.8267500485860212 -1.7210149521945652
Ni 2.7090207195236333 8.964531777846469 10.227073444090802 1.684144304420461 -0.8610519071916849 0.2284448298730969
Ni 1.7290651749364851 8.963790580497818 5.80812526517289 0.6626524746407426 -0.7703986663794861 -0.9259426943277989
Ni 6.271798870059474 0.5901385495070401 9.427848681509014 -0.21571735500409944 -0.4573552865287026 -0.1106098864397837
Ni 4.103287052073797 2.036393390588374 10.99371424472914 2.172008815281614 0.6777499924038134 1.2862030981840171
Ni 3.7105914317908595 2.5127887214678917 4.0871298763698585 0.3782473273519421 -0.6841456115175121 0.5012812984876914
Ni 3.9452730423079485 7.069169712772944 6.883151414181634 -0.013899897910543803 -0.6507294979509116 -0.9334716557149925
Ni 8.160054705552794 0.2948399668237807 3.632876889784648 0.5532060123814408 0.14525858686190468 -0.20504444867128557
Ni 4.107437757226251 0.5167136871561547 7.875447894623846 -1.1320176411461278 0.21456884322195302 2.234487907652442
Ni 6.337515279984374 1.4711007027048506 4.807666348928643 0.29620882479194793 0.13499268615952234 0.4957667964273655
P 6.138948510280377 5.010725701062159 8.729701001362963 -0.8569630818342919 -1.0629413551737563 0.23202894767992943
Ni 1.2130528457714924 5.988133379763315 2.8785084642466225 0.032727315029692026 0.10037920985071098 0.6394927486948278
P 2.8782268092541345 5.7712127107133115 0.37441769366516753 -0.8240527042595162 3.23630308493884 2.5345418172220935
Ni 8.661456181982475 4.725911354875589 6.923547596179879 2.449588712118465 -0.21951898813837678 1.2517783408472443
P 7.116365453948391 8.022507007576612 2.5493065883393133 0.3439948339269753 0.34206033590842383 -0.7932632296824854
P 5.138118995361803 8.642194315884367 11.084283001754358 -0.45069870044413346 -0.49055902697418097 -0.3582567431626281
P 4.564765786311684 2.53133718511792 6.012748543712064 0.17866364468491164 0.11580685725969088 1.034100262572348
Ni 4.326276274415893 0.0989970973760815 1.4880305766447588 0.2167938758977299 1.5689892218121557 -1.517277138149845
Ni 0.7354123033462387 6.0028739420346415 0.5652417305658036 -0.5572608991771048 0.8898837438217125 1.4393711697009854
Ni 4.9332520481942606 2.245058974167761 13.602523229721589 -0.06049034407557324 0.3239068049278486 0.5113780206020613
Ni 5.7960706167937435 1.6180986668763517 2.6253395388607697 -0.4269602191766131 0.7679473766255162 -1.5991706304915427
Ni 7.0561246394366615 9.107360506931801 0.46581010624407465 -1.8413829464623772 -1.0685440460725146 1.1640875250974791
Ni 2.2370540428023142 3.5975403061876414 10.853610342396793 -0.1937691328677824 -0.11201499431742644 -0.7056228075546815
Ni 8.050459412587667 2.6357718915430532 3.0283211253496316 0.6523472360599927 -0.041843161288031165 0.28927661644848895
Ni 9.15750250756814 8.003708389821412 1.7401961061198734 0.12261436709982754 0.3590584131283171 0.4156903026897486
Ni 4.572390854035946 2.942794363288623 8.26901905427488 -1.3235861668181657 0.17161445114761414 -0.22103851010669673
Ni 1.2292294779058326 1.5304613453650553 4.0305709596875605 -0.5428964029253167 -1.4660206539677139 0.6258908416406769
Ni 1.8787592444637096 8.279535718155572 0.11632443839420466 -0.6049026694247841 -0.504041377731332 -0.17400274887413258
Ni 8.092272208018525 5.916607835618351 11.252077110535675 3.5290087816735354 0.4121182690677741 1.1675122345083118
Ni 8.28004529133277 4.858131696908332 4.436672060517564 1.859404065630146 0.5911706645506721 0.03194081457265467
Ni 1.0470153747064808 3.5114224392410827 3.283172568716926 -0.4089617257166634 1.4208240028264176 -1.11221526170822
Ni 9.187391290652553 1.139507538851451 6.120416723570694 -1.3283712469116349 0.3920695779470151 -0.7392939745548815
Ni 0.5719078742202468 1.4423885704114252 1.5601027538343533 0.6328670158481939 -0.9110817180555664 0.901629571503731
Ni 1.0351006273268923 6.568222219719313 10.424104082289718 0.7513246804671705 -0.41087076981391824 -1.0741979019241823
Ni 7.927531832313655 4.896099531093054 2.038765222104062 0.7235770780402572 -0.02789184131426164 0.25014648321624666
Ni 5.783359082264354 4.959129100629089 0.06265248538490757 -1.8581162000566578 -0.003976725259560893 1.6475060843721367
Ni 7.641920698977283 6.41320079424865 8.804268234127461 0.19102036647805168 2.2189329906369784 -0.1688872820244382
Ni 4.393289779700935 0.029238382410968357 5.748717371181709 -0.17708318757166921 0.0007111671344116784 -1.0676626719088258
Ni 1.0704001510564662 0.2674453128175854 11.611761653903004 -1.0292786728139889 -0.5198644608065176 0.6800519010641126
Ni 6.170875586073581 1.288080547388839 7.102216923059301 0.6974415572954699 -0.4569076574683228 0.9187333210635533
Ni 4.553796065551627 4.533246369060238 10.37768752482704 1.6777273451505237 -1.1654144714390187 0.13159934420725725
Ni 1.552910360062367 2.330519028467391 12.855111867797353 0.42930969324539614 -0.5926145960860504 -1.3159263362800628
P 5.602015885949668 7.344543057731054 5.243206881950436 -0.32187486209948435 0.32739579191771356 1.0589350622278408
Ni 2.346936549740043 2.022421820566275 6.13550935458263 1.0867680252797092 -0.7789977209024067 1.0059523393832224
P 9.13906522352041 7.482359439746123 12.636127890628037 0.42641823063021406 0.7313533795515662 -0.15865300589093967
Ni 7.274231224244509 8.67936536291929 5.812925444502101 0.3184745781686838 0.6581507301156473 -0.4679119789986264
P 2.779239903341597 1.55736680912114 0.911102943380763 -0.11001159073415248 -0.4812369782423067 0.05749192356888164
P 7.937139602945563 0.06583036901725504 8.010941549447576 0.7206269942729976 0.13733084737439574 0.25829379491372934
P 8.144369116661936 2.931685668025694 5.235612388616806 0.4771777205712685 -0.9325344886127036 1.2183755970170822
Ni 6.518052424182399 6.142552582388199 3.4301510764580248 0.4465180867038826 1.2489269874413782 0.2933883246240173
Ni -0.17016408730363436 7.510163605287449 7.117038090542293 0.5594260251492237 1.3150169370919158 -0.1969040789523383
Ni 4.548894898083663 5.3883379553000195 2.44112327632337 -1.2522686502201015 -0.15979791812866026 0.007082617878394253
Ni 6.479936350527946 3.592778113222549 6.748390618236384 -1.5072246390098494 1.7186729343249498 -0.5444069260325721
Ni 3.513460731949877 7.047943673700909 4.404073274627143 0.3254324975437557 0.7301948404670909 -0.874874414897074
Ni 2.8243510269739582 4.6261647216806825 4.2084944567349005 1.2003007417932425 1.233349444718095 -0.6197744443302939
Ni 1.3127068292978175 3.9533520934082604 5.702396242877673 -2.6666556391719234 -0.20278316344093464 -0.4151074336030851
Ni 7.286813049237885 6.214393135406341 6.330111644968021 -2.705766746240772 1.1428445565583027 -1.2583616504917166
Ni 6.430785701345429 3.0573556784897202 9.69888972796425 0.6002782832788952 -0.649732681255281 -0.4212960789123003
Ni 6.984599095291697 6.813428832587268 12.993438749486305 0.23391253785588748 1.3995697214333316 2.1699347063614045
Ni 4.359398530933801 7.318628945428792 9.183086787050252 0.12778382711590894 0.07009907080993089 1.2380123974114032
Ni 5.951546025640458 8.03813700666632 7.571020540095246 0.4258021943127699 0.19241673260494604 0.7282289749899716
Ni 3.3974355519851906 3.300116340107121 2.008294599100959 -0.3087020721629522 0.4816550396163318 -1.1141111931793521
Ni 5.408711617421104 7.3161922591450965 1.3596422249045492 2.311711762432612 -0.6536081050502872 0.4792389739756714
Ni 3.1451968292718964 0.316582991046501 3.509071917149168 -1.8149301515874872 -0.7638089289771105 0.3592905837437812
Ni 1.058791147583197 0.9768425157228082 8.153133775309751 0.733150580661305 -0.837682636338125 -0.18034488904207652
Ni 8.668849625535282 7.324438079648856 4.544150308555602 0.8621351129535346 -0.4572051341040836 -0.7693522273928428
Ni 7.354808641009891 2.304067548087356 0.8128998536644255 -0.7004276365069873 1.2352461475201757 -0.3439246428106722
Ni 8.678012677758 0.9534762693065391 13.177369651044474 1.5177422507117215 0.24290008606647845 -2.165348115431987
Ni 8.739207783856118 1.6040993019536784 9.855103554669558 -0.5285439908583864 0.09303793899429139 1.3328652781272465
Ni 1.2113758867701665 3.1627817363686765 8.331789204738886 0.9720430882302872 1.7257049014710666 0.2152177896598616
Ni 6.124976940258278 6.315473923828821 10.935527473369865 -4.544972225435857 0.46059899027698087 -1.229615688707276
Ni 6.2851404223352185 1.1405266852058482 11.792858402099261 0.34254730284717133 0.07903905361203807 0.797245354258685
Ni 2.291661757464285 8.223593848266026 8.001259659080802 -0.8803848031923418 -1.548160715102579 0.04523830301250919
Ni 0.3899985884305282 8.460776999834819 9.534254972881563 -1.728374992104062 0.6758923703697843 -0.8632507146152165
P 5.943865368115046 3.78454439725266 2.1872900528137875 0.21184038854719647 -0.40127644125726375 -2.107534289747312
Ni 8.405261318420747 4.521405741415514 9.67903768347728 1.5772620033439095 -3.0862416773716523 -1.0052931085326686
P 2.7544468520291714 1.7094605050646272 9.587560959699964 -2.0074440718919297 0.9631804956333347 -2.7807285444596435
Ni 6.213003390377617 3.76801569637771 4.257596001593069 0.14597258220979376 -1.6372905772917157 -0.5080780096945507
P 8.45780294547335 2.8413800360592485 11.87762358388453 0.5512195780790313 -0.34505130021594765 0.16847050620199372
P 1.3591799030583274 8.026704037563356 3.7373310526401835 0.47263123885116676 0.3551567640810658 0.17255933155938669
P 1.0063607001328927 6.097191304650668 8.17133202321254 0.637437923048328 -0.7483596843015756 0.3255147728449168
Ni 8.188785367779934 2.694706345727783 7.833533184557549 0.5202964061376136 -1.7002239835911428 0.5907461754187439
