# total energy = -381172.00587473327 ev
CRYSTAL
PRIMVEC
9.23195006000574 0.00000000000000 0.00000000000000

0.00000000000000 9.23195006000574 0.00000000000000

0.00000000000000 0.00000000000000 13.51189209263104

PRIMCOORD
 96 1
Ni 8.195783543153048 8.75218393195309 8.013795037878756 0.7769251546440942 -0.7876260860013661 0.6663571771858395
Ni 8.757843117244606 4.282673864891947 3.627739951565172 -3.351076358727693 -0.21585773723670568 0.39886397516102917
Ni 6.247343587988637 3.666948966004978 2.372080288361423 0.1665241811089003 -1.056272170683697 1.506796293223179
Ni 3.1450945337479315 5.519385874111505 0.44341886267261615 0.5660502153339607 -0.3641965056858309 -0.9267312516673653
Ni 1.199571874753372 4.026773445486476 13.360545295164314 -0.32664400135335353 0.32988487688815443 0.4804841592366822
Ni 2.583164206955037 3.3837773665813327 1.649964552383919 2.420902399927366 -0.7391317379454045 -0.01597503527201765
Ni 1.6040328320235873 0.5178911561630039 8.36483347063605 0.48549703907024133 -0.9215399372744129 -0.5129073127623941
Ni 7.484157148657145 4.861747922657674 7.389802004657231 -2.582075344026682 -0.49981885500955214 2.2623370686542263
Ni 5.367243339683778 7.305158871956951 4.149528836977896 0.8186880975134933 -1.1184147056507128 -1.0882361251848032
Ni 2.1658154476180074 7.55542780192062 12.787303060153318 1.858877760813031 -0.868284163274066 -0.5353147339233167
Ni 4.033725103764636 5.177942206890056 5.742162057259288 0.9686939692523963 -1.0513328244005506 -0.08065396350764174
Ni 1.846971593763007 8.297981228596916 6.230441734103304 -0.1896088308425057 0.8626950992220627 0.2261472920881718
Ni 5.769248598279371 8.515947565844407 8.3217581155762 -1.167732320938918 0.7802922713441143 -1.1568460130437173
Ni 0.48822059236462567 6.198977402438463 0.4084860874286188 -0.7551517675227446 0.3640741211753536 -0.20994419996574815
Ni 3.5909146265907324 3.703950621222595 10.381902818196231 -0.008618080686314191 1.3527648452646508 -0.7574313075855406
Ni 0.7396130506316831 2.345146074514767 2.1877108632067355 -0.932199216760472 -0.28277326811233233 0.5083754863303116
Ni 9.078865711277091 2.147009965662347 0.02450898060671904 0.006841705512181766 -0.7758920853938895 -0.6174247131511947
Ni 3.281062691942808 3.1137612957717353 12.735039145353426 0.7494647444402964 0.11798149631350649 0.08553751685218818
Ni 0.8742185730206413 3.073389978838941 8.661190140913439 -0.6916619744992153 0.40803612857860055 -0.10982158621053345
Ni 0.5344421959519619 6.181861367315344 11.443167158648903 -0.03509015883491376 -0.8730239919518965 0.8294057410413136
Ni 6.854030407919008 7.129031731677086 9.6014688546714 -0.38561405212965844 -0.7022698319220486 1.0585825639844284
Ni 6.7768974664661155 7.617688072077208 12.166850479720209 1.390664962744534 -0.12078991229657905 -0.36908674389859664
Ni 4.405227999875446 7.4369634207448545 6.200714855410507 -1.1826457477156407 -0.5703236458983338 1.023207012698612
Ni 2.7513795661666647 1.8343145904438072 5.463195611017187 -0.0025299655107053204 -1.1564626615623697 -0.5202395847577492
P 7.776699177233954 2.4890906374272137 8.04414230360514 0.16898344128267026 0.3897990367452835 0.6792764563506689
Ni 6.801103639115964 1.0081012337320698 9.873774449057336 -0.004716431639062844 -0.3968148059414843 -0.8903750816358343
P 5.813081896426388 0.14304721738171994 4.944771771344688 -0.5903229718383962 0.5773090760772316 -0.852478563700377
Ni 7.641100297035261 7.538625653094256 0.8532057318427924 0.27734669778012233 -0.3096464383540925 -0.7033136998055306
P 7.9442498360524505 2.3465031711507427 2.8361593317255327 -0.3838003959596874 -1.5114880422718935 0.3473555228690921
P 5.625110164418928 0.18826069203947438 11.97203602644346 0.3670797407708969 0.30587283024427325 -0.6295577489693028
P 0.9779681492434713 7.504596685745919 8.454350149690967 -0.268272503392996 -0.21675736623283962 -0.32280611566450207
Ni 8.067339424130417 4.419786784874993 1.3537426685751386 2.1647531621604656 0.33159800292451924 -0.37791951169887816
Ni 0.25840043143963554 8.553170787859735 13.051406990244013 -1.912773996610854 0.5633346161750105 0.09237562281994413
Ni 5.344597366567806 2.4663985045617185 11.457894888331703 0.21779737746157973 -0.826075648226816 -0.9170104248351756
Ni 3.3856514524119654 7.929543339854431 8.511018627790342 -1.116114082541994 -0.7565429914433164 -1.6800662776963453
Ni 6.721948900633966 3.1160600512979797 5.022478016886655 0.36360078108336086 0.2917489892483814 -0.27973268151379566
Ni 7.705271580822102 0.8374144815309826 12.023975899801703 0.046390928559713655 0.09169222359967434 0.2868363824381125
Ni 7.7423193957892416 3.7319234294335177 10.261051977970128 1.05223939537522 -1.4571678315627743 -0.3354646849687771
Ni 4.750225967810166 2.830229650301811 6.44415860480971 -0.5261047852892745 0.33245572293912423 0.4191018994744589
Ni 0.20270592405519433 9.19874258078826 1.832239248105254 0.7017831220936172 0.7900154121691491 0.21505092506469417
Ni 5.004067662386912 1.402739396303796 0.3035889798326476 0.5953263385902585 0.6171796870199242 1.8926214329223794
Ni 6.775641921279091 7.767781113626115 6.097160073330664 0.23671735429453425 0.018501915458929426 1.3090105829968357
Ni 9.196813103258199 1.2696885342787714 10.053334028311731 -0.4375817034462013 0.6131474259320795 -0.42292924364034906
Ni 4.784061064210506 2.382627791127423 3.9687801825757907 -1.7277183323566696 -0.16346662522949912 0.05962156831737473
Ni 1.7632193442285202 8.65080789005073 10.472067580134452 2.1749732972265767 -0.6689817592928802 0.3533130260041077
Ni 5.484295232524139 7.5049751956920066 1.4414895828333434 -0.877449631823418 0.6801400899025447 0.49379347475107854
Ni 8.628051133535905 5.775286293516976 9.188262471256563 1.6809252832625308 0.17134577086725974 0.19453017940352305
Ni 4.3550985118934955 9.18239279750722 10.090937606663129 0.5605177155515058 0.7668526008994406 1.2441287947217865
Ni 2.4008055004895708 1.7704018012542952 10.222232551816298 0.33388448496585077 -0.4169138906842046 1.0384940207646696
Ni 3.932339829912373 4.710399335921742 8.123052395414668 -0.21896028742142937 0.14039894477675818 -0.048525458404213205
Ni 4.863289658291741 2.027114632251371 8.929739254883195 -0.30685884830662635 0.7075647617724008 -0.46658477554677064
Ni 4.125490685816311 4.860446217721126 2.6476687641334338 -0.7418522222003612 1.417829696084784 -0.6913498425754352
Ni 8.76041883126799 3.515461900020477 6.196621408822811 0.7901385680105747 0.43190059390102387 -0.04330714742806735
Ni 6.6939114687737105 3.053319719746351 13.262543530952085 -2.0131681188599004 -1.8646514300720145 1.5689763662963494
Ni 7.354217453749969 0.6912145532568433 0.9864569271807465 -0.7393536241482234 0.8943749468238469 0.4800061911589991
Ni 5.75797638744586 4.6330540596210446 9.586525097360834 0.0287107376711312 0.780361691129469 -0.3224104228879802
P 7.20257344461709 5.659286842965739 11.307643057244437 -0.09056453775313436 -0.3560301678249546 -0.8479012287423398
Ni 2.234593474407241 6.182627619157426 6.917656083466486 -0.03085066683226945 -0.6600895990095728 0.46663774027189314
P 2.674440495661769 1.2450484599834073 2.92839205044238 0.5655329093779099 0.37712941169741504 -0.4291014338893319
Ni 8.971664308984932 7.127563851642256 2.5577338777478396 1.5692224208688843 -1.6362140563980854 1.7137114765546164
P 5.472764527093299 4.96010511694123 4.133111660462554 1.6548627818475243 -0.5782421294144622 1.8236978704777882
P 0.9337748050501746 5.177997598589483 4.754402501947004 1.3781724867044782 0.8569000898068404 2.0007152378085284
P 0.9774788558985278 0.9497737742348379 11.903328162473503 0.45743704760923154 0.768434857784896 0.7200384687593793
Ni 6.491307096167466 1.0144712791662402 6.8512719012875145 0.5344035349629571 1.0443697628191562 0.414243542940893
Ni 3.61513926314039 0.5983568315314546 12.356152535708919 -2.644584261194181 -1.0933978718914008 -1.853567661454027
Ni 7.248308524444454 8.738880692140567 3.1343808558836486 0.06334221170207156 -0.5634809119448876 -0.45226218827651143
Ni 1.1494054589718021 3.866876073138889 10.99328870062804 -0.5148816628799455 -0.7164486945255918 -0.3719530097027981
Ni 2.0626207115844437 5.767226801250264 9.472228018372002 -1.0825429314547679 -0.23138488633802728 -0.9091449060441698
Ni 8.638843282974376 8.010433684918493 4.840472894102534 1.5561892418340102 -1.276665076786595 -0.060715058491869624
Ni 6.093871652774649 5.417022013569355 0.21340113801966773 0.6654148678772283 0.616277744030945 1.9306475344571652
Ni 4.101146033917894 0.3617197987969115 6.65710645408906 -0.0416896664293024 1.0910095741648824 0.48362681863072193
Ni 8.903827941085968 8.050297244606535 10.646748997059255 -2.491401277278877 0.6030676730985743 -0.9213830999815745
Ni 1.1774890505815803 4.96954940169363 2.360095370995278 0.9565293088654041 1.2795393130105963 -0.09048123401070868
Ni 8.214958303104892 4.245145988529768 12.612148044198408 2.2833877186769382 2.240254377822574 -2.24042664173438
Ni 3.4271859950327386 8.668533233867553 1.079368194215582 -0.1300934490856921 -0.7580655987354299 0.9379530885251136
Ni 8.095127593343248 0.9536511931947679 4.903816995177923 -0.9855578348872703 0.8583640759468765 -0.4964926188497965
Ni 5.2108541082999364 0.4596883279894841 2.6759489962761798 0.006065232357473425 0.4665078995622482 -1.1078952941766274
Ni 7.22879218234614 5.576568571820567 5.254950517019236 -0.5335501858237263 0.08772835385591989 -1.491472004161283
Ni 5.043968149874571 4.952304119271847 11.890842873422528 -0.8110418938221451 -0.127489950024574 -0.9976954986910688
Ni 3.9542749428856907 6.743699374609191 10.388956027923342 1.1281576439700896 -0.5302324343044029 0.9597773834890567
Ni 2.753438290995389 6.342746558302722 4.137084168506502 -0.8600214090446415 1.0235235154977662 -0.40964795315041064
Ni 3.6540150041886403 8.686766334929128 3.996412331835234 -1.6490006666397923 0.8956378726966705 0.8806642821059737
Ni 2.6144697490815196 3.8604598679551954 4.1966043959314066 -0.3409485909014838 -0.22725543755068606 0.17046799624799674
Ni 0.08648490670624677 1.3244247652631158 6.926763402047369 -0.21796989848370202 0.3349376088207135 -0.9227774092259398
Ni 9.065303976867241 6.219924696771989 6.458940802996946 1.4401604983715002 0.8350500838112844 0.22816740784199413
Ni 1.3300654866548234 0.19556593399898048 4.279121410568659 -0.7408014123383435 -0.23430257420545456 -0.5200313254016851
Ni 2.2099995598613993 1.3305917077993854 0.5786290777803254 -1.1025589695653786 -0.16333472763732515 -0.25192620082448874
Ni 2.2172743363862204 3.6945340323199076 6.728516509796094 -0.7500375862246309 1.1551490849572688 -1.0818379349679432
P 2.8855105663305265 2.2527527198695796 8.046466908591118 1.038785069642527 -0.39727529051767063 -6.916267503859056e-05
Ni 6.785741674474718 6.085184387914423 2.708647639643265 0.8577920054934904 -0.5012908115693884 -0.027197386350398322
P 5.346803802595004 6.3820931287961065 7.907821484923909 0.41927159228310373 -0.4810325755409845 0.4476048920101582
Ni 0.6096456598747935 2.39672497863174 4.542252293139409 0.7604222718930645 0.23546625549625255 0.1452524162143176
P 4.691039936971806 3.5892251797581918 1.0403641290636583 -0.4936798319913498 -0.47016323692664835 -2.909674253094137
P 2.081287714291535 6.9116193114238715 1.7319405747567616 0.08862438330762801 1.037609047056555 0.5924503025940443
P 2.633081360089183 5.384664029153749 11.618821623093654 0.487262101390464 0.16658434492287438 0.7948989655136955
Ni 4.594723003617165 7.279494051222176 12.778007409794382 -0.8938622688534863 0.5922194175301607 -0.15304465856522675
