# total energy = -381169.7906127078 ev
CRYSTAL
PRIMVEC
9.25655727099623 0.00000000000000 0.00000000000000

0.00000000000000 9.25655727099623 0.00000000000000

0.00000000000000 0.00000000000000 13.54790723324704

PRIMCOORD
 96 1
Ni 7.785532877546417 5.8878923740985964 6.772274028711696 1.1031600934844874 -0.47063323458453143 1.3445920796458712
Ni 0.7903220745456153 3.5228790423803242 10.561866881223938 1.6094992661110603 2.3751174803827677 -1.0033146446500592
Ni 7.079488979102562 5.989140596467379 10.487326603269183 -1.2095212319502457 1.0390563210260426 -0.007509421003167713
Ni 6.801218357338954 1.7030584150939918 7.847543479710497 -0.5868049313828086 -0.919944567762835 1.6197327709136105
Ni 5.795650781860077 6.52879787970929 8.33738197224215 1.5231649643891898 0.9613997495838281 -0.39407169597870845
Ni 7.191400755335747 8.448385680216571 10.017701654638309 -0.26154392641991087 -0.7870666139534703 0.6175715231417042
Ni 3.1292809747863397 3.3461158265863697 9.255483413328555 0.039028574657371494 -0.05389623579782331 0.33276862619385267
Ni 2.691140354071256 9.125206627662232 6.655341495867354 -1.6694121404166087 0.19776077052567875 -0.09427772493866343
Ni 5.554526724035575 4.23257002435072 10.144835839144072 -0.3340086692485409 -1.885007110910231 -0.7194280888688901
Ni 2.638415004408376 3.3009993669204856 1.4877638544077085 -1.0558116861075106 0.27522733744427436 0.9187207226580629
Ni 5.386723855586014 3.787042671010816 1.791426138155208 -0.9417174406635525 -0.8214065248859208 0.9392622942548404
Ni 6.3888942745820465 1.4493917222987718 1.5666667477585499 -0.43942029931683674 1.592408886287677 -0.3327899663500914
Ni 6.6082283968190465 8.358560049400456 3.310877964736536 -0.44077012847651187 0.2719916041157961 0.2783864518985464
Ni 2.457856600173098 7.844237963143676 8.700276039690108 0.5755779523187378 0.11837461798686712 0.20971717155660655
Ni 2.0506236238618696 2.122204580488108 5.625240341254612 0.663980963644179 1.4243165893607084 1.1208482547928695
Ni 0.484406744781974 0.11227926155299152 9.122726795995327 -0.03790294569336053 0.3789494956252893 -0.14066196863015776
Ni 4.99441244943921 5.906766494176303 0.6011587747614234 0.4709512800455825 -1.3251452837751696 -0.439192756687063
Ni 6.4573650279978345 2.87280954516741 5.985316712698816 -0.790908870517696 0.8275054386948071 -1.6029532374624262
Ni 7.061235048355511 4.305335820295226 0.49641805337090544 0.8118985853954857 -0.4627486896301321 -0.7745232300708209
Ni 8.238252575810488 3.334832083391312 2.4614240773079428 -1.8063776340317859 -0.30203468744510564 1.1337371949403958
Ni 2.0998314817986445 2.744254479135443 12.482011926473092 -0.2966063173406827 -0.6865128261981079 -0.1764941478374186
Ni 4.111947827816838 2.674487807715301 0.08025064807536998 2.6778443087988917 -1.2775559640319802 -0.926332730677366
Ni 4.784325627818998 5.58013036117875 6.162956524457144 3.1529736314815633 0.27644938277683356 0.3440909931852074
Ni 3.595820712911135 5.5190648535021305 2.3764923882697007 -0.3388554558178809 0.3313552907860939 1.0506214001558227
P 8.254294189392962 2.511359500638591 9.285803266351863 1.9482603624429224 1.0781635714401498 -1.2214701767820062
Ni 6.403862127532341 4.177780462438046 7.959056298329484 -0.35360304644070073 -0.08844774852044766 -0.8332371989722619
P 1.9016393361469714 5.276182049814575 11.836698448336158 -2.486276554457802 0.8625251493031018 -1.7160653214987736
Ni 9.022134863530178 8.2564139409858 11.412350097810275 1.1890033145025523 -0.08755377595126856 -1.071726043344922
P 4.418839724362332 8.312897452861307 11.179502327755012 -0.49781827963975545 0.36787215476520513 -0.9366798782396448
P 6.066025560354296 1.646852599933702 12.662700848164523 -1.1171736341547598 0.12060145043485683 0.44893132413106557
P 0.9746784441893696 0.3819755344063593 12.584082131118922 0.9559060734591085 -0.6884180136406208 1.192286356129198
Ni 4.359125674033111 1.6546095948454813 7.133839780205189 -0.40366293921156937 -0.1870215297313037 0.13682176894846113
Ni 8.051816257769746 2.212409730148355 13.292434614921962 1.1746735281434415 0.543381055871219 0.7334925373817561
Ni 5.4556018975174565 4.743013613151611 3.897800154564408 0.7969977570242532 0.5324991188513926 1.7793681953224774
Ni 4.779030877115492 8.240205709374194 6.896927455894838 0.4378827796263878 -0.3951962965014549 0.5121323822695825
Ni 0.7912134810014677 5.626098424104638 2.10436904612532 -0.4024421794305908 -0.06373790447859345 -0.9230126651651974
Ni 4.211335482193654 2.3249416957121958 11.221785355269947 1.245971761467796 0.1792591121770655 -0.25263068309068104
Ni 4.405917570547483 7.54902784175172 4.709062412748958 0.42197947813257003 -0.1649792052192836 -1.0298787682918327
Ni 2.8120587604347054 6.375546319137196 6.892023331904074 -0.9896615726429987 0.3297707199077934 0.2080968623443642
Ni 2.3617735367073855 0.4610061682462013 0.901161941458056 -0.28531506069757956 0.9633468460078698 -0.08087919214457039
Ni 2.5311037370906493 5.551860835569474 0.36567196025586224 -0.787079983689909 -0.9463120020127703 0.41000996447551963
Ni 8.40047374028415 4.641071148994781 9.093368699262394 0.3311426605546555 0.23550482204367185 -0.7145023694324986
Ni 1.823939795228745 5.603882686887133 9.405661796918894 0.6329701170849615 0.8323740796410181 0.5604506097589961
Ni 4.1583046661440335 1.2939093314477532 2.392560845867979 -0.15334573474541335 0.5609152081002404 0.1148169825425958
Ni 8.827284335018305 6.3545894736953485 4.098214799593549 0.7268904586842063 0.1034125973603961 -0.4317314153130113
Ni 7.495432375714487 8.335751892523817 7.667519178824157 -1.3372621216433613 0.5171295783738578 -1.552499965907881
Ni 7.703177288369687 6.183296883191205 12.921844645839574 1.5926379715793475 0.5843960648309999 0.026287730051935368
Ni 3.210174027929583 0.5176581494622757 12.329177836629544 0.0558405040083877 0.044981964027328986 -0.4997808026827651
Ni 8.116713980116383 0.1095495028423905 1.450046160890971 0.8534869503602333 1.053500778586147 -0.21531112070461625
Ni 0.19961487848931106 8.635756910531885 3.193810286157455 0.6180443490130646 0.45712465857513535 0.2902749758060162
Ni 7.174220585220875 5.487509250096099 2.622007756817531 0.5353497009263103 1.0081663163154058 -0.9303912170174556
Ni 4.280148728224878 6.15907247306695 10.084167437770216 -1.0831900781204635 1.9913340537039448 0.9390828312541828
Ni 8.169115350278176 8.346693143103439 5.239395565949538 1.1457110794728202 0.6230248329467915 0.5816768661276239
Ni 0.8830459334128975 7.104833432644866 13.110024899251892 -0.3727320539606677 0.1618154627793213 0.9579976658808145
Ni 1.0647354889348335 1.6585436316444147 2.4830464692105974 -0.014985160554922577 -0.4051994304607538 1.085246703539176
Ni 6.148362636416676 2.3118066410823457 3.807395063269203 -0.40949831494642375 -0.3860534536599222 -0.7495629605810575
P 0.4858350315539161 3.224123659590741 1.1630373491551442 1.3550513273059823 -0.5651675556186911 0.3343333995778113
Ni 0.7463487996907149 5.184755034607365 5.727472535650986 0.6778839468785164 -0.4007403662481357 0.569264094285568
P 1.0289403823431273 0.6434788285050543 4.752077633936353 -0.8607690858439434 -1.8567036359798477 -0.22026049429009162
Ni 6.485773401964719 7.599559387364372 0.9959592691323053 2.1795223500498397 -0.3517191991544265 0.8472000889102571
P 4.561085238454586 7.596078921866963 2.093124180470393 -0.6270290690101783 0.2038954226685069 0.7005294521921742
P 8.81899971634761 7.41319712178102 8.93346259973794 0.6745823933091092 -1.8282803476421483 1.6093637689744607
P 6.008884832919437 4.663277629655113 12.137475463212533 0.30649786542278185 1.3480450711914784 1.411569316997369
Ni 8.65502906256807 3.2191806580598468 6.72015498354371 -0.3813509059779303 2.5122521525859574 0.6866439524593336
Ni 4.181520111536327 0.7402265127758573 4.9819716365974065 1.4481782264696543 1.6467650924410542 -0.19341894861721526
Ni 5.101122040540629 8.986876637254563 9.247666250795145 -0.5657244565634257 0.6948077192170485 -0.5449913377811324
Ni 2.3332355709400643 7.62014597051926 11.10848416980495 -1.1045688009065557 -0.33028262654720536 -0.8390358079319098
Ni 8.773744408324117 2.2614694831703472 4.588202322695705 -0.20308732494491477 -0.6436926457087881 -0.1843295847214374
Ni 2.844216040057045 8.993106300232638 3.666646334471978 0.09947135332446094 2.02718320219207 -3.340636394341292
Ni 3.7668818894859295 3.402562312233183 3.6338734937975703 -0.34081052266172274 -1.9811555705090462 0.5121681206035245
Ni 8.851730902514735 1.067660561001805 6.9665506506787835 1.3819877466855104 -1.812987940259452 -0.7564031234313424
Ni 7.536392641209264 0.03375125876769563 12.698981924007862 -1.4647387019314968 -0.7334295453543045 -0.13094217023923257
Ni 5.768325425082545 7.167926126342582 12.339677549431967 -0.04650225732659733 0.4918124397653078 -1.6274144558285843
Ni 2.7342851670590878 0.6577607705687584 9.904455082860638 0.33417296274054703 0.5774749122311346 0.007374438087200203
Ni 0.40792906941071044 4.304058415405219 13.04049704700684 -1.5087325910139435 1.4428781544129796 -1.0751926617372838
Ni 6.727425083548139 6.5161626791668334 4.9882448053942 -1.8110773535003002 0.2960422173070966 -0.6709949330681669
Ni 1.2012882203651023 3.940220179125518 8.01483353489262 -0.0022679700985702876 -0.8920465558009862 -1.157733043634361
Ni 3.1940861315612388 5.482121933820854 4.663745085792398 -1.4996686810394624 -0.21854659692277845 -0.037187921904206916
Ni 3.33342508670087 3.875600153494098 6.763616370786891 -0.6034258277689414 -0.3191340661295536 -0.6882874016000275
Ni 0.02217408271022294 5.955187544753291 10.959050939067115 0.8461911880297684 0.1972429503489958 0.05722401461947564
Ni 6.316656102396457 0.34016088868442645 5.832387280316375 0.44488723596867896 0.6231207350947074 -0.3960398754486728
Ni 5.046536122885783 9.207784374211135 0.4523614695014393 -1.149923060671639 0.7342988353331354 -0.6372067808741284
Ni 0.12679261754604457 1.5916187232766783 11.129185534268796 -0.9656307569460403 -1.7267109741380777 0.24547941675788043
Ni 2.1687372934016085 7.648322930556796 1.6906842494638412 0.23671349763979235 -1.1076227572415311 0.7883799334482551
Ni 1.5727631163133204 4.048697772647164 3.6311909435285563 -1.1113061196303893 -0.48242457079250467 0.36384297900115403
Ni 1.75486736559665 7.555155682600882 4.590301709862758 -1.750552813752682 -3.22675092247403 2.7927620785854095
Ni 7.00369628896217 1.5223519059439303 10.505535176886083 -2.5955810918226008 -0.7223462909569495 1.1160528902867555
Ni 0.659524144710398 7.5140658253056705 7.051536953404352 -0.5395351997625676 0.028683998198253825 -0.20046917059577732
P 8.741985160660256 7.4202783880191 1.6461379937198723 -0.18284837219022057 -2.9400765195350784 -0.9583059411498529
Ni 3.505078682934798 7.4838616792470365 13.057282887786098 0.07559840336160528 0.052263071069774514 1.2764449903559887
P 1.9163850317250908 1.7462309977533448 8.161841547650877 -0.06405260750553485 -0.1554015888331775 -1.1128282127018705
Ni 3.8012052034869757 4.93268972620324 12.065237291026945 3.4323671844883856 -1.6141743029892266 0.26543683371641386
P 7.868286498681625 4.301707249883033 4.593268436437013 -0.30738566734437384 0.6124617127189645 0.4162664869081928
P 4.972502178608445 2.1645810992305 9.09162106126795 0.9263409582074821 -0.6227309558554566 1.293962687524778
P 4.275242752922679 5.063077590555651 8.26442641687558 -0.6672125832075994 -0.1451050920031759 -0.17616067575739983
Ni 7.8554198842098195 3.732743706628362 11.42565454743641 -0.452783093776988 0.37186224976120474 -0.46257462594611304
