# total energy = -340869.29914123757 ev
CRYSTAL
PRIMVEC
9.26549845972635 0.00000000000000 0.00000000000000

0.00000000000000 9.26549845972635 0.00000000000000

0.00000000000000 0.00000000000000 13.56099356674748

PRIMCOORD
 96 1
Ni 0.8609537944898912 2.763416292859491 6.955080402816775 0.21175142837781596 -1.812756026754304 -0.040107409543847054
Ni 0.889468365052896 2.9755962005419643 4.31634250619121 -0.2013970817266854 -0.36464156364304945 -0.15961716957642189
Ni 3.500162378421582 5.314726802021725 2.8256637625447487 -0.29374467952217154 0.4986675150139282 1.3640357901927798
Ni 6.239423517598619 0.2804184484728613 8.992186340682855 -0.06443853009004386 0.9682630523625646 0.13936767529876642
Ni 7.1180985038541635 7.158116190372968 9.420008672707233 -2.4455063145189757 2.102505983294786 -1.0273092077924435
Ni 5.278230004800709 1.9504522194984473 4.030923468365675 2.08785506615083 -0.37588602620861716 -2.1401819005790044
Ni 1.2520097032970265 6.506686811795166 12.426792540029075 -0.1595264096348285 2.2881581434823883 -0.0887817348210987
Ni 7.722116328387808 2.8645584706875207 6.603363019513896 -0.5705581305066433 -0.7995009830620812 -0.6460529184108487
Ni 7.525687767563859 7.573868357954639 2.3187131497518525 0.449222115898607 0.3819494587938777 -0.6890101386986649
Ni 6.408833885811122 4.930551452142319 7.232891540109644 -1.2457331630944286 -0.5661240059946895 -0.7643558026195159
Ni 2.133408746009282 8.641791143966277 7.8370881887576225 0.8096203308842701 1.1047418361493102 -0.8916025262850321
Ni 4.524963536033472 4.720002272134611 8.574819196773278 0.2754052577830354 -0.5285100522966575 1.5482463328378495
Ni 0.9238127870531854 4.672284956651435 0.7552427995230742 -1.1011857433669359 -0.07619489929502361 -2.2914316720273376
Ni 7.134498435583334 4.005187620698477 4.563016936944036 -0.2763838196462208 0.3670064643308002 0.21411041552829577
Ni 8.307065757724486 5.9169100579212595 7.61456520548799 2.5483630393759014 0.35905121403946555 3.035604571941075
Ni 0.9514647397382322 7.849869016908592 4.747893274671981 2.1821782996154484 2.092010997300733 -1.7145913080564086
Ni 1.5164006930664318 1.2546689012666716 9.388058455429439 -0.2956912617255811 2.0061729184889905 -0.49768586782694935
Ni 7.66799655368155 8.753736892639624 13.22396171869028 0.05482080449462171 0.9087872655944349 1.427664937007651
Ni 4.100242366240594 8.901725429124536 5.581203455425162 -2.6863616022412833 -0.2675590222657392 0.8110611770958548
Ni 5.153451541186741 8.11181391516585 7.79271664465716 -1.7074914637868333 -1.057903535639533 -1.0928553691243694
Ni 9.004683644590372 4.877098793303009 12.011364664882725 -0.28854796581258046 -2.1327344431620237 -0.5699678052208119
Ni 7.9797898319969605 1.1219962332271372 4.586599482840692 0.025977397900368168 0.6058951152450404 -1.215021592943185
Ni 5.4701555335227505 8.645728980680909 3.843524135490921 4.602469034100745 -0.43173012976143066 0.6668621418467161
Ni 8.871214143709759 8.835653161802103 9.041290701239397 0.6755743249087333 0.04404736802820156 -0.41760885986870017
P 3.3335409251528514 6.891306905585871 11.750085029392787 0.03698660452667824 -0.34657159351521605 0.07454193707263292
P 9.131500517797797 8.892886143887457 3.3082312904006486 -1.15998250179017 0.26551345259062015 0.47913253030479414
P 7.261695194214992 8.00481594250571 7.385614746150264 0.36372985046205747 -0.0663876833966147 -1.0233602504470247
P 2.403701858101558 8.388268583529253 1.3821232407469584 0.7374301818732655 -0.0754168834784185 0.8238776121342327
P 0.9179468001731079 3.5101227889350604 10.238183662229003 -0.6863559889052696 0.16635397407962316 -0.09836937850953381
P 6.6589838049207914 1.5044296694539536 12.278977268359608 0.48434261375082394 -0.5869273158932858 0.3289101716797109
P 4.160356918251245 3.2338163685420893 12.559880302385821 0.6211397001089367 -0.5161173350592596 -0.35030226420224186
P 7.377949399529054 2.154052275892101 2.7287837138666724 -0.6513861576983039 0.5298969053418551 0.3195716678876045
Ni 3.9204917020903767 1.316358587963174 7.2449737496999465 0.3103442357520655 -0.08900670634771124 2.3153532158399415
Ni 9.02876467428761 6.739788214305021 10.427359191099507 1.7094755840963975 -0.42960151345420206 0.2504197914822913
Ni 2.090157400635405 8.88159150164008 12.90788222092972 -0.8710439854073901 -2.22610611134665 -0.5716752748302218
Ni 7.55934932235034 1.9384070719007522 9.840805904032706 0.3168360141239963 0.11231092829129045 1.8923578948483473
Ni 0.6962271355932599 7.104348504596488 2.040576793473847 0.6443770733703225 -0.17916475269104626 -0.19216939248083034
Ni 2.85476483914078 1.3339352379576568 0.7527476008707209 -0.7961531496357708 1.0921418879971125 0.12647436427586606
Ni 8.398720065444792 4.135247418259127 2.456343785852561 0.13569973952887598 0.5393176844351228 -0.37873609406290254
Ni 5.1333546756948945 6.705348357673765 2.1054121167929782 0.14720953994068842 0.4762639505077475 0.11256701016615452
Ni 4.913447342553592 8.464616288302336 11.083860503365754 -0.34675645583251247 1.5022130447278708 0.6731127507421182
Ni 2.768512316843131 1.424524013390475 11.854464572275152 1.136734587005823 1.7507821561546686 -0.930581478651391
Ni 6.490685296486536 0.40531736356280634 1.5740376508712175 1.5379017563787318 0.3198663163098878 0.04588364990599194
Ni 3.0598195787443085 3.339804401903653 10.244788109311799 0.6602600631491661 -1.1690142729751352 -0.08751906605859121
Ni 4.411526042157641 0.44849643805109723 2.236858959426993 -1.8151337829578609 0.42223247468364056 -0.4523004977136146
Ni 1.407614479262942 4.74833616548365 8.03467123065132 -1.1718324591502205 -0.4410560351480468 1.0107381908076398
Ni 1.0976650350797934 6.609506044788722 6.504462165688854 -0.8194136628256081 -0.23185771220938778 0.15932457803666755
Ni 8.37412016785104 3.8410585864326543 8.765568007230007 0.3940781237366116 -0.08090953116187356 0.8594408539508231
Ni 0.0951057057819541 0.27973743435868387 1.313175889347937 0.5609049236875953 -1.3012080562332815 -0.8759244534281431
Ni 6.053641014151401 4.255356070804449 2.4246919176152644 -0.8444083850977327 0.8793990422403049 0.23559198244083943
Ni 3.542144350548625 7.942598122414538 3.54607755451418 -3.88265605108861 -1.5188987329136678 -1.3120583686842242
Ni 7.756695167491345 6.450102414580456 5.665702018922623 -1.299537610509394 1.241263043138217 -2.575652471219474
Ni 6.123706711177378 0.429008315787842 5.9783366044702415 1.2895905265990113 0.6444146114764773 1.2961049306787613
Ni 6.516934452751358 6.673354592554657 12.036913349487254 0.21009178128720593 -0.3286394345168276 -0.7777047131225961
Ni 8.375232027629288 6.531221850901855 0.05638796865388633 0.43844507988776105 0.43257088049517106 0.6643823128476558
Ni 0.6895300335289415 2.4575066058706465 2.039031308382081 1.1472257163451338 0.15538230555946786 0.2667563238587857
P 0.9999140295754223 2.374422883941007 13.509244553692978 0.7199001434093021 0.30259107416920794 -0.544234919231082
P 3.047459404209443 6.4823000206589105 5.053124727196094 0.4044525249924002 -0.3289165994376142 0.616889409473015
P 1.9418723682096275 0.8230171388560431 6.07399638704169 0.06855769446474 -0.7196731150001606 0.0005358178988119804
P 5.4682653718997285 2.698279840850417 5.951255406471363 1.2635496224505596 0.5447398838919586 1.683675078093526
P 3.146822606392275 3.663262942392524 7.246235710548259 0.33033147750726977 -0.38297121519017274 0.5191846611306736
P 5.885713125643229 7.56582590555864 0.3797381028143782 0.4520621564505634 0.6894068599164513 -0.8224066840156611
P 6.8674853098368915 5.233032904814897 9.75432730358015 -0.9345808296187711 -3.202523417385233 0.6280199721685378
P 3.928756526442026 0.7407506338634167 9.57472581395018 -1.7618551261393787 -1.2914486628536725 -1.3217048906350528
Ni 1.9772017126634822 0.6031496473567945 3.0531085784327625 -0.4358685774098364 -0.41645546299054725 0.7548558335488805
Ni 2.1833405155508037 5.469052939242655 10.10003786443104 -0.04809968372070426 1.523025610597848 1.0984691157667212
Ni 2.514118799579813 4.612411307592738 12.562605285392348 -0.15823108786217266 -1.337685325223709 -1.7472880269584812
Ni 5.175114275866289 1.9094338591792197 10.64646413210084 0.5823162994838358 1.4313817237376059 1.5291643765057341
Ni 5.894506083389546 2.7669001201646704 8.165725216163688 -0.3266506862215729 -0.9457864685266033 0.2829370473837063
Ni 6.734738517812141 3.7762093648662947 11.63069445295425 0.299678014287471 -0.15032597408248305 0.37909887671896
Ni 2.017108213204461 4.526529405221173 5.625655609359548 0.9345497192705194 1.0588029075253507 -0.7085086137429089
Ni 3.202304409326888 6.074525446986174 7.371145744235986 1.0255472307960145 1.5011216114359052 -0.43386980181225276
Ni 8.084795722554404 2.154497019803401 0.5711132609461868 -1.3628008893444143 0.7004065534610646 -1.5602662401168612
Ni 2.2758101871084935 8.594842864829724 10.330954462476635 0.37496300017371553 -1.3968662064592396 0.8617733587387417
Ni 4.527752450977246 4.462504812990348 4.810206529394118 0.528844809928257 0.2614667933250723 0.40217118515739125
Ni 4.665178319568794 5.0483344646514725 11.25807873856937 -0.09463125162334025 -0.005944133398576859 -0.4089774094459473
Ni 5.1900780553818855 6.636292599946365 5.88388411630801 0.18673845127324615 0.1605777337174783 -0.8613154452657167
Ni 4.8345979532794505 0.2812847725500801 13.253795696190139 0.7333179594771049 0.28720019353543436 -0.07461958438810375
Ni 0.17972286765576148 5.891698637449467 4.100260897236899 -0.37887544785424426 -2.278974677210907 -0.5680065677293831
Ni 0.21672092832680448 1.6077585048458725 11.626558334579164 -0.36677249394312317 -0.10926879903085698 -0.25045681536781383
Ni 3.0972058637879236 6.1843586620808475 0.5336009651277037 -0.25107336590589013 2.5256396296364567 0.5638249255478677
Ni 7.277492868564278 8.835041638924066 11.04047944101775 -0.16943004190178562 1.6268583262147984 -0.8709527112451646
Ni 5.33821483983723 2.577921019854988 0.9774387107079386 0.4776837136734096 -1.2117262100213648 -1.0050377979887528
Ni 3.3646452024493607 2.3315236274969084 5.24878239857379 -2.1263169696714543 0.25891574476844437 -0.42822700170417866
Ni 9.144481480708851 9.167728615572402 6.249597034569595 -0.4955510808721336 0.24164718749598382 1.709286350903727
Ni 4.293428002711318 6.925459531774414 9.700530894759398 -0.6249819566731623 -1.5663456135417217 -1.4632603176137573
Ni 5.30129182970122 5.228390890240708 0.16179042253223924 0.962435389937194 -0.645651569207372 -0.3315869471809257
Ni 3.434886943940227 3.8697260377151683 1.0941348802838533 -0.9252700937408066 -1.2741343399449412 0.8891435232215783
P 8.463587818007456 1.4234862775974428 8.008376673445552 0.8956805530091477 0.4090761398073406 -0.3238168163172036
P 1.4726212142978865 4.7116725892958975 2.6706751422059463 -0.49636046414730645 -0.08312067988057943 2.2120573465630677
P 3.3680919677619325 2.296574168467289 3.0175781726690074 -0.022684071861077064 0.5698474775928637 -1.3238203943161588
P 1.2596074117817266 6.963892818109212 8.647532973171117 -0.6834966650796035 -1.134267356412253 1.101036105162949
P 6.439345171225899 6.429588601671766 3.748461977550282 0.055893468733510185 -1.4013568952407416 1.9082743089682876
P 0.009078335089401202 8.49006861172608 11.738775562348367 1.4411254333879309 -0.5180019536764822 0.3599102196056511
P 9.065919321877423 4.349456470036904 5.71004576652863 -0.5550389518251214 0.7255113189484924 0.43330955843340857
P 7.57731512326721 4.5939359042775045 0.33687312871344255 -0.6438710802681815 -0.6735266983510853 -0.1542204240408828
