# total energy = -340863.899751102 ev
CRYSTAL
PRIMVEC
9.28010891331653 0.00000000000000 0.00000000000000

0.00000000000000 9.28010891331653 0.00000000000000

0.00000000000000 0.00000000000000 13.58237744242258

PRIMCOORD
 96 1
Ni 2.8097849221777738 0.6656213670684638 0.9422354241482668 -0.07221174627755951 -0.7862153216967686 0.30222546329967304
Ni 8.413383699400736 8.674999244743363 5.739287887088779 -3.029573535255647 -0.556029854983481 -0.32498281160084674
Ni 0.543067323105878 0.6832572857080695 0.3632011836189409 -0.4672257515648792 -0.6933131369493931 -0.5283719840568966
Ni 5.795743428576909 4.7700037300112035 12.781628322010796 -1.5740383542002891 0.9982809388808936 -0.5776137518018439
Ni 8.280538942862137 1.9764589981193224 1.7039634532960217 0.3305770178591726 0.5807348139293289 0.08733317530003025
Ni 2.3546327091709824 5.08974987646859 7.313105239466279 0.4919484511225399 0.5990346406797812 0.7457582421229866
Ni 8.388550128426424 1.3261460984197777 11.873985431182355 0.8450118230096867 0.8707544791914295 0.6721434448503134
Ni 6.48279627875751 1.880131469452143 3.7646682065206933 0.3689581887405323 -0.2189024376003004 0.2226703892831649
Ni 4.903507374269974 6.244798610144939 8.823397463521482 2.080287538216217 -1.131961848207528 1.6312055474399003
Ni 4.48422278152317 3.0720315149143658 0.9123933784897841 -0.4707988136281182 1.4856032040853318 -0.5408593178906298
Ni 3.5702341523418735 7.400812475129706 10.432908898125627 0.35774946450890643 -1.3034132914147163 -0.7473569540686741
Ni 4.260757763189289 1.5199982897809254 2.8346695337501284 -0.29559818779114255 3.0979682217799613 -0.6733369509377823
Ni 7.95760043899998 4.721756444699 13.498750580513883 -0.2539907966630013 -0.6235647646106616 2.3767745563702163
Ni 4.43035175031768 1.980570086288837 9.182732553841507 0.5417252654353508 1.440575217311416 -2.6867099867196376
Ni 0.6248993219293066 1.5457413114112486 7.673798937705079 0.9856128564949219 1.097421134118181 -1.0308820127453666
Ni 1.5774236026318413 5.673097511537849 2.7364553589771647 -1.5495267422121701 -0.3888896375571367 -0.10350798528767981
Ni 9.165471551594786 0.7430425302102439 9.688893812519975 -0.30784100971423756 -0.9064208222447874 0.4375361949202465
Ni 1.731250685019815 1.9611375385981746 11.55144504398492 -0.31613230318875235 -0.9540276254894732 -0.5472662498582381
Ni 8.963926150092494 2.8952732838427115 4.173131264471853 -1.969212024993925 -1.0768484521731518 -3.085546451076841
Ni 3.6783381389935093 4.347573180403302 5.704380758082845 -0.5099572289951346 -1.1106204064172742 -0.8952221253154904
Ni 2.5920457309332616 4.6734905991693285 12.480045204369151 -1.0957910547139258 -0.02040967400460356 0.9365405244483032
Ni 5.342187394272503 5.338289748603889 6.658027003931416 1.597535665991281 0.6770269981948598 0.5889998821515985
Ni 2.545914310412592 8.588796314705846 6.191228254462457 -1.7603417748186456 1.404996805986174 -1.9616894913646348
Ni 5.934982180033784 6.113299469372884 3.6034727177972914 0.33318025980997457 -0.21613104550275034 -2.3191756749098253
P 6.1444342341781235 5.119715347573246 1.3674871268115458 0.17208984812213587 -0.3471223238123634 0.46157703791953414
P 0.5628042583630416 5.506445318878387 12.994056507026386 0.33558398415546076 1.6688033031880163 0.13221255231122392
P 4.182591407316104 5.476099363315605 11.403641680176703 0.5815020311126566 0.9941201226349846 -1.3109774769152196
P 6.627343252410689 8.43823583059252 4.2788159267763275 -0.464160225265678 -1.1143371931472292 0.2550701457701091
P 3.94017640694577 0.9268183795071505 10.757990179094648 -1.8617913349154 -2.3893493077114334 2.8721235485338727
P 1.4578772419102028 2.7858793620769395 9.536485658757552 -1.9293671250828448 -1.5679967759918996 -0.7129504515643463
P 9.123070734785506 8.631280652493741 11.429787458526116 1.9986526988525448 0.16874201469582553 -0.18779414623127014
P 7.307779385063379 3.6643251748039676 11.037623983556752 0.6071292447624577 -0.16008073947640172 0.9681805199510874
Ni 0.24887395604975157 6.609711045814576 6.6263530648086855 0.7102345952950799 -0.4832861474618515 -0.01812910550054297
Ni 4.817499326515889 3.9014041126517935 3.7378969488425544 0.6708650923585221 -0.3593759443687359 -0.6816192455512325
Ni 7.066218154696648 8.693967786997286 1.7048329994844722 2.098337453739393 2.0920482782965713 0.181017746739385
Ni 7.877921425403024 5.832947384494704 11.566576261277005 -1.1949885855517097 -0.649174751869282 -0.9697504355413686
Ni 0.5157002824469654 4.241696419848018 11.116197736203393 -1.2571336916218867 -1.0915644182270878 -0.6024084422480206
Ni 5.686980554205102 7.204018489299629 1.0374530518107645 -1.1612497985383679 -1.4666801419285838 -1.3053493320951648
Ni 4.111180970601851 2.951037457230099 11.845055620212502 1.138784527556316 -0.6282241177595438 -1.0848839208831187
Ni 4.224398297166359 0.38210383710084633 7.289213599528547 -0.523752225896698 1.7763319795993149 0.7472111725194293
Ni 8.37823064751333 0.2076600651476503 3.708478076142379 0.16731813776510537 1.3451646643198898 -2.1532983833563044
Ni 2.4824754871015284 4.5662311024125595 9.782272122631237 2.5395259007002458 1.3750776498292383 0.43406109188745245
Ni 8.026421725377224 7.8072812377137595 9.684425440164173 -0.86757659568408 -0.022497409771567705 0.2356215501271942
Ni 8.376068382178124 2.89306461796383 9.206460863865505 -0.9475882976220323 -0.9515344267539741 0.6414323889197018
Ni 3.583031422287157 7.2636431879206915 7.502810150233846 -0.8789347010093767 -0.32973652423574823 0.2913306707640402
Ni 0.9152850603715464 7.989106408154612 4.335032969469973 0.3260418489929804 -0.7482313862538275 0.7023914451015775
Ni 6.4300759810351344 2.473742904782086 12.760670124444133 0.6597450711859606 3.189996745673132 4.581315797061897
Ni 5.114175122658572 2.349807052628889 5.788754578688734 -1.7691254345485468 1.9578372074980797 -0.41879208154352393
Ni 7.17445206287057 6.429779017555622 5.4855827064316935 1.0687582189658498 0.9322506388236976 0.4043571370651165
Ni 4.970602560422547 8.745806474389854 2.8787983068058285 0.6016846767081185 -2.4762695638437613 -1.910566190326258
Ni 6.185786398700373 1.6034821479591477 10.957827112578864 -1.0593230416948787 -1.9045305256551393 -4.420368852930459
Ni 1.183622188470785 1.3417366810942344 2.8157084155831935 0.5787131555136098 0.4746261577940084 -0.4165765619494439
Ni 7.995982968727096 4.7797849646176775 7.04341321549176 -1.0225562664884906 -0.718342054893563 -0.35482843420736954
Ni 6.663990401804396 1.0445875994060756 6.667480650699553 1.8671114615767328 -0.5615273877629425 -1.1351595292092191
Ni 6.270550911883997 3.0054374546334715 7.76879384275794 0.2417544024978094 1.1687548486661612 0.511605306121519
Ni 7.903441724423712 4.662113185860468 2.711286776077525 0.42441148461283035 -0.23575010528525853 0.030267283524973675
P 3.0261784976557404 0.2818842308302934 3.9714596534907667 -3.361681902157682 -1.1210824822908627 -0.504677211543118
P 4.287085431669904 3.97131117175101 8.142295947072505 -0.15574354555362854 1.1652200960400256 -0.30255327895273704
P 0.4890877146281918 8.716472050679165 7.1089623355291165 3.1884821088008186 0.5787265252500484 2.5515620059291733
P 6.244427405795547 2.4764062959889723 1.7209005797478976 0.43224435039368786 -0.5924585301241603 0.6307301720108492
P 2.670212086806446 2.2593816731170393 6.628295391566878 0.6920885205136726 -0.7342142460391291 1.9457712774724811
P 0.6602658163176132 8.543685706146004 2.332814245524604 -1.0265252784385674 -0.43865796722951544 -2.519657701021409
P 2.8274635293175594 2.4782530376271965 13.347347462527436 -2.443346844973811 -0.5206782149570646 1.506103638031529
P 3.6963879504826864 7.510939525485528 0.26976533683352366 -0.4602475204748332 1.515713650317467 -0.016236002242888167
Ni 4.561906571742144 7.378066928620722 4.964481400701076 -0.3118133640984243 -1.1216051875635522 1.3661960310688923
Ni 2.733947873597023 3.5812496414100767 2.6262475716753513 -0.07322090426836421 -0.39628438735931104 -1.140289651346933
Ni 7.862544285229467 7.633121437087848 12.799638229032414 0.23700788895175956 1.1993890286122506 1.898857900750394
Ni 5.120132952466311 0.5842663658340036 0.41792969687152515 -2.1174299515944695 -0.021083045922544334 1.3517284335803366
Ni 6.897004652026381 3.9838578787604537 5.088528614159091 -0.30772633851324427 0.034289517310489334 -0.2555123755138503
Ni 0.9549139087017446 1.219053643620235 5.171272847671149 -1.8722945484395692 -3.476474202109929 2.0804960546825977
Ni 1.5184021110785404 7.489131269958757 0.3124844613724088 -0.15527071968226808 -0.5453734037108995 -0.019905223564359267
Ni 0.8910992409869218 3.937188211933166 5.584503097479375 0.47285749592935983 2.917702265604936 2.4755226583754077
Ni 5.314449149264199 8.899447954603133 9.670624990464656 0.5262361686608162 -0.34121804251278653 -0.9939666277762559
Ni 5.89969920662409 8.217851808358592 6.916282221901173 0.731934705976333 -2.1322243362948243 0.3105864336698586
Ni 2.4256905017533135 2.6108565113386923 4.670015198448146 3.097966679118065 0.6892639065806839 -3.0028518029900866
Ni 2.208749399859994 9.336160591553885 9.328662263696168 0.8940085646233636 0.0342766617946829 -0.17246805739716103
Ni 5.78819870017552 8.258053239397727 12.060743907426623 -1.2891809498654183 -0.014101986619020873 -0.17920769011383975
Ni 8.685495047722418 6.829742423916583 1.4066863061073227 0.20836837083819598 -0.13774350943178212 0.28649493993829367
Ni 5.325956484095345 4.074802944361451 10.181377118934229 0.13507830389479317 0.6839147264536286 -0.7113288568005233
Ni 4.762923007046554 0.29677230927352616 4.945248375348212 2.1627554150041464 1.5627452977849732 2.7201548966416444
Ni 0.5232051063807948 6.5811375910201395 10.687239558111438 1.8803971229420453 0.7425711026442566 0.09314566821674926
Ni 7.55037998760841 5.056786930242596 9.362156032141794 -0.666914078130574 0.9866942624845587 -0.21272896179973683
Ni 2.3194146965224327 8.593464209399448 11.772851734201424 -1.027427735648179 1.5232978904226282 1.0583593922300287
Ni 0.5811074168206791 3.3441057428011067 13.343612218761683 0.8423468745830137 -1.6049761814297263 1.7126467827355278
Ni 3.692555265575216 5.551203283306307 1.5404720656716318 1.292179627482426 0.17466532215879596 -1.452254453421557
Ni 2.4353325347287664 6.256732829977886 5.040230288248847 -3.0909784207256896 0.49837749457733527 3.2230279650964877
Ni 0.44801952143322676 4.550445637454671 8.449189142932198 1.1077268869195633 0.7731338059224621 0.5092134088505746
Ni 2.7609808303414827 7.6608968025310915 2.56409497143493 0.6099170919202399 1.4943801789470135 -0.07412259014702718
P 8.412038083634192 2.598653168352436 6.154663698036488 -0.8454807922263051 -0.15349717272161306 1.8150167977640226
P 3.689613471106286 5.855117564262132 3.648634366955175 2.2348491476466026 -1.8097167257073477 -1.7782042569213632
P 1.5935617117216512 6.55661954374281 8.828694549587302 0.957172598876358 0.11447733981498993 -0.9343435167969845
P 0.06932798031416489 5.708510406469829 4.3375460229153555 -0.5114592674619579 0.1994877805191145 0.8808951671698572
P 0.626155848651998 3.556648073154133 2.2824232550946637 -0.3616009770445127 0.17269328603408968 -1.3410352155325485
P 6.9373081642616 0.5175757924222676 13.26943909367708 3.0377460437641104 -2.2430663933500723 -0.47387025346459033
P 6.916520720695657 1.0186404153835869 8.762969107483984 0.2585244228672967 -0.2132673508017101 1.3144086140839557
P 7.1593997265027305 6.754063137184324 8.040183198620054 -1.0325892252444604 -0.647089072984847 -1.3906935019896243
