# total energy = -340887.2947666803 ev
CRYSTAL
PRIMVEC
9.08826634708428 0.00000000000000 0.00000000000000

0.00000000000000 9.08826634708428 0.00000000000000

0.00000000000000 0.00000000000000 13.30159645500197

PRIMCOORD
 96 1
Ni 6.607569354004447 1.8753000962986277 10.97224732954915 0.11430944677855796 0.813135286016064 1.4522233430733054
Ni 4.974935051414691 0.5616439403863452 5.583291770838683 -0.4098402716668748 -0.31134619465401864 1.2018500885582333
Ni 2.873091745506646 2.002590351595675 4.3583207333927465 0.004624900366521067 -1.59547029882182 0.9852999532401934
Ni 3.376181804925704 4.241621034607027 4.785900933741727 0.839976060357992 1.3650724589874104 -0.10273742567024241
Ni 3.8951036239283314 2.5596738000422756 2.2814901535041603 0.7098569002406871 0.45306488668346484 0.2012852387391695
Ni 5.558356295081256 4.694498423705068 2.935369997930503 -0.7679373493231871 -0.5781541976863462 -0.9772300317478653
Ni 5.0915193292206675 4.872255820774534 11.383971231996034 1.280064589386447 -1.895236759058039 -0.563225858511288
Ni 5.61686655237116 7.912617104246491 12.257407227037621 0.1332278809496157 1.1585010321486369 1.085050785478286
Ni 1.9339285010481102 6.47100906726352 0.22804549999929272 0.5814925180309599 -0.11072070098603512 0.5061393979109412
Ni 2.847399217181303 1.6828197081124103 0.11345337012713742 0.5483494556200879 -0.8248723719473343 0.21285083208958183
Ni 8.364322107014864 9.168515511303724 6.315305256764367 -2.2100989372851165 -0.4744312681743829 2.008242142313193
Ni 8.986395746495962 2.470490644592474 1.1940763855926746 -1.3550379575695437 0.6100901271629945 -1.1943062147727044
Ni 7.135097761024088 0.5781373257435551 4.1886191754133355 0.23216907280221952 0.3195798954177206 1.4318247248122953
Ni 1.1357060876010416 7.394813141976802 2.4919344085060384 -0.8680123976699181 1.547533108820909 -0.6451815715494889
Ni 7.887388077493341 4.025947391278866 3.9556814617608653 -1.3534256187771014 0.31119681356034795 -1.5819766352107594
Ni 7.4258404825154365 3.9308295980517562 12.517427064905402 2.402927303506184 0.3751784586186313 -0.450921615088217
Ni 8.657836749673255 7.289180224847173 9.367942061286566 -0.6132181312690148 -0.10988792067209462 0.2696431584882775
Ni 6.929802917606624 0.9580486614589113 0.06501836465947482 0.3088982473341584 0.22853456137342576 -0.44883850730694314
Ni 2.0435784318034202 6.607051322835524 9.523131475923247 -0.24541616762011284 -0.24984206460195038 -1.1048256541123682
Ni 0.05409972174116322 4.878526724398335 1.2491421900225481 0.2569961591482284 0.16238110547480422 0.7699194127502224
Ni 6.450878557804504 2.0707069061759524 7.045216626736158 -0.07652271494808757 -0.20223089048189044 -0.4343089462322004
Ni 3.8939312375986637 4.620592643605425 1.0072061840832294 -0.2723057929221052 0.15175422188857737 -0.700651065371703
Ni 6.043996883547129 5.808465378743597 4.9397207466739035 0.20727693754623008 0.2761333941983115 0.57277519276262
Ni 5.4967469390439385 3.0987170402377955 9.113947743857308 -1.074097371790576 -0.3029201753738525 0.12303448535638166
P 0.18207795878360414 5.496510644124781 12.477708615474825 1.0746912966208328 0.5943657744492021 -0.725464524870957
P 3.9724084155573958 6.226125736621014 12.588164675435108 -0.49930129194318523 0.9917053425459049 0.6710175587759862
P 2.409799203433422 8.55480307665436 1.0740449284468307 1.168940482314406 0.5136251647650251 1.588286379478871
P 6.503890414090931 7.876972924518158 5.838310335859831 -0.48888626725744844 0.6722681433536358 0.6180880577668065
P 4.765159692799351 1.2055403244782732 12.300770980009512 0.4671846139142986 -0.20940966761851673 1.3947640725145722
P 4.142231756302835 6.17049645969161 7.874358230355017 -0.25163875149105697 0.9909728352552546 -0.5662073097371152
P 5.03592640535575 1.145121531302865 3.566317420452587 0.03905711390246176 0.6826474297054307 0.06307944495898814
P 0.02621419480071416 5.736140956949088 3.41571667138063 1.2521012714043016 -0.5040945995667706 0.5672969432568682
Ni 0.4863149378120839 0.15943181726217173 4.560066608889784 2.309196709320242 -0.0998441632828474 -2.1890048356189786
Ni 1.8228971538423395 6.580086437253177 4.614164512977723 -0.11311105559508261 0.6465517124241381 1.5966949152575403
Ni 5.825451348124589 5.601561912222636 9.005446569939748 1.7498365044119475 0.1910933858078322 0.3395637947388152
Ni 8.643631789725427 2.3566873762196607 9.704951327949003 0.731902824297133 0.3445846449921743 1.1481109471635647
Ni 2.277637637495277 5.544614836705622 6.802622630329646 0.30400415246665063 -0.6452548479895855 0.9404408879439738
Ni 0.6914643689716043 0.2917224365792413 8.767401250727023 0.4638146690008012 -0.6217130561139035 0.6777237671515682
Ni 1.797095566323539 1.1037063025874114 11.108961207987528 -0.5790669393086028 0.737295456067614 -0.25125282890654793
Ni 4.144022144728761 7.157827514593838 1.6347000654791624 0.03809937797488277 -0.40953919548668827 -0.24034235264163123
Ni 5.481251445306865 8.088684083817366 8.26691497955176 0.18491785312473963 -0.07656385259866814 -1.0579253900164038
Ni 5.62074724200502 3.0604281750681217 4.7990561989525276 -0.6015617779770092 -0.8883778487001474 -0.3305680189981081
Ni 0.767202343521331 7.588102385847828 7.082262217100418 0.8490643958125055 -0.6289990482523554 -0.42968018921093737
Ni 5.013860095212866 4.361431646886119 6.970554702895212 0.6450473599644697 1.0289727115377958 -0.451663378350248
Ni 0.8580095721270361 7.55899266946082 11.3812447521596 0.6161587019545776 -0.4349537789050509 0.32576159874840027
Ni 4.833957867338738 0.4339974250573373 10.34652656887351 -0.46964258853648794 -0.8457605282502533 -1.3077116616797544
Ni 8.109459860171004 7.33750253581493 4.475641160754562 0.8924928993097855 -0.12953037749337049 0.5561041598648422
Ni 7.589011212459974 6.592019330670643 7.266848537333543 -0.9872053977930225 -0.1928041978513518 -0.32674941658296625
Ni 2.3852790614377466 5.431911248533505 2.6937993402892664 0.3376853467691797 -1.0580230919365328 -1.0497035163272437
Ni 2.438490859578844 5.132080260920705 11.525766360022915 -0.5278050558098331 0.8022762318143731 -0.5080420142502927
Ni 1.117611349753232 3.5870659320078606 3.704215499966592 0.26816014618484785 0.10340591249217676 -0.15285825358603353
Ni 1.4990458788705436 1.2641505526955128 2.1351454394568785 1.5437826406395414 -0.9155610939831587 1.484837529563901
Ni 1.0798223392202375 3.5712705254887784 8.242640220741364 -0.173163797912605 -0.2789178989219842 -2.5168806524969045
Ni 3.7437021986110737 2.50033651053532 6.935784814367763 0.8032619927664102 1.0759259403588823 -2.9108492472388448
Ni 4.219245723416014 7.261470101442868 5.71816981952053 -0.48159333314046093 -0.03973434247514447 0.9813569094320453
Ni 0.7308792703137265 -0.0032899523359653745 -0.020340448406420176 0.2559785165169914 2.9981564543969457 -0.9952300678697119
P 0.39593576654069923 5.604742805365145 8.21031689345381 -0.49763521709467196 1.5308440782010022 -0.7510973949477129
P 8.664625684465978 1.7313874022654463 7.623676585927025 -0.3693022023435124 0.11952698642375546 1.034248101004122
P 1.9634835424750696 3.4965468014382055 10.072234517888601 -0.136149682582101 -1.626242032787038 2.5460837564234216
P 4.095790716422219 6.264669073242088 3.8195001557172024 -0.3419430936042692 -0.6104133148303681 -1.2444825785167795
P 7.0350177744946665 3.941217486228575 10.346766499099118 -0.7640876365597937 0.594203537839725 -0.3773566972168727
P 6.597790379657765 7.748946519665273 10.144675269489465 -0.4651148758694635 0.22483320126243858 -0.7405049641438473
P 2.415370310565872 8.622783307242818 5.483423540909891 0.15437237623771477 -0.48878496579289366 0.1367073548577839
P 7.032091352803558 4.08383964647251 1.4235232962278952 -0.5357741900582386 -0.22173527906340523 0.07485432610672915
Ni 5.4612390833074285 3.084884699200947 -0.16539826397090454 -1.2144947739054373 -0.5375695913957645 1.4278055763505733
Ni 1.7591247904681158 1.175549046277484 6.657741127127918 -1.0507730952423386 0.03915841536701643 -0.1908272766306391
Ni 7.219909460469472 0.5754671931570726 9.072008122186647 -0.5421055315929051 -0.646103569143126 -0.9716350541585912
Ni 2.7487642649651916 1.7465648066882697 8.739773830544424 -0.6858381687285866 -0.8856046568303846 3.093399371462356
Ni 6.751027634731555 2.0275012890345727 2.3929568286571485 -0.008494667734572466 1.7077876548710136 -0.5075475911123775
Ni 4.434646718760532 6.8173719774181505 10.449374841263527 -1.224439286712659 1.9810918071506463 -0.5590599000590566
Ni 8.66087223055782 7.328059827314742 0.2830549571792132 -1.3402582281572077 -1.6008230784933013 1.2116655319867584
Ni 7.6111411404657074 4.011787872661645 8.122992288425845 0.6621066294396016 0.49221661718226195 -0.5219573387798043
Ni 3.1558004397466317 8.396394598157466 12.291885382222569 0.5690607200255102 0.055375134336194946 0.24543545089382246
Ni -0.04723353668640675 4.7657504300972455 10.37918252670111 0.7309998528668894 0.5079929061799122 -0.07010626989878249
Ni 8.429603122565247 2.479351704060889 5.644612120013339 0.847833608729198 0.18651990750453684 -0.35279983381311497
Ni 3.6392053147466266 2.903810084997151 11.376496133111138 0.2607630823898283 -0.3504681003561448 -0.6197140234060037
Ni 1.3259871153858676 3.3136817988084837 12.464885980804068 -1.287166490538551 0.043250840268835196 0.020936750152667168
Ni 3.0930459621780106 8.082295032733986 7.7782543602537295 -0.7976760140382004 1.1533189737270655 0.04155802594744456
Ni 5.7618516618066735 7.8164541604154145 3.739450707719459 -1.2541491550722659 0.6818269906866645 -1.2876210615774664
Ni 3.3127002660673672 8.826714910742064 3.372327471263597 -0.44970059819692226 -0.5045157462645893 0.1945702886128391
Ni 3.4892307472104376 4.722272164972222 9.303442636622627 1.0886048213781316 -0.8197738743785042 -0.4897689269727178
Ni 7.479034104124291 6.562400671380833 11.685199086111702 0.06628329660826648 -1.589939855921894 -0.6639560239435146
Ni 8.301358599325448 0.02518540307576587 2.003991762231603 0.41269111085210863 -0.19846602412281947 0.5810063224231607
Ni 5.031945744794554 0.47635147166313685 1.5491304046392493 -0.5723972405979111 -0.9060480122864009 -1.2909588677014476
Ni 5.781482316629009 5.69583449670045 0.2507907036214489 2.276519787912511 0.6780454121570452 0.8783572312393517
Ni 8.071961674153897 9.024357434085264 11.318234894312964 0.27949614002295736 -0.5998864471571153 0.07123292730405796
Ni -0.06735677553252424 5.026947198427756 6.014023781878582 0.9110225826828569 -0.26299891369888256 -0.28225081994995904
Ni 7.271094575265486 6.450169673047031 2.3900703953369757 0.03070797060681808 -0.6767930278071829 -0.7239244340773467
P 8.820025946876676 1.839501416046231 3.4125112399195943 -0.48986482912063384 0.3343943347227338 -0.3365900568224719
P 2.1466302813545566 3.4854227637055493 1.3753454886914696 -1.8161763652897622 -0.46480480082821235 0.0523286342003873
P 4.764441719775756 1.2215902024487564 8.202230154258944 1.6008852991898042 -1.840538853294527 0.2865021390271453
P 8.79670545600903 1.8446635512032155 11.94355668010587 -0.2652666266871367 -0.4040087525867623 1.2609918890257124
P 6.6684970900826555 8.035381403015053 1.0169260847001216 -1.0034730246047943 -0.32152030697354306 -0.270857747621669
P 1.8950943399111488 3.3153449515087092 6.06458362396544 -0.6634040080947864 0.6670056094031157 -1.072827761049533
P 6.991639480296978 4.281109550904733 5.962414245054697 0.1940889781010464 -1.1690644094867804 1.3590887306001498
P 2.8193710044627474 8.549568235368405 10.084072893338403 -1.5064111419696185 0.2169039191130329 -0.7498563234517601
