# total energy = -340866.27513756347 ev
CRYSTAL
PRIMVEC
9.32078293517124 0.00000000000000 0.00000000000000

0.00000000000000 9.32078293517124 0.00000000000000

0.00000000000000 0.00000000000000 13.64190798479788

PRIMCOORD
 96 1
Ni 8.008398011130986 6.603485728025389 8.96945927376045 -0.55026929835062 -0.1006869708991169 -1.332462643372189
Ni 6.946602387498239 9.232757409018486 5.060424529347621 -0.09531825038803583 1.3179816761471947 1.3212423491763374
Ni 6.613468286492612 8.978877924863278 11.793566075582591 -0.9833472003891969 -0.9620569235518529 0.3792302600905017
Ni 6.093927848618641 5.579141010014776 1.2796167271284768 -0.6373649037185475 -0.8142128353509591 0.2744251532579532
Ni 1.3372433993782011 1.8454777276156262 13.095809003158488 0.6574773581977064 -1.7690153913332436 -0.4429856480705919
Ni 7.579772489493518 9.061338891025299 0.8453344223595819 -1.1391161998641222 1.9749299013143085 -0.4556041081655508
Ni 3.135986721620664 8.593183929182889 6.646201011819592 -0.4461018251020704 -0.4058463200161333 -1.7900822393058717
Ni 1.299652682012831 1.5829205945967542 2.3404196873842307 0.413125884396682 -1.2845002565602974 -0.3619743012235314
Ni 1.2866688314574228 4.172411174247078 12.122486250647013 0.5664057989011664 0.47870778406254977 0.1933688121055702
Ni 9.056706461932666 5.453534139889378 4.554855945014608 2.4618299913796635 -0.8495863297542465 -1.1070509438984613
Ni 5.272925329973986 7.601937311188249 6.949160942399503 1.528090426715265 0.4742322647896995 -1.2073347658218885
Ni 6.766068143845908 6.636248279857592 3.8865791142921626 0.8563105358519574 -1.123439926779446 -0.11540499383558189
Ni 3.702289527216447 4.944628715284408 1.3722261616930302 -0.4268578892707939 1.8297972985073068 1.5359027236708322
Ni 2.06466525788194 3.9960433205432517 8.043842152198502 -0.5851571113667405 0.11361833424880431 -0.35117541083581455
Ni 3.235336946365886 3.547806871720874 5.924790126196816 -1.0510471748393317 -0.33298819840382654 0.9933660180777797
Ni 2.699466496881666 4.915147079026866 10.40889853289792 -0.8273776548676912 -2.173050883392883 -1.25432553274913
Ni 8.574495759503353 3.095692977219351 11.903055447947464 0.25831076419459387 0.513577085135909 -1.1203422616907286
Ni 0.6377577913300749 3.1293316826425155 4.563190589068195 0.597766572600635 0.31109268388231587 1.1757335939768396
Ni 8.823603002822688 5.285843935049216 7.034640910137186 0.6471746907201177 0.43050782731855536 -2.528072150337349
Ni 0.011037671089529206 0.7880777851902956 9.00660632186061 0.7384632511234701 -2.1297103116237195 0.2816137005865924
Ni 3.8380374091180713 6.127995310054403 5.69853837458381 -3.7775069306530815 1.7401483305899064 -2.8386840379285045
Ni 6.115980820918781 3.193449348091655 2.5787437169867315 0.6002286609878824 1.0140202039930215 -0.3403199561785494
Ni 2.087855365693753 1.1744559263342662 7.714553806210221 -0.26114026322358896 0.5310844978920531 -0.3579268706270352
Ni 6.636332166903536 4.400267032594175 12.522698297745281 -0.016464316203610354 0.538220337605886 -0.46689639324991844
P 6.884302274711199 3.8831033943552553 10.388899861145095 -0.03589157169028657 0.11553509165554297 -0.3104627636078008
P 2.6348734715055158 2.54169360502855 11.386013911964309 -0.16606523919461078 0.9988517237826992 1.1062783273984946
P 5.395232642958955 0.586849539382101 0.23482221147352228 0.35837552812867957 0.30379949265501227 0.6332714503754642
P 7.912170248651423 5.172232912493675 2.678151730585825 0.1579642073540312 -1.8476641514853986 0.04666166572259706
P 1.7263115184620785 5.414508021960092 6.037007691711414 -0.20334032149598527 -0.8559477531959 -0.016828898631880695
P 4.6264544708052915 0.6248466428811509 5.195615960511157 -0.7647797775308119 -1.00078493624967 0.6065949695255425
P 0.36242466121407607 6.030369430142454 10.012983366708513 1.2047472076003705 -1.4302067295928982 0.7590816987047702
P 7.730387020092827 0.5704869050317646 10.242371561761502 -1.1224397676497058 -0.061075270044765775 0.17731484396650107
Ni 6.714309836499044 1.9281064678695328 12.60514994312442 -0.28226444679671386 -0.3919217395152411 1.0165460557386687
Ni 1.1448624406821337 6.836076544076827 7.970734591659132 -0.10824267175918778 0.36794697386719855 0.09179583905707417
Ni 4.157777545121457 7.983036160907537 12.173343238289133 0.15989022073215045 0.8282623714654896 -0.6319874414567179
Ni 5.431108336273934 5.267146444586797 6.593734324973654 2.066764306918802 -1.3707545969738522 0.7636641758691299
Ni 4.407649092637163 1.436015735584704 12.038861118702961 -0.9496536647914936 -0.7026179592900867 0.5200457235793883
Ni 2.1061613832751034 7.052775425313497 10.788089418361146 -0.2626083631286832 1.8170184015750834 0.10808557735603322
Ni 7.106994419341356 4.4716642294745945 4.9059987306276325 -1.087741959157204 -1.4782133393791639 0.4387551549290122
Ni 0.564721068740612 8.791642038318386 0.6820492195097184 0.6464617238134931 0.02893725185964049 0.6494079509260107
Ni 8.646228504567546 7.474429001354809 5.400763595521467 -0.5337874986455129 0.6457811528067007 0.006247266461292467
Ni 3.37253887039719 2.164285785330756 9.44668056111273 -0.7984406601183668 0.17356771821924302 0.6114450985289921
Ni 4.493036784624308 4.216144287532057 4.260817867809886 1.3598901434555224 0.24394215417774764 -1.6207334442639827
Ni 3.3991776678755503 0.10069707787175204 1.2094899529549497 -0.17893232496526604 1.7586273632307001 0.3783514570299742
Ni 1.8018844260738864 0.13716370882148526 10.888029648662835 0.3400188799983628 1.021663322360576 -0.23401486776170666
Ni 8.675849952568326 5.585031744796554 12.048628367085596 -1.2727035210356856 0.14412704436062276 -1.3908799069688176
Ni 6.50392112527387 6.425971418027008 10.733616899038882 -0.9625032670606519 -1.308277047264921 2.062863429202499
Ni 4.0129046167778055 2.399691477812727 1.9785272428727487 1.6727651160492414 -1.3106432335042524 1.23680192204307
Ni 8.572901905630435 4.149006688428967 8.830666292091093 0.20384451482591345 -0.3284095778942086 3.172464136106007
Ni 8.237847723351 2.1170946615963477 3.1518674714959722 -0.47133874529198827 -0.35870822887775 -1.2980749099209385
Ni 5.277184927751315 7.900295571259039 0.9528459245967746 0.9763319454136283 -0.7233605911540768 -0.11442180398670616
Ni 2.403829905412584 5.195693323009081 3.4800643538087064 0.8695568593389024 -0.6083759726853651 0.6999332133690719
Ni 3.477071450425116 6.609478991418876 7.96960304861719 -0.0890056779064467 -0.6942415623009334 2.0081981764491355
Ni 0.8591739207836092 6.3975709925838435 2.1729103057319903 -0.17351706748696566 -0.05413380572992612 -1.8788009820995193
Ni 6.015586668490712 7.924156775438396 9.152151278650095 0.6339769610829211 0.6013203513901644 -0.7086790778825022
Ni 8.525841272856383 8.481623478861511 7.537072118951928 -0.6732467052168212 -2.061909549929662 0.6329595755620002
P 6.930691811117707 7.0233403929703675 12.900783738358637 0.08842897946737029 -0.5104372539553467 0.8127935864059291
P 7.7768511227623955 8.46542395821162 3.2389841687078325 0.008653819020256064 0.9015439537684603 -1.4615752166018505
P 0.28445258408829693 2.5178324008491924 7.903003258686423 0.4487451762621884 1.386753800615586 -0.9256174497778962
P 2.645471201642988 2.951006464533351 3.4387154967850875 -0.31147629247397973 0.45211434984473753 1.5227625867444485
P 5.067327501150446 3.8675842908557905 0.17661392237192636 -0.05518821513636947 -1.0696215954074095 0.35611141468485125
P 8.746604015429849 2.183206974582356 0.22230626421881883 -1.3741582233387624 -0.15755257373790932 1.3498551278170237
P 4.547404911178289 6.262559452529942 3.368405103188774 -0.9500442153616927 -2.0708742153221174 -1.3413190653215545
P 7.1775527457623465 6.633293591683821 6.835168699824066 0.05519052912921463 0.32057259834829305 -0.05131561955484065
Ni 0.10628675136642411 0.3030317006081066 4.270613078541169 0.13289595153149372 -1.0878823413898102 -1.7421003121099545
Ni 6.849815378045722 0.8580945741258086 8.095926686946255 0.871357402882751 0.4700961311341388 0.15906875327211958
Ni 5.825330848291869 1.8538477906441662 10.14713739473722 0.7820359935080983 0.21321078653216186 -0.16524968527185088
Ni 0.9105510081105758 2.633960034783025 9.989219098671134 0.8683571826038464 0.862452129973321 1.4747693466946212
Ni 7.956285514034586 6.923980847442263 1.468878951872039 0.3695235743256991 1.1068192875036291 -0.5957680541133676
Ni 8.288534140666368 4.591399006383979 0.4503699760241958 1.4626432528550488 -1.1333826398144544 1.800813766790763
Ni 5.081131580599519 4.9537257993777875 9.052988401640812 0.6183922192707866 -0.8141817250027075 -0.3131361966749059
Ni 0.6321895556360327 3.836807065777573 2.424371978807461 -0.7453034139737551 1.3952050167067327 -1.6964889420287428
Ni 4.652207793909809 3.849446047366326 11.288678840478294 -0.06889296631697167 -1.190460358664053 -0.20097670635981518
Ni 5.12651447245471 8.033946277012086 4.219278866815462 -2.076216453470637 1.795678759557043 0.7598239761874334
Ni 4.634395777821235 0.24358467946141824 7.917163392041611 -0.23026902756602924 1.4829518825054138 -0.8103649223597786
Ni 9.034019676396513 0.6637394736152148 12.10802505600472 -1.5504207147813491 -0.8701579832580111 -0.5181623905137464
Ni 5.800462999561194 2.306166742369106 4.923037121736955 1.0049591222320176 0.3433973095522925 -0.045863595301333916
Ni 0.9890282716685896 6.7921570151341975 12.990956720277689 0.29927743641494264 0.3631847765918648 0.05984859672651628
Ni 8.96971559528972 0.9831002537552807 6.417535177440002 0.7017615248270623 1.7433167010155588 1.038932908074301
Ni 4.575404542957503 5.757922946485185 12.710956674172392 0.19519146713660576 0.8991751964259675 0.15857818678894625
Ni 5.943797998729224 0.5853908368609801 2.791788851333437 -0.06085698338637261 0.23902311960957545 -0.5126797701326202
Ni 4.38860673320809 9.17775546922849 10.063690289746223 -1.6388697488533774 -0.4790289148473944 1.5909148182406536
Ni 6.79860699688893 3.7224690221571923 7.449123075828655 -0.5771910624421285 -1.607205327870561 -0.059818000598896984
Ni 3.0082267506493947 7.285347599799168 0.5433065700679273 -0.47123101606953033 -2.056899241199264 0.9998675666417232
Ni 2.0537972250408734 1.3956940288347435 5.225300789835538 1.5345611220412734 -0.6120251394021782 -0.08495104822109886
Ni 1.475945969453597 7.1645595744240556 4.208719351887808 0.790099230132207 1.4454554282218526 2.1132650215835023
Ni 2.8956130518622882 3.0539265491225938 0.29830606368664797 -0.012062330481172773 1.459600609373983 -2.07258014226963
Ni 8.77826671488191 7.755860719710867 11.022033612087132 -0.17954861839302627 1.064517955632257 -0.03350430240503262
P 1.1442938729262975 8.620987824521569 6.034211456846647 -1.2783488922469208 0.3164902007488033 -0.26086464096469913
P 1.822427431547052 8.464184294088238 2.518882853080057 -0.21334396967591643 0.4546736259314815 -0.41989945567508974
P 2.29919479677295 8.614565805115484 8.88772998905471 0.5990693505724586 -0.07354434904605398 -0.0006618019537149893
P 8.080559512207778 2.4396962779446802 5.222913737339314 -2.2817165016221024 0.5652022655113687 0.10987403671502369
P 4.150013332980284 6.404086219818754 10.313637335603277 1.6069096510070133 1.3129965642277772 0.6132196739309117
P 4.875030429500322 2.3503938571468592 8.098996020749484 2.5497002701300864 1.437168762733028 -1.4343508336682589
P 2.237286156866977 8.83179597097646 12.93799882817384 -0.32472595839503426 0.014320016167097918 -1.0073808442996328
P 1.5430556062080392 4.999705221337463 0.46009807711872514 0.3699115537927371 -0.0976255583649738 1.2280048925767302
