# total energy = -340859.1797477235 ev
CRYSTAL
PRIMVEC
9.39832144432989 0.00000000000000 0.00000000000000

0.00000000000000 9.39832144432989 0.00000000000000

0.00000000000000 0.00000000000000 13.75539343066917

PRIMCOORD
 96 1
Ni 4.073881079228243 0.5596324598615471 0.16181560268810982 -0.0854837807961173 -1.7731466398927977 -0.37291254540259
Ni 4.168569169664294 3.22659418919536 3.3883252069887875 2.465815715500289 0.594979239663485 -1.1333134771394158
Ni 3.9821816550709674 3.9331600094417425 9.247434397074663 0.32631464303839286 1.973959824091555 -0.4611219526599865
Ni 9.391517246508705 5.633147222767177 11.741108932337116 0.02274140746157374 -0.83027066014477 0.4616251175486501
Ni 6.885492376790468 2.843866337401087 2.6145012378196695 0.07280335711497139 0.31648171610837106 2.4161628283598517
Ni -0.1534792914010848 2.222204954772499 10.663126140379813 1.602688156726498 2.6620340812395122 0.42960562721926016
Ni 3.2122429520642584 7.309882988376604 3.5906391174186325 0.21784777108354095 2.4617181483921473 -0.7689735038971853
Ni 7.9456888450604035 0.5482388745478375 2.529052637379418 -1.7811761950654936 0.8087124743580202 -0.6799745108589579
Ni 2.5908447224413487 6.833463268239205 1.307927767983375 3.334717971974328 -4.8165043734167305 0.32894179624859476
Ni 0.912823266432751 8.671915954159612 12.385287753762302 2.5065036801379543 1.4588562750087908 0.8135960277025666
Ni 8.406206604997525 1.674038447301223 12.646708648763996 0.8268678051108083 -2.8584828178219865 1.7310826208432122
Ni 6.782872102897541 9.002830858800143 8.34033564834758 0.8494438906391113 -0.20997145365925773 0.1822199945776023
Ni 0.9651512416118918 1.5393417016804307 1.2086476575982368 -0.23871227323737598 1.7281235382148883 0.7600389204117168
Ni 4.763586310467948 5.918188919524993 2.1372168720921847 -2.235613536616453 0.8961711194923211 -1.6682818834669075
Ni 4.233004062768965 6.415190964035092 5.373475355421083 -0.30876017909439724 -0.6139285270724781 1.362654593574537
Ni 1.8995699714892045 5.579839942474048 8.19033279611794 0.3192762481343727 -0.2807027587365488 -0.0424244877127979
Ni 1.4008292374773024 1.1147819203049307 6.083405774811496 -0.39680940662484565 -0.30275202522710437 0.030006573664419292
Ni 3.258012778409029 6.620271740353212 10.365885422144482 -0.05598140046162617 -0.5751879159691706 0.33453985916166257
Ni 1.720926673920127 4.564877596215896 10.255485217605106 0.3700743046228465 -0.009569131745673842 1.5926415711237734
Ni 2.59263980187294 0.3103861507011301 3.8379615901411084 1.061354727412927 -0.6233791309624168 0.29133272764656926
Ni 0.22941491068606348 3.392653134100033 8.690905263015795 -0.8274177640770072 0.46608803841601015 0.03103938580430784
Ni 9.180543722527714 8.677827498465744 8.141927680387731 0.8028135923750819 -0.15388463796801885 -0.8024071009652827
Ni 1.4332534471055283 6.305193007661539 5.868188908613942 1.0412777541573939 0.4912434546357153 -0.26918833033904604
Ni 2.098466652173884 3.366657376467664 7.405615232345899 1.8091922206624456 -0.926386723843753 -1.3439487896349176
P 3.4962790284075167 4.058326856928326 11.647352215574733 -0.12298717705821399 0.29477980565490525 -0.639413301607144
P 8.360183023968705 0.8293116600807251 6.581267765750865 -0.14153922902878852 -1.2098930134673678 1.0556813311772335
P 7.962577629031975 4.1506653669565345 10.904850032906483 1.5804393726306265 -0.41847095075867935 -0.8486864436477964
P 6.458949549550749 8.609764853211363 10.476162508670486 -0.3379252306941277 -0.5269043983724344 -0.172859893518941
P 7.527642100575442 6.360051011023845 7.727353615745562 -1.3244135478154675 0.6297971186736186 -1.5480339597167276
P 2.4918991923062874 0.911368406244215 11.90903438391778 -0.4919474226812754 -0.05284979681117994 0.39108767364971997
P 5.712967168382402 1.286357680007218 3.9693388485617005 0.3942079644462566 1.210588753982812 0.7672742618178915
P 2.952670706927455 8.75053291460602 5.948754141134534 -0.20528638947876257 0.26533090426616884 -0.2936788592812426
Ni 7.450763829630838 2.3251259749576296 8.60702524245582 -0.3832082709016432 -0.6899269940859796 -0.2505360053451814
Ni 2.876854446327195 4.104500811103246 1.4979486737193886 -0.4879370159703016 0.34781934987938806 0.23720354990233342
Ni 4.745870474192817 4.949165569400977 13.300681461161235 -2.516989924381259 0.6244322548172794 0.3298655936144448
Ni 4.662911489152715 7.523309474303381 13.071337977719567 -1.4315329046034895 0.13940212808112765 1.8245424778662707
Ni 1.8284904649911546 8.746670204415528 1.3869150223020594 0.41676913757622414 4.452599687939706 -0.21242917117113091
Ni 6.34616029165268 9.023854904289518 12.59086194196607 0.6592233943545357 0.8866960901223504 0.20098904765498932
Ni 6.189471473414483 4.300390028865887 7.763227949244663 -0.40911650612697276 -0.7127115960806629 1.3758435814609853
Ni 2.5002261052716808 5.284807829822086 3.6683575983170824 -0.5751290377067773 -1.281364024924161 -0.9396500166115623
Ni 5.249084809301251 3.1662475660003344 0.9880417937772562 -0.28487257384352227 -0.5033991161616427 -0.3263652937706702
Ni 5.037068071619179 0.9472098456176069 9.188300157370083 1.064600488043734 0.16317197680721576 0.9474348027633038
Ni 5.6063526077961425 0.9146286840181371 1.829810929180362 0.24053878492315345 -0.8658989508713409 0.4633030194717053
Ni 6.476016901633317 6.953000521068598 3.5174741233505817 0.11110816623244091 1.630138796738283 1.4552197066974681
Ni 6.696181984169786 7.898358897324824 1.3636231618030357 -1.8063023007091599 1.5091339402174202 0.16816171671232327
Ni 0.34769560791334203 7.222262435807343 0.4829355765244274 2.2161996508662156 0.26672109974547614 -1.2594083465886763
Ni 6.784817555475234 4.899542431187344 1.1834056453607036 0.377843149934988 1.3511882448061503 1.0922599016322156
Ni 7.7468391559838805 6.951656561075312 13.388427011408192 -1.5146083330684301 -0.4915656138618244 -1.914041550469368
Ni 6.9328035278827835 8.550358062179475 5.924228281005311 0.3935322785354707 -0.648527090982954 -0.4541606908508049
Ni 0.8046044123440169 3.2219420199878317 13.204586441976966 -0.7475610996596803 -0.07949465309221794 -0.21619069509609218
Ni 0.4302767804238623 9.162931267790528 3.2385695306180513 0.910440999147774 -0.7133021784768103 1.085820573764775
Ni 2.5811456545177753 2.3052955163154394 9.838201616836612 -1.3332095488405427 -1.7523914096233173 0.7286470363639967
Ni 6.924739767923068 1.894372699627057 11.01637803604162 -1.518270869521682 -0.8811911011437211 -0.5731474885003742
Ni 8.28645319077061 4.58946360560356 4.035901521683714 -2.581712047149992 0.7216775470246991 -0.6858847056958058
Ni 8.485923169074804 6.607198674963977 5.769671941945271 0.24352126459024512 -0.8501116061300973 0.05089113042291235
Ni 8.392503852058987 0.3118598075329289 10.065028229745396 -0.8884835210400763 -0.4334257722962987 -0.5404659391069531
P 9.149190921565465 0.008350408769472082 0.4012820183589233 -1.3183259468604909 -0.5556778709607011 -0.04793436178743358
P 9.011740467706682 5.147808495401609 0.17576083232473635 -0.3682305665458884 -0.8218071027584491 -0.409660808666217
P 1.2295354274239563 7.145083418570534 2.8620436312683193 -2.2367736183628253 -0.6991824512459764 0.59354970630581
P 3.0731289952767225 1.8533396273844964 1.801227813602877 0.3877822634255708 0.04240931820414631 0.7847179112156356
P 0.8153438744721834 1.2488771733413153 8.966122894172338 0.449320074929052 -0.442745764145644 -1.1383081021405301
P 8.16570355445077 8.062961102376635 4.1345688614984875 0.2938511231930488 0.5854386471629014 0.005162775147862076
P 0.07997313825781517 2.0284491560201787 3.3602909533945744 -0.5258564167238944 0.8717806064630986 -0.09951069120282861
P 4.68120062304736 2.543364401559668 7.753970602437764 0.15979791812866026 0.16169976313706344 -0.35769161468777755
Ni 2.231866429409547 7.8163115494829665 8.450158795938789 1.3455323320719534 1.7645761246149676 -1.4601569960980854
Ni 4.7944973903135235 8.471872678235906 7.250371875974607 -1.159718449495506 -0.7175912927704674 -0.5590496156464114
Ni 3.153682009979193 0.7753060844903847 7.94720667400387 -1.5496455271782215 0.025432066919859428 -0.8118931860788469
Ni 5.720777173658069 6.7429010409993255 9.192715488872501 -0.14273967709479288 0.033215824630336344 -1.217313217190839
Ni 8.212760950859039 2.8499564498182144 6.0694577256783795 1.2958059113811038 1.1339652517908019 0.598906342632033
Ni 3.323519080179677 2.6252707745770563 13.489722121951095 -1.706498760856261 1.1823374724466025 -1.5921726019071547
Ni 6.22698017504528 3.2863017265194525 5.1219443142720795 -0.5865002556581963 0.49071894959081297 -1.3481378880156005
Ni 7.9153416645127095 2.920190107369441 0.6270475607555259 -0.25644105797570677 -0.32590943718017423 -0.9730530175520404
Ni 4.853744409877679 8.686981463734698 4.3367042038173365 0.9164784635911054 1.1229257061471887 0.5760777747732918
Ni 0.8045639995610021 4.12401172680997 4.8796433647972455 0.0031760837351364657 -0.49205695167594615 1.7217076073862156
Ni 4.198484027416944 2.1080623385595123 5.547632834075507 -1.6925379278007948 -0.7037348465033493 0.5192147430376606
Ni 2.1722058836936116 2.502444109176684 4.046533842945283 -1.9548228461517883 -1.3583785919070026 -1.4221542916020669
Ni 3.331150517344349 9.030151779782534 10.33805887145832 0.1342568364347623 0.43544665938106936 0.07083080676963284
Ni 6.086907589451344 1.2598544130067553 6.580786571683339 0.8517329437836041 0.3095104269968605 0.2745333967010434
Ni 5.57903168681375 6.335878527787962 11.469769988517838 0.748320603533524 0.03894372825304906 -0.6694090766382859
Ni 0.058377674813253615 4.003506446852546 1.9527156006502746 1.1102766499246104 -0.30396378614701847 1.0581945845173906
Ni 8.7793481687278 7.860840797372396 11.193410461283083 -2.0075489729009104 -0.767921151373271 -0.4223021515793114
Ni 8.310494097503653 6.125290334993858 9.600659977435903 -0.5076908015584612 -1.2035416173280433 0.7720606274629412
Ni 8.422146158484328 6.455237212506358 2.02812303425957 0.23528345006148513 -0.838996212943226 2.4265480282489174
Ni 4.365492202806386 1.8450879009921537 11.484075173872947 1.108168345332356 0.3501333427245454 -0.43456040012137415
Ni 5.968601516755661 3.8582459877180937 10.480647387752974 -1.262516810310671 1.2694724156928976 -0.3371785823360902
Ni 6.286198999644541 5.529615311676008 5.947460932078057 0.6166528679821767 1.2261799235528497 -1.372919465835655
Ni 2.0329415537599735 5.145477711637029 13.153099616583834 0.6884524664229821 -0.7828901139782776 -0.17422540640789996
Ni 6.830653170071425 4.739376233945539 12.736022778891229 2.2231555133587584 -0.7661830856362417 -1.6616975453811704
P 2.4261109408866988 7.147827728486893 13.068421678517353 0.4509470690095137 1.9632421805637348 -2.5799400428512342
P 6.116352531122426 5.0014390343146555 3.2458880036723987 1.3731086990283254 -4.577044937600685 2.609935817882376
P 3.063599097142513 3.96127038944117 5.23014437171755 0.5734038274855544 1.2070647999899533 1.760304236712491
P 4.349035741629857 8.335878964229984 1.8903896909196825 0.9006103862105973 -0.32998643546302525 -0.317801206250743
P 6.050893220959935 1.990968649354276 13.03862805911375 0.0729257416254486 -0.5441104778380759 0.5753347259596802
P 4.04429516273269 6.3320252159191 7.589401291511662 0.002717913151795319 -0.17748505099577822 0.687128605405236
P 0.8428997534953595 7.048346494018845 9.764912564923028 0.2770062837215681 -0.5775384184792183 0.8144869149479521
P 0.2801188558873037 4.67049593470923 6.949650959239178 -0.14808551478773851 0.5060023581124448 -0.9638379267116756
