# total energy = -340888.7771001496 ev
CRYSTAL
PRIMVEC
9.13363953032282 0.00000000000000 0.00000000000000

0.00000000000000 9.13363953032282 0.00000000000000

0.00000000000000 0.00000000000000 13.36800469506048

PRIMCOORD
 96 1
Ni 6.45019438530727 2.051113990792008 11.337350893181801 0.6208319390605308 0.42523372340380955 -0.1265304143247821
Ni 4.514282987798602 0.27923453596428843 5.8538627247640305 -0.01538985219250898 1.3383998347922306 -0.6816873797850066
Ni 2.703776458741549 1.6770092561299703 4.398327782631765 -0.29428898206141574 -0.12062844701805032 1.4668282374706738
Ni 3.6178802198126547 4.121755702541741 4.823817458985133 -0.803253765236294 2.293262040367857 -0.8406502036068811
Ni 3.8195875115013296 2.740237947077955 2.5832599140769172 -1.0686522895156045 0.1801374010169607 -0.9313242703546863
Ni 5.149326665417249 4.50281113675889 2.6643766786221215 0.8154171400717054 1.0809804720636547 -0.5512301196019925
Ni 5.209928362589607 4.566362999445442 11.81412138773776 -1.033726167062381 0.35663771950196643 1.0447849959797038
Ni 5.538985987914181 7.8619901552588285 12.449836387849576 1.3883807946960476 0.5015394372450847 0.16529416535654115
Ni 2.119798958800468 6.655125851691023 0.3892574423649682 0.25433018228029103 0.7783199781090918 -0.8712262766215254
Ni 3.0857635241737067 1.7205036467757533 0.35543100898473773 -0.9355154256178986 0.09064886993682453 -0.4761819323169025
Ni 8.28618376818661 9.220956955135794 6.806774406123852 -0.3473578368619373 0.7398164227172549 0.1087923736150707
Ni 8.683643218699398 2.3283656136506266 1.0275426485934827 0.5757694995042536 0.5175648661390635 0.285307861608728
Ni 6.605758530934943 0.7815289857196693 4.817026598118871 1.2520015126016437 0.09550902624260325 0.27314654365584573
Ni 0.925182865618215 7.518300439675005 2.347368150344989 0.1424969649563675 0.18621368911802771 -0.05828947976951252
Ni 7.918353843766835 3.84556358184921 3.775859299687858 -2.0269883125724446 0.5234213249198405 -0.07702022340979639
Ni 7.820276824288797 3.911764199950982 12.711902421903558 -0.14334645744085636 -0.15199796246826724 -0.3287201671560919
Ni 8.282886524376629 7.678230464918109 9.06158225516595 0.6155200399293141 0.4299164735914596 0.3661865395326661
Ni 7.033422926820599 0.7794008477481307 0.04792237900888158 -0.34019885721965276 0.29516752801162716 -0.5294477336195785
Ni 1.9499498012093344 6.61350385711462 9.301029744701827 0.813836940068779 0.25682132413326086 -0.8573670021409298
Ni 0.46083777405144466 5.153135393031547 1.2470331361215825 -0.7394279290295847 -1.6163052332893002 0.9755708988778875
Ni 6.3232185308852475 2.608348194678731 7.025019978606798 -0.018677521804845252 -1.2921603442087166 -0.30282735854973003
Ni 3.451063430489979 4.408314503911081 0.3809175162627707 0.8840396263361098 -0.45912831926872544 -0.10449760289445874
Ni 6.158913492387349 5.583539880726051 4.517596672159435 0.39971115365267296 0.3555663408146586 1.198288339348904
Ni 5.51607882039221 2.8800648320834763 9.225206837531317 -0.7605407997487998 0.5418499639386732 0.42617269027831123
P 0.5116399895514256 5.514443898946265 12.580522326580779 -1.0678359642618964 2.1511348000460826 -2.2596685206831277
P 3.968255759410068 6.249281720243161 12.669445612689392 1.6826420088433214 1.063114904637143 0.40733113209177596
P 2.666620813813568 8.75679453635628 1.2226846803081577 -0.382409943370064 -0.4019369576593981 0.35865937791768554
P 6.7640536347321 7.972013975023445 5.833891108933272 -1.0182874639098076 0.09236122464224093 -1.207041917171818
P 4.925442897355628 1.14782445872649 12.523801512773687 -0.3998749329240468 -1.7941978041361422 -0.8653101682474065
P 4.338688771048249 6.237563260940655 7.959657074329476 -0.3747385428677352 0.6346940417546036 1.8798553915059624
P 4.725416195309714 1.130333539346676 3.5756334843038338 0.3768820715732993 -1.9529032605315724 0.8227658671272927
P 0.3641938225894341 5.5529695897786695 3.3438993532098644 -0.25018684953587883 0.48909504083414485 0.8405758987255201
Ni 0.6535310770529457 9.188532535397758 4.220720511765846 0.6433118653306018 -0.7829407647105548 1.1850011353216947
Ni 1.824152186265116 6.834355256907781 4.5661227847302 0.9630573397919092 -0.29109567193509867 0.49052328864023903
Ni 6.4917707116868595 6.018191510724272 9.196265074482328 -2.2950345588872474 0.9726989766467312 1.1615979259064058
Ni 8.453685580461498 2.8218652820635413 10.024131752781427 0.37862913617139304 -1.1128420966589414 1.7512290138840998
Ni 2.4601731632955857 5.582882258691928 7.022346562365299 -0.18417377586986344 0.1746537521945702 -0.21005604295326402
Ni 1.0858983838465217 9.133621095548442 8.796855591965576 -0.7247785545475259 0.3829524461370953 -0.4645921705967741
Ni 1.6288019075729685 1.3486092528395197 11.131911596449473 -0.20248414414327706 -0.1647254373372647 -0.7757689295524639
Ni 4.391426404729213 7.055818610538251 1.6330490498766832 -0.0693969025365837 0.9387557869320672 -0.07583623040402424
Ni 5.950027160159492 7.949737028617509 7.924633220828778 -1.1776033001957267 0.8811373650876503 -0.36847636400810735
Ni 5.3034111614681425 2.7537922678923903 4.728530766332438 1.4182107335732865 0.5474351713359347 0.6412554970222053
Ni 0.7803032513171779 7.5544057160762605 6.933970381254519 0.5559108129071135 -0.7187598591572718 -0.3037586121147478
Ni 5.333734844152729 4.829886762341731 6.718331549445724 0.05814549799248051 -0.6597481565097542 0.19445330341900058
Ni 1.0268128708083928 7.590300918772171 11.335880377244386 -0.3875999722114357 -0.6147175986326768 0.745893225038954
Ni 4.598933557413283 0.32622985057784304 10.184481012071284 0.35786182171705466 0.6811793298003366 0.47672572063551455
Ni 8.394536131947829 7.181269147186683 4.405158831511224 -0.6402337406259103 0.9453434674519138 0.6498460669046937
Ni 7.576061575005523 6.357095199281973 7.025862100156051 -0.27325350154735517 -0.20910833432801404 -0.8174233718684568
Ni 2.714755093255667 5.427098905719548 2.452025956983944 -1.1773140510900821 -0.7185207465632723 1.0713465485183162
Ni 2.5594649568088794 5.1823630389925945 11.504812517443492 -0.44365079245841654 0.6376760072010631 -1.034226503737567
Ni 0.9644940494358231 3.356064447477214 3.6033321590355434 1.8898492694938809 0.011528569464889822 0.1953825001014893
Ni 1.4175773636682276 1.1764401508502276 2.295393175550821 0.32471233154827944 0.5184231003743007 -0.5531376210373505
Ni 0.9145330421211585 3.6069015852985364 7.921652000940752 0.2931702950759402 0.4026347550573711 0.7164096137575404
Ni 3.7735905036701323 2.910306312013797 7.015996856280261 0.05005295079233315 -0.19250594988464265 -0.48826688850589456
Ni 4.482534457373414 7.038556032142508 5.918978266509497 0.02908740428425958 -0.16031779518787226 -0.7842373720347914
Ni 1.138042330968902 0.4497011275763495 -0.20108529084806662 -1.6560735143261738 -1.0343275480918055 0.9962867912690004
P 0.10859805866007873 5.8311163092948455 8.283951506726336 1.4546512357885075 0.37254564898147446 -0.8862374053183769
P 8.862123665488403 1.7177452876881796 8.205241456153235 -0.2406467712559275 -0.5045707678722406 -0.7950568312477985
P 2.0511505253494593 3.372294924624958 10.332665177093793 -0.8268390087554017 0.2549891560205286 -0.48528749416259653
P 4.135949378111574 6.293917815809298 3.8003767278294953 0.3822929581762255 0.18718145234793568 0.12110435821320435
P 6.724559778127236 4.3149687096229865 10.543612058361905 1.8364351155387986 -0.8700628524410434 -0.6501438006507707
P 6.440878073157187 7.994729336118795 10.240319516315928 -0.025730314886568587 0.050336029250390726 0.656746650679269
P 2.2766052793814855 8.7262973145238 5.737080011870922 0.5423842391755884 0.3498978296749716 -0.12948126942298993
P 6.891056890072212 3.86559365297189 1.4230913417515663 1.136734587005823 1.3842264062080418 0.08856910458966037
Ni 5.308279391248529 2.698661620698366 0.5042810163167958 0.3656311812498284 1.9762691889510224 -0.15144671795048756
Ni 1.545283909239277 1.4993782378017075 6.682972491380411 0.14584942636836817 -0.16806401479219443 0.18445711143823715
Ni 6.851398627958817 0.8633536073154927 9.098664830979029 0.9556263374351606 -0.40630037683441633 -0.0777244485656726
Ni 2.788079950060444 1.882589210908484 8.947726873688628 0.5135153786600382 -0.6387491856605838 0.22099891511801298
Ni 6.597118108097709 2.032152555474779 2.549225233719214 0.15429138648813429 -0.41496782270142724 0.12000109784669656
Ni 4.257024901505211 7.0592254580205855 10.480114084147592 0.2485601125657332 -1.1915186247252383 -0.8504317084736773
Ni 8.52725704552907 7.437732606855507 0.23610549089301855 0.4096140145886817 -0.3621337096195311 -0.39431749344092737
Ni 7.611436160257753 4.276223811445874 8.491891593916204 0.8571379168492594 -1.1706469234825516 -1.664586179782875
Ni 3.2520140278558864 8.47410839807678 12.302641395970062 -0.4036832509265435 0.8633121639807714 0.4871325177911352
Ni 0.34472821037937684 5.0397229930633225 10.218154913674155 0.15320740939533617 -0.6385170150451196 1.3892161461131494
Ni 8.513629655599733 2.492588449394259 5.8650112449702965 0.7854882137227569 -0.225971685742256 -0.19991509786452022
Ni 3.7853272302513647 2.728702160562704 11.51589436208241 0.0176958746178663 0.028754189314556935 -0.48741276803571537
Ni 1.3147873862789705 3.502266612757988 12.642415520359043 -0.5721866672490017 -1.3344909866561276 0.3567485340482178
Ni 3.456205669451251 8.579510596323805 7.7385371455390475 -1.5238061975176143 -1.033878633479845 1.3711160940783291
Ni 6.013743428354575 7.951463286457083 3.525490717565849 -0.7447043469371755 -0.10266774877457158 -0.2015408063934013
Ni 3.189695206483317 8.582351158165643 3.459759568527327 0.6124804817720421 -0.4360948344880296 -0.11087728116855743
Ni 3.662525449018154 4.410853655653947 9.221891326442611 0.09094711790353369 0.9096830379358269 -0.2708034973449659
Ni 7.536083635514429 6.081040083179884 11.698755302309827 0.06070554541017287 0.7518738681024213 -0.5371160487981137
Ni 8.301601351431064 0.007775467189574767 1.9430392896674193 0.17636045047303175 0.22165248954161182 1.312611412974217
Ni 4.849953368021862 0.5563372805012929 1.428304823099868 0.07876008891903855 -2.0469526715095134 0.5473310416579026
Ni 6.0402766507035865 5.804464349634115 0.5137041920474246 0.31104203315003853 -0.7861559292137429 -0.8564380625687573
Ni 8.14177179622095 8.832110526542154 11.413789407645364 -0.39644508130689143 0.6140138876974329 0.01818952642483319
Ni 0.16836676792254715 5.299501963820853 5.58930960071155 0.6072241184691091 -1.3316350052645713 0.20512775241371123
Ni 7.411646932835272 6.189903930745421 2.4672791347198655 0.5813642199832116 -0.559770552972836 -0.7993269193780622
P 8.374743535448582 1.4917973171305612 3.756703317852201 0.04619938137419786 1.7395518346564882 -0.6609663451875715
P 1.9554939203025707 3.315328415919005 1.5332969209395026 -0.81309106304169 -0.4468135064571143 0.06260379087415024
P 4.855634491705541 1.0633656955384272 8.066908834547474 0.3496471471167462 0.895518830620303 -0.8545249047064444
P 8.755415356812493 1.8370580186847907 12.127333062131767 -0.5948000337731434 -0.5277230376189879 0.30890827463648735
P 6.57337977939372 8.075854320939426 1.0978442707691634 -0.4425210497293476 -1.5649279072585887 1.1676220206132988
P 1.8753097003363108 3.809732314628839 5.925047569866096 -0.6239188055159707 -1.9616115869388475 -0.18815230090163726
P 7.432836976157032 4.329125850635369 6.253458533523782 -1.1816137069067005 -0.08554343038945914 -1.7178720356902089
P 2.599013615249921 8.575656200512691 10.122159450606906 -0.015424562085186338 0.14700616568063068 0.40046602954082644
