# total energy = -340871.4740008887 ev
CRYSTAL
PRIMVEC
9.26138991487871 0.00000000000000 0.00000000000000

0.00000000000000 9.26138991487871 0.00000000000000

0.00000000000000 0.00000000000000 13.55498029606047

PRIMCOORD
 96 1
Ni 2.291767907083756 4.841613697324769 5.702972943509869 -0.8824357721840995 1.5566579539403125 -0.2640432958029969
Ni 8.152625316283414 4.945619102759924 5.1862300050934325 0.22427527187643956 -0.7905995668073933 0.2487550021853587
Ni 4.5153997707314995 0.32635562585445993 9.210649244915082 -1.426923430855936 0.05387258164873948 -1.1733969754238631
Ni 5.96680770645506 1.4011648970338269 10.41237937786693 1.371784066679631 1.3695672615339705 0.8882757759046443
Ni 8.284627902540516 6.805056080981844 8.850290427069956 -0.21092764692493998 -0.7931796688297437 0.4512157492898681
Ni 9.169470328246664 8.22005749410829 4.945615398204076 -0.9653798172774986 0.36967141275747306 -0.40405991753967185
Ni 5.049513371519635 0.37227637400843355 6.878650787460019 -0.6219130879398514 0.7295307245205307 0.11863044275141504
Ni 2.3002606013655047 6.612057982685924 1.2000306679565378 -0.03049791147854103 1.0868958091068248 0.3366358224587428
Ni 3.4796800467222266 6.269608840088395 3.629319097233127 -0.14497576551416322 0.17434984780090618 -0.15099240402188835
Ni 2.2871372122736426 8.943807308760203 4.0406581603817555 1.0184486720780201 0.08592755320175524 0.6500743808654159
Ni 5.914647560113939 6.318527500062436 5.08650614007971 -0.13425143711812362 -0.15911580445997112 -0.40679145753822193
Ni 2.866325996343425 5.794360631726425 7.774078981502087 0.7609454913863862 -0.18231409695330536 2.039328836415668
Ni 3.556762592531379 2.8124617543121824 10.325519583035703 -0.15580396647791878 0.05390163511446201 -0.8107498165030231
Ni 6.05314238049482 1.6150844744818396 4.07413900999784 3.0306346295303097 0.16960282003422406 0.23729508117487516
Ni 5.9445433258080325 3.8016615182590527 9.110735521414144 0.4402656780362676 -1.480886772446269 0.3280239124200157
Ni 2.8936563571127163 2.6670857214434722 6.179349189127583 0.8225666066322931 -0.2341619348625322 0.327256695236688
Ni 8.822075603591934 1.9002982292263635 8.046967678940012 -0.11799795137373871 -1.3726525853275133 -0.2937392802055328
Ni 5.903070823088655 2.779111490289743 6.161985009728618 -0.2735504639624837 1.0817083513686145 0.18033177641595396
Ni 7.264754416171452 0.6573002702657424 6.252140006986722 1.84172875983757 0.31759166134309824 -1.3989434007032422
Ni 7.838506764534161 6.1562031241887105 3.0514019019582013 -1.3559267879324004 0.8682612804559304 0.23469055367249259
Ni 7.581049394481458 4.295302846406795 13.239257411261958 2.212239123556571 -0.40202386094624953 0.773117607972546
Ni 7.0806287291317105 1.2367289243266888 12.994928987134891 -2.106419973637211 0.15884738128993287 0.06450486455160503
Ni 5.773541027860154 5.890771697672992 0.05015783390522767 -0.41497836422438855 1.1489702098400665 -1.3913658454663005
Ni 7.320554288633322 4.6690091789725905 7.344399588488522 3.3608871741705277 -0.4289700505177902 0.22665045697683545
P 7.313932395054859 8.611443819459101 3.5664101820987697 0.28116735707779317 0.314238171489833 -0.08894731386468553
P 7.575575913215904 2.8469789534267695 11.20652501502219 0.4408737439339117 -0.3048374470012234 0.17907862073514322
P 8.138288685151302 2.5665811212847647 5.063624950883975 -0.9317500450381953 -0.3680824710037983 0.11345275520521751
P 2.210184325919173 1.9015392554354738 2.714492922631493 -0.34258509806364223 0.23088069300809913 0.9726742940563828
P 3.0011255222658346 0.21755467287395225 6.275236986560608 -1.4720766303538066 1.209753145455394 -1.6807784732720212
P 8.635773489991438 9.026066971367062 9.703102336774547 -0.07756863971409866 0.7730692712331139 -0.3251900425156464
P 3.093480099558743 6.989672621671457 9.837675884790224 -0.3210461955506019 0.02289207410682509 0.880721360596154
P 3.7369429275929034 8.18581813668231 2.444342818104269 -0.5741705304482498 -1.0415487484305934 0.8719168749306467
Ni 9.345205196290479 7.69392721117279 11.082090836362738 0.7999169875535772 -1.245089615973159 1.5865133467388484
Ni 1.9072350100519138 4.290255389063771 1.4369360883029931 -0.42459274738570096 0.3026003301405885 -0.024523181952344864
Ni 5.205836366919453 8.645868404677486 4.612813845173937 0.4867805337683553 0.6266914831651014 -0.6909019564047392
Ni 0.6489520536620695 7.937381360119709 2.6657631950057037 -1.1557802907833643 -1.5381485822822156 -0.38381042326201636
Ni 0.9137259215147513 2.1571906545122315 10.469948175746264 -0.2932751960849207 1.3892518844470914 -1.0738387188125507
Ni 8.594930761766236 3.721689418888389 9.359781697413753 -0.18851019846168823 1.0233782481691536 0.0567370476807281
Ni 7.949402643846764 8.21674191662425 1.1938236846330612 0.511133508691423 0.3427193096486614 0.5885663941586058
Ni 7.75944228134628 7.226477092871051 6.535520006586441 -0.7478182099758088 -0.6219339138754579 -0.13527447906599926
Ni 4.298164615799445 9.156800747246193 11.517585455918844 0.4596767355730277 1.2924223396208516 0.5082901257053568
Ni 7.222420604217393 1.09220493930304 2.0478182737921555 -0.9834479876331191 -0.14547147420365913 0.057172335445933795
Ni 4.646059455493668 0.09176370063513734 0.9418416481238376 0.4584294934294879 1.3544872272723962 -0.9970766341601474
Ni 0.766620787203945 1.0638558256755237 5.811020019375291 0.32799897271935124 0.37586340050079786 0.788641671750074
Ni 1.5888099121292545 3.424278414014026 8.350505093048156 0.14506806811765338 1.600061260626612 -0.17262412335905108
Ni 1.000906160426838 5.747683228040479 9.722797607940924 1.0260352261760264 0.4647346097119093 -0.710872485989395
Ni 3.5297841645676566 7.459243598196228 5.766641292593085 -0.19991072698914603 -1.0270091600535216 0.6827610724651596
Ni 7.892565495747428 3.290386504274398 2.8461259794427467 0.43866053833267676 -0.2239957929628078 0.8147527670148291
Ni 0.8421168569711529 3.170645997874478 4.4512118576905895 -0.4278616479449599 -0.6510719688919948 0.6832562669340233
Ni 4.397659724489548 5.213884514499431 10.184371374528627 -1.3430231924968548 -0.4149739933490143 -1.076666932289965
Ni 8.918477408148881 5.854985688180434 0.9618758861503136 1.201487305902176 -0.4388482288634507 1.2985392511518667
Ni 6.916368722827357 8.383261701995938 11.280142874974416 -0.451885521663383 0.38208084216541943 -1.2535578013451703
Ni 6.9199158350519046 8.722830552421577 8.39904496218673 -0.2454742745515579 1.4453600402945688 0.05558930722953006
Ni 9.334925053812027 8.789003181258101 7.592943797170717 0.17169209846308495 0.4594188539259507 0.4879825244962564
Ni 1.9905689938547202 1.0067500972772014 12.211315402255753 1.050243962211746 -0.5281462411993355 0.953345511820784
Ni 5.325141588007224 5.3447572112228645 7.258704876471519 -2.4822939156609705 0.5804309095356648 -0.4893912319183249
P -0.16200022723701804 3.576878330786513 1.1361631989964875 0.49177927253452725 0.5490991893019188 -0.15844526075550777
P 6.463736827917982 5.003465742327864 1.7099201780540065 0.9249229948140327 -0.20234787567572893 1.846323321186788
P 1.3516535081240908 6.628682177054232 4.4268127267361 1.3563528197262253 2.095352660079456 1.462693903587326
P 3.8551738274847267 3.9305893231622386 8.113469087108054 -0.3064960656505689 -1.3240121986119906 0.8113403988991704
P 5.505183002224444 7.537354158253225 6.925292997865408 0.9143297926792188 -0.4177741818019708 -0.690527603784456
P 3.4835142620250004 5.860968545875101 12.883235702175986 -0.7753588385982388 -0.3178325737093107 1.897315495963939
P 6.580282154898924 5.967474526507716 10.156760393653842 0.2944563608772155 -0.6644491615298492 0.7335976955010527
P 6.5356329955398085 1.7312686072675927 8.057066298181908 -0.0996266479554026 0.418608247667492 0.7546254627056294
Ni 2.582316222249531 7.878247387394557 12.417974976380469 -1.3240024284199778 -0.7824967351946008 0.2807328406435359
Ni 1.1806604715658322 6.9213513504430395 6.803312161316355 -1.3977460379610314 0.25657578378135815 -2.017994079493634
Ni 0.507297247142767 5.157806800348954 3.4280135324478636 1.093966342800361 -1.2731570636333363 -2.2247632241655104
Ni 9.105909411283042 1.4269763899054004 0.6707617000787431 1.0777190277035633 -0.6610712461965519 0.4533520789065805
Ni 3.894636608656516 1.7631926172885166 4.177170117244946 -1.397561432754051 -1.2738024105268193 0.48907138668506095
Ni 8.927683229431388 0.7438275812096032 11.839393739469774 -0.2512075774909093 -0.4101418620676937 -0.8869298033997112
Ni 5.800389796369194 7.276090357066611 2.616964933096726 -0.653019836646985 -0.15100423109643024 -0.8236112458467235
Ni 2.70325144791046 2.2526755814967765 0.6734400939569128 1.4973976256170987 -1.8037499666009515 1.4462792096747283
Ni 3.309937297762698 3.6408745330622843 12.655173056638924 0.7790244603752842 3.0676685423551557 -1.1780429588363066
Ni 8.37932561140734 5.077871746536771 11.296232687161638 0.0091451568343778 1.0071774700395753 -1.1468886447206894
Ni 2.2172692889786467 1.2447863332962867 7.981809172266902 -0.6616425453189896 0.004015291806980181 0.5516502378585467
Ni 4.191436361815944 5.1542226425659265 1.5038301793909337 -0.6879798976619378 -0.9078783806269203 0.5546831111475995
Ni 5.970169590887203 4.256988477547914 3.727307377832019 -0.6662455913086397 -0.19569437491495328 -0.1197362742210841
Ni 2.688766634544425 8.189439340023819 8.04944880521927 0.40836420134198054 0.25879824535397367 1.1338896613578602
Ni 5.243539484063399 7.279887526810904 9.096381293641754 -0.9896955112047277 -0.3657281118390089 0.1345334871349167
Ni 0.38029210672474034 1.073191306412713 3.4398338440201597 -1.3056732910934867 -0.4290279003389192 -1.0362862144800733
Ni 5.816523137087629 4.104823846087577 11.81142989965046 -0.7949321327444762 -0.40551516192895964 -1.304279496069754
Ni 2.0888879060630545 0.06676535777221948 1.3962711787584985 0.18596094967727328 -0.712097873756064 -0.4266308608616523
Ni 4.809810085368909 6.92991813584175 11.72981575590013 1.2443383396294312 0.5203424288842007 -1.2325904550648836
Ni 2.9132349347698767 3.774831272529254 3.6874556182961804 0.8905715139173564 0.8992286753717222 -1.2276385103762468
Ni 7.725128832803337 6.829422797072661 12.897251889227238 0.8239634869798197 -0.2207366625955618 -1.785469423124209
Ni 1.0870185611157126 5.823867419056469 12.621773707251497 0.8328263366870883 -0.36755205242162503 -0.2653273047217431
Ni 1.0758400638440981 3.1534568587393355 12.9393124901875 -2.016740923812824 0.7608591023201671 -1.3227492727391672
Ni 5.902598492218023 3.1743320309433285 0.5282835560222024 -2.126596448585086 -1.3437135336956598 1.0502462762045912
P 0.5941107350258928 8.632911720598788 13.403434991198692 -0.012798694426565055 -0.5662440765123217 -0.433724277373324
P 2.499445307927736 0.7432404091076809 10.07933425028978 1.0935973894967168 -0.7216243251892605 -0.05481514806766689
P 1.559145681175666 4.238224902177333 11.040693350899286 0.4084894140659352 -1.153864304707574 0.2047012063992539
P 0.34884413213029614 5.118881179775138 7.434486051463436 -0.9492782837299457 -0.8865780764872474 0.7489656933166908
P 6.17569834933929 8.274542249244089 13.355626771840116 -0.45357962153635434 0.03254013871955041 -0.4141923779879834
P 4.457108584461788 4.483809170736904 5.209965094412151 -0.4855718581722348 -0.04088002604381347 0.5181305088345464
P 4.425119744713522 1.92825836448983 12.248646211536967 1.1984256362577166 -0.6053978638936478 0.3775294753493111
P 4.991500026938531 2.1922079686663114 2.2530682644166737 0.45223724857584696 -0.6885229146496014 0.01373817552169892
