# total energy = -340865.5000763971 ev
CRYSTAL
PRIMVEC
9.33803870011587 0.00000000000000 0.00000000000000

0.00000000000000 9.33803870011587 0.00000000000000

0.00000000000000 0.00000000000000 13.66716354103733

PRIMCOORD
 96 1
Ni 1.9376710697123003 3.4249405129159074 5.1292045008569565 -1.9065038473314264 -0.8822269986074031 0.19452015210119403
Ni 3.1520269902997926 5.334830917132315 4.097374556106592 2.446678994670838 -2.0839953260851076 -0.44498468077849174
Ni 6.503458461607746 4.819903442362576 7.057928795573757 0.1277434607962768 -1.398780649873133 0.35154256436724624
Ni 1.5451652839009284 4.866434889813342 12.098884160542 0.457145998731374 -0.9961566934490392 1.4379799457804139
Ni 8.748668501888687 4.237060411239349 6.42507029471522 0.8596935933915776 1.6748680213248577 -1.8018591773361419
Ni 7.1158843997195405 7.3650232754944644 1.7401986289364417 -2.048576066045549 -0.7561858652142138 -1.0960337668523512
Ni 8.571722004247794 5.518136619211092 2.491441984570532 0.7346932425580767 -0.045816544113482384 0.49506385682306986
Ni 3.0929732327885247 6.345645605513435 8.459126733541973 0.6967370750292774 1.431306133304664 -0.34768231008089157
Ni 6.811968588213891 2.9869398019630276 5.314217196432423 -1.0967989271531497 -0.4366504498811835 1.071310295963742
Ni 7.884395656743548 7.665269237743008 10.033201651832393 -0.3227510940568506 1.8104988552890109 0.921236032880749
Ni 3.775443800105255 9.121246912853595 13.050884145205698 -1.4470127454066433 1.3102395703079306 -1.2214997444683608
Ni 8.350681287288715 9.18055279741306 11.802826308705189 3.103425902460423 2.6274198335997525 -1.828214270290903
Ni 1.6931825372708058 7.513694191581893 12.573913930640227 -1.4250568099608425 0.10473440149561317 1.6320514403799635
Ni 4.96369056414602 2.1301000357203166 13.27796377187106 0.9169638878679564 -0.19476492112214847 -0.4511828391694036
Ni 5.822099120910852 9.035822533708581 3.400527144219282 -0.3561103862435867 -0.8323337133213858 -0.6721863822731068
Ni 3.654656267940763 0.5516100926747864 4.129027706302029 0.8387352459723555 0.625249351401936 0.30146338832266795
Ni 7.0245210278836385 5.349351567500757 4.3795878315856855 0.17673480309331496 -0.21184733052573193 0.28497078998428343
Ni 6.390580248325613 5.7258332786933215 10.688705830638522 0.4737890066046937 -0.04673031417700339 0.6759769596637907
Ni 4.382995281951887 4.38200544983674 10.228081853031222 -0.31380185528336274 0.9657621403175818 0.32212734442992264
Ni 0.3367455545926761 8.597803146678055 8.233591618497794 -0.06499620236572679 -0.6984838825170551 -1.2133748013683812
Ni 0.10383058746735246 7.0649360599058975 0.9357097759384603 1.2225055600250558 0.5118181934632734 -1.0181931044237884
Ni 1.5397025311899715 4.165316258968781 2.6591512942085562 -1.338908656107849 -0.7629905468408731 -0.5996193095386576
Ni 4.752716253037217 6.313335991188801 6.185116313925761 -0.9546637164115752 1.7010030278490125 1.0485814869076586
Ni 8.628431914014703 3.5658701948197744 3.932602993482016 0.8313530945756714 -0.32525329165341405 -0.039940287838363474
P 0.7049976521712815 0.07036399013265411 10.141295054022056 -0.29727043328724284 0.7304702056156646 1.2966150375459604
P 7.06381549524724 8.032403572074601 7.950544456151884 0.04533189116757999 0.2536565532520341 -0.2882782570909616
P 0.5001294846482812 6.5519415591723424 7.242079590165939 -1.2178819452101155 0.9122937360857966 0.3254587227960008
P 0.8508587523771248 5.168296332778118 4.404353244345906 -1.4400196019182618 -0.16736158940853113 -0.4801697133200569
P 3.3637390064755457 8.395139690120965 2.424226781128706 0.01419223233998201 -0.4714045655329171 1.1038419500428602
P 3.724607516757478 8.09150401977998 6.870209936347632 0.1908013084887101 -0.731414828917121 0.6349552658357902
P 4.117393443733515 6.748983516358499 10.31414402022779 0.5963429527802311 -0.45676033325718113 0.48129379962217106
P 0.027953419214101827 0.25684649301872603 5.691799862402119 -1.233574673355024 -0.6686832542158548 -0.9600890011922046
Ni 6.59891189444775 1.43391188937385 11.384720289462896 -0.472747709824373 0.7532877177308124 -0.4870967794571934
Ni 2.917175313922755 0.07949005547353993 8.696019705205533 0.19690459317297057 -0.12390017579078662 -1.3063122102290663
Ni 1.5799214643969655 6.461614709645699 10.605773774055137 -0.48118838439255834 -0.23373513173775873 -2.421390395307378
Ni 7.362044441110199 7.839694464901921 12.876737191603684 -4.2958819513982665 -1.4773381358630622 3.7603515019197173
Ni 8.939248536209918 1.9919157372301617 11.261374134661136 1.1059055174401082 1.252574097275662 -1.2000027509368496
Ni 1.247449930173187 5.027413341068361 8.522611390474351 0.42673704742221347 -0.8034843931898613 -0.8680957014123437
Ni 3.9371506183884026 2.6226442314333664 5.4197407703382305 1.9559680154998254 0.8386367727212782 -0.3135979668026728
Ni 8.12062002482744 6.00384537050633 8.621219212828475 0.42161155327019 -1.218617023603927 -1.4580697745517532
Ni 8.884807769876792 1.9202649653478152 6.872465072723181 -0.4007524504329937 -0.3677556837919989 -0.5189206088360095
Ni 6.639616405673495 1.1995644670932086 1.6081055331699745 1.4746857858418798 0.41962074809240635 0.3895085020880582
Ni 5.602449771736273 6.4050261943834785 8.47522644627524 -0.2860645372690944 0.703724304980388 0.8733574640319152
Ni 3.840203099336856 2.367930546481619 9.019112113236346 1.0502719872362043 -0.7306733227654062 -1.1741420811200036
Ni 4.438136401196674 0.7081641811358721 6.595936795279012 -0.207608609854036 1.293968601062049 0.905110588073796
Ni 1.9605679409042087 1.087405282800382 1.2722293499916402 2.2920574785367944 0.21444311627736617 -1.6765178982234545
Ni 6.566256772686696 3.50591998558158 9.41886234956594 -0.6722339476815906 0.144475428838977 0.41530155189176216
Ni 1.9866957735285804 9.202011610626359 6.352142079122004 0.5240404465610782 0.8788231151321768 0.4255581966227639
Ni 7.877046620190516 0.7892239609354151 8.870248833549182 1.5581093416748586 0.6548064962337626 0.5747402869087908
Ni 8.71429518098436 3.54073219431055 8.532355633985263 -1.1414343064743375 -0.434805940473277 1.3524349727290579
Ni 2.5333352281383372 2.6465963010121776 10.838361909821685 -0.4876480239749731 0.3045615676320174 1.543458424530903
Ni 1.8096185433441765 6.8257048433212715 2.855056812070058 -0.25552188859554703 -0.04211698377470811 -2.2287360927703297
Ni 3.5600525966335757 3.0193614727535274 2.4204140598776234 0.12216468115691864 -2.6586988462186922 0.29935919749547146
Ni 3.657775172907361 5.013462311068071 1.6916809806282043 -1.339494610518306 2.0710919877598784 -0.7502625577512434
Ni 2.0361687032083235 5.776034575401193 6.055455777272463 0.49943370375599144 0.21124183573124908 1.6497547711969973
Ni 3.070141727868372 7.496269411139763 4.6918686582682145 0.8924946990819983 1.635245521837229 0.4951749284796375
P 8.226177215673008 3.4316172106737435 1.6651114587675448 -0.4518191872018219 0.4098261305994878 -1.0699398979787766
P 8.606263409850921 6.658068370386061 11.851343957013427 1.967605085518121 -1.9733083065504853 -0.9699941761210584
P 0.5749038305166361 9.270067237562177 0.3407076844649137 -2.746337211463967 -2.3539467598424233 0.10221266351502398
P 6.2891691467170805 3.6869285301101082 11.886728587522194 -0.20643541548154123 -0.10353112521613138 -0.21335116876476803
P 5.2029684709247555 4.60626779018946 5.317811407575069 -0.7447357143957433 -3.1292863151669525 -1.7153011896392394
P 5.9310366818100375 1.8238777286255974 3.543745579438457 -2.420842750334024 1.7719577617910194 0.698405720980952
P 2.892840384752236 2.4728994408813914 13.215833130567896 -0.9703888404563158 0.2970081807647917 -0.4972984025805436
P 0.6524413020724649 3.954304595704689 10.216519493361638 0.3672504620208062 -1.1161511064275165 1.4374878366353436
Ni 5.828066127718205 8.438113344780492 5.720104391875934 0.6288087866184202 -0.5045946791316407 0.35087690575878927
Ni 5.743202030902519 0.33507124423186485 8.684170667744107 -2.279492240277274 0.02225804006725199 -0.23475945923721506
Ni 4.342468193463763 0.878927029468739 1.6942769554207615 -0.8491047621321377 -0.35285588386203104 0.4621575930133524
Ni 7.707486511257942 1.9905803976785943 13.465149429080439 0.9410648946812179 1.0780725543882401 -0.6456793371215138
Ni 3.227151512623978 7.218686869112574 0.5835984784639386 -0.12118586218341708 -1.0908841043306114 1.0380656749779993
Ni 1.0585227287234764 1.8878713086737817 8.867542669898523 0.279517480179196 -0.25161355468007635 0.14157059648735618
Ni 2.6566720449012755 8.517225209681735 10.754909724475908 1.3483335489661747 0.4910267106392189 0.39615454664966615
Ni 8.535266300686127 4.389718669903834 11.82230172247266 -1.1432965564940567 0.05868414410476991 0.28856673486565787
Ni 3.8873228432334175 4.7719899651661315 12.940699022319873 0.08530740311925308 -1.0823413569669231 -0.36979096905447284
Ni 8.571311130539621 8.79491980817479 2.4076489608077463 1.4507639849189595 0.8655238269201094 0.5573845692391627
Ni 1.5060202251584816 0.7979475568030664 12.34806412368774 -0.05701884058720503 0.4132742370490883 -0.4213791255444098
Ni 0.2183672364442983 7.219751405538299 4.436224904649781 -1.6706838080401807 -0.017986666385407735 0.731554696929095
Ni 7.822251008382148 1.143638952587361 3.9898685165588423 1.0436418835141963 -1.0925136695142346 1.5864629531168872
Ni 0.022746528766871766 1.7204682867091239 2.3873798137403903 -0.07486692451221945 0.300665832122037 -0.7014643053016177
Ni 3.8653410998460798 4.258248421326804 7.49030240433241 0.11430738989602895 0.16953082914570805 -0.3305500212759791
Ni 1.4028442342125615 9.185128436435914 4.063111424060365 -0.7752068864014069 0.6070593107564706 -1.4741628234588742
Ni 0.8058568756854262 3.066350484106579 0.18176119045759356 -0.21855893821795264 0.5274397020506142 0.009780733535847673
Ni 5.497789032617631 8.659546259370103 10.83370129464555 0.3180601163390845 -1.6466216248846546 -0.055810679211716785
Ni 5.4544605324828614 4.138796228713879 2.809886850679561 1.673209402675512 -1.1255567160121325 2.306538445761789
Ni 5.197487042136154 6.464808318922873 2.974425896137466 -0.6784040810480445 1.146079775666149 0.35669428377151474
Ni 6.128582893092591 4.151169130153226 0.6442686504953203 -0.7470162828998038 -2.8327136792776826 -0.8753328425907312
Ni 7.6485261341348965 5.6057554374793135 0.264760480920497 1.2558316849810114 0.7848114993707064 -1.2052588571294662
Ni 7.773329022992912 6.895917557225007 6.095924036116008 0.07308155047702253 0.3558972417915161 0.9819315509885926
Ni 4.979658610531894 6.981538035185288 12.430162293404306 -0.3000048014992704 0.174339563388261 -0.2323495642441418
P 2.043555091916643 1.7915774523397856 3.2041986131991367 -0.41843624086600195 1.208069329995068 2.702205254141759
P 4.442674688064239 1.092494513958453 10.860255875644096 -1.1345558341869493 1.2213305658803482 -0.24735015141803207
P 5.211727551339931 6.059873603439222 0.6766006761131277 1.263802361891314 0.6955222287855699 0.616433295772203
P 6.368523800627699 2.2493654675567987 7.6875610040192415 0.5986073233343755 -0.13740335248354402 -0.6733058405895307
P 5.588041177833697 9.186734579113324 0.2728434873249488 2.5679077942770485 -0.30932196513513827 -0.6382588762877266
P 1.612875403400328 5.249742707384899 0.7266450937687864 -0.04653850988117146 0.8390268090708453 -0.6312814165286289
P 2.3002671171763303 2.709534682673459 7.281851231313351 0.6400244528285817 0.025747541277749204 -0.6540181960045123
P 7.152031948000077 7.4617466816142795 3.9309361535522624 0.6890538474524068 -0.11937554844755568 0.6955052595047054
