# total energy = -340888.8234265782 ev
CRYSTAL
PRIMVEC
9.10826349505592 0.00000000000000 0.00000000000000

0.00000000000000 9.10826349505592 0.00000000000000

0.00000000000000 0.00000000000000 13.33086430239590

PRIMCOORD
 96 1
Ni 6.649979394626472 2.0599703463968093 11.26044742365368 0.701402598825747 0.36199769826229916 0.7485504601561431
Ni 4.70257807310583 0.39934542417494145 5.7890873060644505 0.08527063634404669 -0.5292546437721659 0.1885333383901398
Ni 2.6925392255658163 1.5680239427568206 4.521722577374287 1.464813006812858 -0.29027086204095814 0.22031911544216895
Ni 3.731728298726788 4.645004741425091 4.661336768167178 -1.1004799755491628 -0.313314374123983 0.28267248086841
Ni 4.033840280773682 2.5513429294552625 2.3956899979952913 -0.1832453505183231 -0.46497526496780567 0.9929471853728061
Ni 5.043773612539537 4.5830230103560465 2.340739846115859 0.5659476283178253 1.1216213855134682 0.05847562763838962
Ni 5.5758236990446255 4.7245380956785645 11.55509973814061 -2.1511029183668824 -0.5840911319960714 -0.3756068044053015
Ni 5.659264498210461 8.338560309084963 12.328316595975593 -0.03005182508005792 -0.32286987902290204 0.11968922303323258
Ni 1.69696051660155 6.998616385093745 0.05541376247626091 0.29753371425095854 -1.0179537347194727 0.34489292026121243
Ni 3.029790887034366 1.851919398405759 0.4378232820590231 1.0014418531073785 -0.9239958550140732 -2.263080117467838
Ni 8.2179486878041 9.07056409759721 6.465695548626835 -1.3242893635327775 1.3143757039634911 1.6784343985198773
Ni 8.843258281203521 2.758282669336038 1.3021418992365006 0.36124153682256493 -0.27020468741870235 -1.0553573721789116
Ni 7.192749906916758 0.7999641835451 4.456121222509969 -1.1889778605812558 -0.5162397195697368 0.7310124512723798
Ni 0.9742835896050561 7.6459770836978915 2.5299312243271057 -0.7020733996405263 -0.6910677925586421 0.9830206702877134
Ni 7.659511962811573 3.7391970745499497 3.7535717355305764 0.769626564100152 -0.1697077210432045 -0.7561894647586396
Ni 7.730474441394809 3.9818594226971156 12.535544156973454 1.2575532956578086 0.0005597291582119392 0.4353592418735857
Ni 8.419714934187855 7.116286037361339 9.189297595006446 -1.1303973319338856 0.5949872100832849 -1.8170507974749157
Ni 7.3603874910939435 0.7642944032052632 0.44063955704014696 -0.9743380549120509 0.7122166587221154 -1.1940686448406015
Ni 1.836362484861905 6.898106700693025 8.904363797352822 2.1445967418172485 -0.5190764176875834 1.492311983564075
Ni 0.24606792775726377 5.165751473300248 1.4191502915958487 -0.4966486848116866 -0.6328109657992779 -1.3073568494434968
Ni 6.355891792457878 1.8492688938148563 6.877459178847262 0.6052091449216093 0.6139007591583362 0.5799529414579818
Ni 3.375668073752349 4.470754558165447 0.05430164353966572 1.1376259884718407 0.5396827810840253 -0.12213537058087999
Ni 6.1892925502853755 5.327732826030868 4.4205407031494826 -0.9792714876579265 1.786833907571903 1.1268047294866206
Ni 5.50378644540391 2.988967651376548 9.414122320504733 0.08664540520438627 -0.21120378340446205 -1.1487650358077959
P 0.2570925695333065 5.73206684595989 12.465890535811912 -0.42286702294384587 -0.14521102145342088 0.35019942007579047
P 4.2359708576853965 6.291377964219519 12.438509274983145 -0.1289971306977198 0.22499183832748992 -0.21750350037024477
P 2.4607157106254336 8.59830975899341 1.430481881841697 1.6576030635968226 0.836796634188746 0.23455505653589284
P 6.396733244642094 7.639774356459388 5.761786197951834 -0.02022763990078452 0.7354581457485592 -1.0314502265440106
P 5.000773501977163 1.3901395624807846 12.498658423496554 0.1277141502202381 -1.44662245194676 1.9863965071930114
P 3.9650546770950017 6.328512353281751 8.16190099020919 0.9759362526371064 -0.16083690091613592 -0.08099077802177018
P 4.968648657674369 0.9114547900585074 3.7746072693886155 -0.13736735703928601 1.1378342478279049 -1.7103551584878738
P 0.13589710858138826 5.620545271351606 3.578256796302972 1.2860861129901786 0.32067081448905416 1.1570298469197493
Ni 0.5568673712433427 9.551744534136006 4.561594910354132 0.26876769786185967 -0.45006003841887005 -0.5956515831401612
Ni 1.960480787474375 6.315296263380033 4.939738119454493 -0.4951049944736506 1.1060461567830306 -1.6787614428419926
Ni 6.097235334133306 5.864746915979399 9.227357383609693 -0.2475537827884059 -0.5104681071932822 -0.6097363433680015
Ni 8.946099680983178 2.2181626616366557 9.97184586848878 0.10736258314707961 1.3511267954405957 0.11911792391079487
Ni 2.4846249015227504 5.205636557848571 7.025044921591899 -0.3669758682031809 -0.6954862333413118 -0.24108745833777187
Ni 0.9637088960310429 0.06297362093141247 8.892513036104633 -0.38846283443236324 0.20895072570422724 0.4484330443384083
Ni 1.4733344385402478 1.1953684622338436 11.310491864974143 0.5428413813176651 -0.3195171605005852 0.4778027557497771
Ni 4.108646446426886 7.017406732073236 1.2081045466649742 0.35891263157907216 0.2033171815675337 -0.34302655647643504
Ni 5.68536878053873 8.108631312889967 7.760922454442671 -0.05540573046381426 -0.1683540352287875 0.8083509772535433
Ni 5.128006830603684 2.882856385108457 4.6766140580308235 1.3249233975723504 -0.6799814528374934 0.2272317834016022
Ni 0.722702430133451 7.554694069917736 6.966855871318909 0.3479923851221426 -1.0269495104601798 -0.1347358329537099
Ni 5.0956907127737106 4.719965747552678 6.707957133193246 0.4389536440930634 0.9566398663013395 0.5931434720063269
Ni 0.5044948578492205 7.398851686583226 11.030050262730256 2.266695345622922 1.0732216540538422 1.3569246330692952
Ni 4.837289285818711 0.7377975547331169 10.30970322946006 0.20054553235966752 -1.4436394580590364 0.033441310377581114
Ni 8.382881117811188 7.419363495307325 4.989595841379377 0.1227660621863434 -1.4145353416042283 -2.4076622470880085
Ni 7.273157654437333 6.087434842931207 6.940687831148246 0.036418647838350186 0.653425556725836 1.0991987948438942
Ni 2.3694964546876713 5.580887893383257 2.225840927513394 0.5824762221004678 -1.0369685852590786 0.810977616243113
Ni 2.3920120813155443 5.465158301177046 11.3106776735434 0.1510055166480109 0.20905948336794963 0.2656029269806329
Ni 1.1421488803622166 3.419879583320187 3.887919528541819 -0.45494821974910676 0.9363543765794261 -1.045380720582174
Ni 1.7294587996955026 1.4447709251482534 2.310825577291456 -1.1097554873138178 -0.38455578606847324 1.0930052644386725
Ni 1.368270622540039 3.387499707647821 8.367050045545046 -0.35826497069274427 0.616315539247416 0.10083686621341988
Ni 3.972614535550153 2.795025403080714 7.058225413599455 -1.2288973224840125 -0.5760500068591499 0.048371706435168305
Ni 4.257193110939015 6.959095631073381 5.743443066695413 0.21570192838513172 -0.21814396216772106 -0.2537455134214146
Ni 0.836906388253834 0.2114310244641911 0.30233695614790873 -1.5004744647702095 1.0314661673836105 -0.6443392781538516
P 0.42815941480490766 5.504278291616655 8.108124893456106 -0.3562343134159607 -0.30635388364574984 -0.9281152764990855
P 8.710933433448771 1.6507998387091305 7.741632974639876 0.23600438738790971 0.8822668507064031 0.3782799803620905
P 2.0819941268119377 3.3207452466625127 10.63984224819653 -3.1154136709499185 1.016586936278933 -2.31171124821198
P 4.0690346097745325 6.315615052591998 3.4028362012222595 0.3696351602028989 -0.23450671979646065 0.6686937957388162
P 7.18943449911233 4.125287243291419 10.362706945493873 0.3599552139109736 0.017698188610711457 -1.0211771267527767
P 6.485857600044092 7.983802565747977 9.938438580727569 0.023443575734920917 -0.35275766772126993 0.9826455463364819
P 2.158986275632897 8.460911608636831 5.6167598771661105 0.18129619721175227 0.38546030016061356 -1.473239026093024
P 7.140568667049814 4.0642892046478645 1.5121329072889331 -0.6462922881151644 1.40975617504803 0.4009740795254965
Ni 5.542141341734805 3.235264196540106 0.3714058268120771 -0.5732832427472901 -1.0888986984694666 -0.8200538675127684
Ni 1.5554545395422312 1.444816466464248 6.851837634468539 0.6245296996270921 -0.670323103812123 -0.32335247508627535
Ni 7.390053104333014 0.7268093460098701 9.114497805137479 -1.625771778018839 -0.6835851110283517 -0.8271259438682013
Ni 2.905362903473131 1.7171353195872858 9.209440519070984 -0.39647284922103326 -0.5119158953834022 -0.22499440943065124
Ni 6.565673310456734 1.8786703674211567 2.420084659321114 -0.6401378384779943 1.0464004200959398 -0.4673165115064726
Ni 4.321178659911834 7.1568633499127845 10.341910958957968 0.017277041912892827 0.017956841588736817 0.0066092777864015205
Ni 8.194558667909124 7.722586685464494 -0.10294796645908615 0.41459449852240854 -1.3100171698844794 0.8002993105936603
Ni 7.902711698487479 3.914476491551078 8.244899127783555 0.025419982735001383 -0.22107193444779344 -0.19236556765203644
Ni 3.005444499503499 8.81154330874468 12.621621798335394 1.8557299592126684 -0.16456654316189723 -0.8977394924207055
Ni 0.17709013972508517 5.0532188814768775 10.358574526480496 -0.05048438190279692 -1.8802647111292392 -0.7657069173307716
Ni 8.515579404357096 2.483868915677235 5.65196604690912 0.5239306604560912 0.2934824269997203 0.6177327313099168
Ni 3.7509831671294274 2.7136703961874447 11.47608737654212 2.051848566149234 0.6878150899492993 0.4458714542588192
Ni 1.167305903317793 3.406290054627312 12.735333910243032 -0.5946126003526857 0.45400102534448905 -1.6708329320235353
Ni 3.233251270373132 8.501416055082686 7.3946300065905 -0.7212036927120741 -0.25933946256942436 2.0337785960214005
Ni 5.694777616423275 7.911810853423257 3.5408509809974102 0.964994408913622 -0.43353118752591147 0.21463183524940455
Ni 3.3544002791827356 8.41315698468459 3.5320924751052734 -1.3499741698933911 0.11803600370052575 0.2638430068667327
Ni 3.5950405928997284 4.336699140402892 9.294744868887332 -0.10146472960540591 0.788487405560397 -0.2789392390782228
Ni 7.449284139915966 6.3338771203059485 11.400381314484854 -0.9140418291251549 -0.07239172349884952 -0.5357399943861935
Ni 8.02860611242375 8.781677313715232 2.4577582575647257 -0.23239995786610299 0.22205332452445628 0.27919506384277076
Ni 4.838673741824956 0.2697694502536438 1.523504573892857 -0.39698552719139374 0.5546684558595801 -0.6554073630425551
Ni 6.291469046851508 5.798475192943637 0.21899543705094213 -0.35411006798410627 0.7794538346032189 0.8988471236625875
Ni 8.053061799113005 9.16491659607542 11.265393210570725 -0.045553777370398965 -0.7767739737782107 0.07303655617170003
Ni 9.147337648101393 5.132415229991989 5.868379291343151 0.7671043118989305 -1.1877622430065995 -0.35044213221421583
Ni 7.55003063915986 6.338176220535867 2.51564035936791 -1.0317173641624684 -0.33847133300558485 -0.25091215773767755
P 8.659116524109786 1.7791808084987226 3.104491396834463 0.4455413246129101 -1.1690618383836189 1.9607073299570232
P 2.035396252285967 3.468991338489075 1.336165816416282 -0.6834444716854293 0.683347541096249 2.688344436999267
P 4.62540375902089 0.97469346144901 8.093127227272667 1.0029294933964987 1.0407637906354528 -0.5020906817628643
P 8.638285926173726 1.8388945820312206 12.293282572407044 0.46008554097567217 0.2142916783011664 0.8831942476166789
P 6.36710406445582 7.829417504525304 1.1841170247041466 0.8606091632273114 -0.126632230009969 0.4686264885671477
P 2.167967023147089 3.260658034338856 5.732378348561295 0.2849180823694771 0.9843414459816661 1.3430604734926934
P 7.111221843022707 4.137638048189232 6.095257930192809 -0.7992431014150042 -1.3410637547776387 -0.8718343425191695
P 2.542999760364999 8.423576837784221 10.442239388921028 -1.1564372076410727 1.0189873181903095 -0.19883446320583179
