# total energy = -340860.53492824646 ev
CRYSTAL
PRIMVEC
9.41536519976202 0.00000000000000 0.00000000000000

0.00000000000000 9.41536519976202 0.00000000000000

0.00000000000000 0.00000000000000 13.78033868955219

PRIMCOORD
 96 1
Ni 6.910002553258513 5.919637931355397 9.432655747863581 0.11833168056407362 -0.7456924218820576 -1.8897464253674292
Ni 3.2538090417012553 4.716825005223375 6.4962443220344674 0.01380013910788591 0.5655840743308195 1.0944090867647345
Ni 7.76173533544055 7.483605442384268 0.17632248883731522 -1.4119986912253037 1.054394751155326 -0.6826242897769793
Ni 0.14495519910417365 3.911387574570036 1.8333505296555892 0.8329584913895783 0.2115899630992872 2.057417318486263
Ni 3.471200412749884 7.6810362388465965 8.798443327235754 -0.9326103361559617 -0.6788745929265598 0.9430556998590017
Ni 2.0185319357703806 7.217178848484011 4.05183281366155 -2.2431023887943304 0.03046345869617979 0.6228271151136886
Ni 8.927781259799222 4.126199135507038 9.088133405894423 0.0925640846816664 -0.2661174047232062 -0.6046170198635651
Ni 6.293917535579274 5.979227778787801 3.828674531323247 -1.5593686680032564 -0.5045738531960343 4.275963358097468
Ni 2.3527868218025763 2.1226187999456414 9.779699524679065 1.019546018907257 1.2053187638331242 0.9788511122910563
Ni 6.903392966768144 9.399378080496685 7.15440754909278 -0.1462947414359029 0.8173071580055666 0.8296507671725841
Ni 6.429715350323713 2.166908678650338 7.62213936230549 0.37342213804915686 0.9508975645009237 -0.10609117263382375
Ni 6.667010803766417 3.149637439237657 10.12190662830352 -0.5464157289324848 0.524488075621458 -0.9911250445624028
Ni 0.06943643653728726 2.0637727663775385 8.145572477052422 0.3910172254231008 -0.40893292936125697 -0.22345226175451194
Ni 5.554632462021854 7.3040261786651595 7.951517089075561 0.7907780013667866 0.4163701023655926 -0.41051441491576396
Ni 4.727624429303792 2.6818067646885533 5.413909469651899 0.350158539535526 -0.3697727142220277 1.04946003285787
Ni 8.480777373450541 2.1840069821638863 5.827030280640335 -0.379746794715604 0.3266630275167471 0.39335795774113547
Ni 3.3096798198121555 0.456744081824873 5.745436724336145 0.7532242114827286 1.6041567708522244 -0.6197628743660681
Ni 5.568849663731908 3.913524862509229 12.849173601612373 -0.009283996405087236 0.3190206804801409 0.1995533436497273
Ni 4.2650663593623905 6.727796402600926 13.707371915194603 -0.7665142437234154 -0.38494736507993704 -0.2433212327642971
Ni 2.69815183897243 6.998940094552002 11.048428482236197 -0.26939324726100056 -1.072885867980978 1.095171675962372
Ni 1.7420779777501187 0.45954703609578895 8.32269056426358 1.266398147642948 -1.5520304824706304 -0.6292785271659872
Ni 9.099564600991227 8.2347915377705 8.28839132975394 -0.706767462682086 0.21895180278099713 -1.7944042637199935
Ni 0.3861909829545975 7.098855951867955 1.3109276836129535 1.1536575880134068 0.16035944705908511 -0.2581945503317037
Ni 4.367063012425312 8.491021290974077 11.959377321845414 0.041738774499682954 0.2632454824920499 -0.43430354691556167
P 6.400151103059099 4.179320626929637 5.128284004223847 -2.741869919721233 -1.234338805214558 1.3387754729640942
P 2.5950159266996295 6.880400644532416 6.243912530094443 -0.8741519349087525 0.005861086766467325 0.02546729103316904
P 7.707088554827866 5.598319757342813 12.860721547239777 -1.579272348905719 0.2933232757140368 0.8937329423644738
P 8.216365667739655 5.498008454681283 7.613278561954939 0.10260912762249425 0.8153004119881829 -1.204330431777926
P 8.486059393423615 2.236121029491798 3.5798151261320084 -0.14541028194842054 0.40981764595905557 0.08556708453854295
P 8.767851863609174 0.01971389201358302 5.8152205878556185 -0.5888476728444504 -0.02437791462373221 0.5174725635355732
P 5.249866500331306 1.5439316135196026 2.824693408020741 1.1468405650915732 -0.5054557415803553 0.2577633763315561
P 3.918091314714114 0.007158502291492583 7.748560414677054 0.7439263311205704 1.1448415323836734 -0.13573907740724364
Ni 5.203957178782815 3.700455144165842 3.4125907048525908 -0.744725172872782 -0.03065243477853431 -0.6034751929496381
Ni 7.527123261128551 7.614441359578246 6.0056924877723175 -0.7719076468248448 -1.8880289284556901 -1.0672597800434522
Ni 5.989471696311337 1.3927961685859727 0.68682736539347 -1.5304530134101706 0.03963046990742852 -0.23037341435437744
Ni 6.703768390174398 7.0652430974938545 11.33470078326523 0.04831488505530389 1.221220265554729 3.0188936869442973
Ni 1.1879460642113782 6.029053892330585 8.152544555109571 0.21998950001689208 -0.3866792601693792 -0.22472701470187748
Ni 6.4961689991115 0.5342796156542055 11.3142647327277 1.5434321992786582 0.556601668326551 -1.0420107756686763
Ni 3.3910285766167005 0.9435514252790185 0.7493199699697211 -0.022477098056593547 0.94155289006123 -0.9478580063436515
Ni 1.3983606495201726 4.596167097995336 4.334605423382221 -1.4057722506996178 -0.3831043983339273 0.32325477316614654
Ni 0.23553948780103146 6.541296845334208 5.794508667112721 2.1054591523858384 0.7690750624720561 0.8147705076266419
Ni 7.507435732138006 4.907881599329605 1.1442051013078045 1.4308572186927033 1.4282244090555467 -2.1536179714792523
Ni 0.026135171196534412 6.9653931477354964 12.266031064292825 1.85792413865051 -0.9159231053082677 1.9669240002906963
Ni 1.3788990892985293 4.86645399169766 10.575748894521082 0.5872687583931047 -0.43401095537580736 -0.4253723058642029
Ni 5.550753331489045 5.923686538464883 1.858567702728461 -2.474719702858138 1.2169396359015041 -1.757365208688825
Ni 7.682269651710183 2.875283107695105 12.466424876237374 -0.023106504110476333 -0.13690764379404807 -1.3247732451477312
Ni 3.8986391698578418 8.41238415939635 3.793410221863092 1.6836629939086682 0.14250313560395458 -0.4390456895862374
Ni 0.6182223056184328 3.987218927267236 6.9553365959828435 1.1564487776052987 8.921727969662053e-05 -1.1656103894999088
Ni 8.214539086857704 4.910753285767728 5.417836618548099 1.3548566947966731 -0.016469201299616796 1.5745304633453592
Ni 7.401729425118952 0.6002220101023531 2.6066062414712032 0.8236133027292525 -0.982292276762121 -1.5577524725560719
Ni 1.131755163677868 2.645049178280573 12.078163454437718 0.06718549670756171 -0.17911770150319475 -1.432013443784334
Ni 1.107482351751697 1.7738171744154108 4.3573849583605675 0.6171516619954662 0.9853660305914386 0.6931573280978192
Ni 4.270348379335463 4.985012272447989 8.900224368431683 0.9372131250352955 0.5995254642732707 0.9958527890553751
Ni 7.963817322396101 0.8432956732731759 9.304016435410635 -2.0700506909795573 -0.0627364597972726 -0.2944905565492606
Ni 4.6326798849036726 1.5096408528387977 12.512134592040004 -0.6471057851553952 0.6932645430996447 -0.8292460755349977
Ni 2.966856951292444 4.608595380284919 12.648284541449314 -0.7559994602350206 1.232793572214625 -0.5325531120177796
P 6.976418540584817 8.29979522029117 9.4584529074433 -0.8870899831266594 0.3089872075035388 -1.3028831299428594
P 2.09634993056084 2.6483728022564996 2.055999440727326 1.1006596956601369 1.3328177127187626 1.651171963259498
P 2.014775204987393 6.833832247407961 13.339588913076646 0.40167136270283726 -1.0165157167213654 -0.35100726068906646
P 9.336361040069274 6.013678600679911 3.138830482864942 0.24772656092084433 -1.0652512342538558 0.7866863477959161
P 2.5443424302734647 0.7419392650554754 12.041824851788743 0.8031504068892104 1.4233411128213165 -1.3060479008240862
P 2.478208903908288 3.990194182724439 8.631811132438166 -2.063915781726413 -0.2528818798695387 -0.10993291497741713
P 8.593752342535929 2.5543792097588405 10.544770459377759 2.3881717424635642 -0.8091305357320452 0.7124349453805086
P 3.3814154885730154 6.670795780645518 2.4517564348987544 2.5301657996415843 0.9637304545995337 -0.5658555828246513
Ni 3.7282398873753575 3.3425582756873258 0.5661270890212627 0.193274452619551 -0.455578397133938 0.7431274893683589
Ni 8.450921249859428 5.138247343859329 11.05298928522186 0.11449379487522217 -0.6826494865879598 -0.1948785638818773
Ni 9.088397977661346 8.133293899072237 3.9661878256382646 0.3747308295582514 0.9855100123684705 0.609465091984486
Ni 7.554465482165635 7.222140746034474 2.5060369577985093 0.25745201573872434 0.8986892579284844 -1.0615123360367138
Ni 1.3241204935706539 0.1772988622262772 2.7484063516395896 -2.9835111936799454 -2.054465692057107 -1.4337517666316792
Ni 8.702123197954947 8.135836047722378 10.64068196180147 0.7661440048681902 1.1112981492105893 -0.7209270420119198
Ni 7.926956166969041 2.471740547898482 0.8230752346026387 0.9284268942022332 -0.14111422567622794 1.6523467002938896
Ni 5.072170309686377 1.0658005292547381 9.504024217374978 0.3027234859820141 -0.8601448219963832 0.2148478079149526
Ni 3.21867089813707 1.0193074550532515 3.0374627762087965 1.9928754300491358 2.2607085319118676 1.438690084473561
Ni 2.7399183997577263 8.283450146007294 1.2442527737389502 0.5834712390238854 -1.5367450170664696 1.265512402603885
Ni 3.5048132671239847 5.378084945952175 4.090004587948239 1.5553340929225665 -0.9735240436511877 0.17164247617207212
Ni 1.4700774875502907 9.038788417522092 13.370414819300962 -1.1225978904941245 -0.8355339654262385 0.10534760959957987
Ni 2.248398665935447 5.0915471316196825 1.836037674932443 -0.7215916721791121 -1.1851237769424878 -0.7161848993412441
Ni 0.8922301517153362 2.0827070661384113 0.5749709417141458 -0.3507267533341702 -1.258634187426813 -1.9815111540762518
Ni 9.397043069884703 4.413951531972376 13.328082395056873 1.3903178638177605 0.15087387616615305 0.047193112746034854
Ni 7.633884089069147 4.344390812612193 3.2906212372283865 1.7810509823415392 -2.0660251147599324 -0.6322157554174402
Ni 5.994047563881592 4.677779485030266 7.368415979363647 0.8789964074852474 -0.03886736648915887 -1.2072216372827917
Ni 9.020136578722346 0.6490425626235254 12.610980863849823 -1.4714271696952659 0.06591048664988004 0.13635717060721678
Ni 6.58407085021419 1.0022185669050745 4.63749772736396 -0.7496210675125026 -0.4115695956531557 1.5237205797823434
Ni 5.327590341468057 8.511885740635984 1.383063505402077 0.24268128518745302 -0.15046995585951503 -0.2358704329132067
Ni 0.5836076563688691 0.6599370818941898 10.289282636965408 0.836596859473114 0.24333588805231643 1.645192862857928
Ni 4.077945387981194 2.328071487703973 7.928462625428383 -1.3568259027079022 1.0091718747617846 -1.4895092240079575
Ni 4.667479075314506 6.904456903055055 5.505080335611363 0.7018211744204043 0.15962848243033154 1.210353240933238
Ni 1.3413411968340234 8.921943733269266 6.246999828399559 -0.40820607849756146 -1.568467544980731 -0.6147448523261865
P 9.122415692746394 0.3594136838397679 1.1842317025725595 -0.6388671992956868 -0.8305889627161372 -0.49222664448459097
P 4.648780159687905 2.9590798594960837 10.642418155175863 -1.210314931496135 -0.2337950384414167 0.6678905831112304
P 5.754435930557649 3.880401607134415 1.3988285931791058 -0.7077149141970199 -1.8323264926870635 -1.8375795135558868
P 4.925394178919473 6.439140131059981 10.486493113878058 -2.5547956823751226 0.41479787278246627 -0.664093063742011
P 6.203774827518311 8.968615699412801 13.056774875748344 -0.45645771441509775 -1.0425627915174045 2.2226626328827397
P 6.214348282829828 8.032201121084922 4.156204963407548 -0.11399628641351336 2.0528314988877936 0.1062140713649332
P 2.576147534496353 2.911560510469169 5.649842519725434 -0.820309178056684 -0.9062467585607683 -0.6898292921658508
P 1.354212001296039 7.72319824497747 9.480473563972753 -0.030950682745243468 0.8257619736411391 0.9060960919155169
