# total energy = -340893.69578146085 ev
CRYSTAL
PRIMVEC
9.07820676055473 0.00000000000000 0.00000000000000
0.00000000000000 9.07820676055473 0.00000000000000
0.00000000000000 0.00000000000000 13.28687323327661
PRIMCOORD
 96 1
Ni 6.391983326814436 1.9036091131678634 11.038892983381436 1.312855667774539 0.452297412389821 1.9330934248944964
Ni 4.366317727755295 0.7772197524580611 6.013465692710011 0.19355830240855698 -1.6160496656350682 1.2307498023117192
Ni 2.7418816197290123 1.751839657524102 4.706170372714347 -0.6487991136974182 -0.4325230579763712 -0.5575010402123688
Ni 3.665053513129524 4.4421116735125485 5.221953211997043 -0.16653086597711964 0.3363699703918659 -1.04291374709892
Ni 5.01864133134054 4.646316849684983 2.688638846645803 0.19922372822445045 -0.2455213257394094 0.4644685005347162
Ni 7.275129407920812 6.109932530224172 2.6827661548850688 0.08320192674047605 0.6401818043420523 0.17116450809438907
Ni 5.024932528419205 4.219668380556508 11.360462120524566 0.7503466328246174 0.6733333513933566 0.7584607772913196
Ni 5.416902248860088 7.728767384862956 12.62893358276176 -0.11226439132407118 -0.06914467731646157 0.17559580439286535
Ni 1.868222264376179 6.60993290757143 0.49057810685959985 0.4403692934936674 -0.5160252895660855 -0.4570097302638258
Ni 2.81001355923173 1.5426142331777823 0.500446117284577 -0.6628085406026327 1.1871765457064585 0.269589936652839
Ni 0.615683962301705 -0.06332684482199945 4.510016657853698 -0.8498532102623879 0.16757190564712432 0.43636428609933237
Ni 8.475576961312196 2.1565007105998686 1.254079781531844 0.1944319632627619 0.543771092220786 0.5598515427224164
Ni 6.465961631279145 0.8458873061420791 4.9463842548211625 2.0175235676151186 -1.2089568748063437 -0.851888752635178
Ni 0.768343082178813 7.296790008540863 2.5500164496013533 -0.417292614179862 0.9508101469934398 -0.09928803366906126
Ni 7.567901566343549 4.101769713225156 3.911442391272282 0.6302437192927338 -1.1176873405663847 0.20013518429512628
Ni 7.72224015441626 3.8810966705293466 12.710514885138998 -0.8579205606515548 -0.02580179155445234 -0.39402901566623105
Ni 7.9280703295455215 8.891885353279633 6.767854663734977 0.023996105804281253 0.4001747235526527 0.5520130205146041
Ni 7.0132866989165645 0.39925044202398524 0.27895785164841463 -0.5850151864722377 0.7812044987457385 -0.7489944896720971
Ni 2.043486118345461 6.561092156801993 9.347607686425619 -0.5974580402212808 -0.42666248543053614 -0.6397331468404079
Ni -0.06785051510237308 4.7023656963858205 1.439220724132566 0.34766482657939474 0.04999021587519778 0.1781476242804416
Ni 6.739660477923706 2.2141927126704575 7.127583133923508 -2.2533577479737517 -1.1006095591484917 -0.4787589490154594
Ni 3.3442750877692946 4.126553216868384 0.6998434753143554 0.18723236019052916 0.5763405415163751 -1.6802066599289516
Ni 5.95068263245513 5.724117833765014 4.957637599552351 -0.15205169852433814 0.44081178034772467 -0.191132980796516
Ni 5.381851293707525 3.080417016930323 9.221475085832578 0.5842333140008906 -0.6839270677488029 -0.9951017698219639
P 0.313556712119135 5.438154330189317 12.647907034268849 -0.012348751373340024 0.23399969825305508 -0.6853655999675422
P 4.249880651664442 5.815290261270115 12.71881872059045 -0.207994532438545 0.2593482043201727 0.4278449357744115
P 2.3430760098217007 8.593103422178576 1.2294923671482119 0.40362283000225324 -0.644623899273806 0.32735208316397174
P 6.135333351906864 7.909550788361573 5.88992492006208 0.20944643439372315 -0.25502103769972856 -0.4129369083143275
P 4.985288000796505 1.1329601665475195 12.550181957338955 0.5331277535743271 -1.2437755251474256 1.6689156603961646
P 3.9990770417188624 6.195739737709807 8.367899446637221 0.28384824634406597 0.5219367699545141 -0.48937837640251847
P 4.644210705785632 1.1748379329600491 3.7676917153970417 -0.43774471138662674 -1.3997260445055377 -0.44842250281544704
P 9.333122500193701 5.49963194435486 3.5227880318315843 -0.2625304587028963 0.24599492294171826 1.5980550288298607
Ni 1.2879705418984722 0.9287549903750844 2.4487445174064746 -0.10827841009312965 1.4236074791088256 0.020380877649197156
Ni 1.821769081906438 6.579275804346822 4.853442484876476 0.6948164609677969 -0.9783451191889152 -1.3447658862195744
Ni 6.091930446808598 5.667415356198861 9.3041194461866 0.26732556609869446 0.038947327797474854 0.6723637883912357
Ni 8.633474206318294 2.4142128356635784 10.036638110022226 0.35932015143013596 -0.6703657841246004 0.13979165021006246
Ni 2.3286779743718258 5.422975568983648 7.0605641825331205 0.03675443391121412 -0.36349536585374814 0.21981517922255692
Ni 0.5214630730664213 0.17847935469837775 8.970034185793317 -0.007694026210148039 -0.6326495005207492 0.09161534761515189
Ni 1.255497797381321 1.1900802416109568 11.348756681111535 0.2228421389743388 -0.6301915258985598 -0.5078607514774222
Ni 4.169293412894872 6.757798734436221 1.6122685879042982 -0.3827483005460892 0.5198703743437885 -0.2337104491474104
Ni 5.6377750120980785 7.742511789447515 8.030798406057022 -0.1288883730339974 0.45029169481370196 0.4198521473769221
Ni 5.452788399007223 2.933386385060102 4.8920802394024605 -0.4867036577838328 1.178547666386867 0.19632840895452638
Ni 0.6836325220338754 7.349007852114432 6.701512946546708 -0.014367838685897836 0.9101728330880519 1.2277521531359759
Ni 5.186388430358689 4.721439008163996 7.1772363841713585 0.1417911971385945 -0.14278621406201217 0.21625728666796948
Ni 8.291198588054343 7.261357768716866 9.287138660998083 -0.20350950008399793 -0.4957068897237075 0.06002291752085147
Ni 4.647251904950643 0.394444439522621 10.45772526987164 -0.4709188841457503 -1.1168594453484506 -0.9162907730603317
Ni 8.075346072990236 7.245906661317315 4.817780566428971 -0.24635899114935636 -0.1439630079789327 -0.6817696550861678
Ni 7.583134796787994 6.368652336205244 7.082554322047768 -1.196126812921211 -0.7375286551243427 0.1808367410768305
Ni 2.2854657116092763 5.064486273977278 2.519629876929335 -0.4059635623202879 1.1052797109306514 1.535342223181672
Ni 2.582023482126967 5.191944292713875 11.57651980305473 -1.0846401803034287 -0.6740200930477359 0.18453990096003056
Ni 1.048977678560892 3.2493442827886265 3.8858790696939076 -0.853502376979201 0.50962812779049 -0.3244112553680929
Ni 3.611519329618861 2.7430254737433155 2.64718321683379 -0.17338079901941753 -0.339469435252796 -0.09849921921917874
Ni 1.3330529151923423 3.4593322764778143 8.19079907150053 -0.7576192552266307 0.018933860790025455 0.12689988184905887
Ni 3.6020689166911692 2.8498214945707594 7.094658294724513 1.099102635585662 0.4124234590130188 0.7443760170634793
Ni 4.0262118008359336 6.925037453892459 6.191403986303212 0.48004810014052807 0.7386810235612311 -0.7125622149869922
Ni 1.0901473448693295 7.141153236943984 11.485145839366156 -1.043296070139003 0.5011308889527564 0.48828925710339777
P 0.4257342937376798 5.678100405205483 8.135286746801642 -0.9409628218857149 -0.30167910387789976 -0.07267891572196516
P 8.701451816311145 1.6969618994569566 7.84619035417566 -0.20087309090241537 0.19839531878588415 1.5124627474803372
P 1.8919526960697304 3.2585586623482876 10.596227834590781 -0.6442166365330584 0.06833246582781136 -1.3903137500527023
P 3.8377754692892445 6.146399685584921 3.8752630150564022 0.2455588638455642 0.7877561838213272 -0.4334813081245825
P 7.070769902238511 3.966350107420755 10.454191124095702 -0.2439958902338185 0.9949207641594092 -0.3885708207651372
P 6.19504979401864 7.723883309786013 10.588415130108965 1.3267823051579604 0.1803330619675346 -1.7899336295431496
P 2.264785557287199 8.576136254299751 5.744380390589806 1.59001981723021 -0.06330621625781356 0.6662070247612204
P 6.944147078496485 3.8947502930492783 1.7356241651403905 -0.022449844363083917 0.04999150142677842 -0.236142969848303
Ni 5.350213744184943 2.964061644697634 0.5077695064380536 0.15485574363203652 -0.5432008215396129 -0.7569746796640964
Ni 1.7468194093502176 1.233147253070103 6.89421240384829 -0.5926572763985277 0.09110061276226246 0.4514265797490935
Ni 6.879764438262871 0.5613626982907242 9.136332403060017 0.04663698313224872 -0.4585181964885522 -0.2599518993424426
Ni 2.764250320453156 1.724359926561447 9.151771708791165 -0.014887715745109845 -0.6279119858357638 1.053453213177663
Ni 6.261602125596844 2.0312305396207884 2.6061932990133143 0.9380482193420813 -0.348083145063736 0.2826984490103389
Ni 4.155131410813028 6.9012525529601305 10.505372236491228 0.09281553857084016 0.030260341546438203 0.4930617387913767
Ni 8.179255224162537 7.075399787534499 0.479830418228385 0.8377541130060088 0.016431406083145896 -0.0950714244845524
Ni 7.886936976062936 3.8955128623921467 8.217678733016001 0.09237382304773123 1.3404011814929755 -0.1705520713213708
Ni 3.126234724947673 8.745853324120311 12.375765100032645 -0.5307289143248473 -0.5321329937612255 -0.5933743570702104
Ni 9.2496937828013 4.751714826717168 10.136794330642838 0.3504961253806028 0.9332207160464508 1.1721376490954651
Ni 8.841265274043504 2.172605448864735 5.834478866270367 0.01823889160552988 1.0331692661176464 -1.8200217071777818
Ni 3.5638859803089664 2.3172575906417237 11.605179700857539 -0.47844244621630505 1.0729802274669973 -0.4076664039440076
Ni 1.0252200122479525 3.1858149939625084 12.665565053659485 0.4942989536325874 0.9858378280215344 0.6753372691972627
Ni 3.1455077572680294 8.580366698511378 7.960710113061587 -0.009865837050486234 -0.41572861212685175 0.6414514150830953
Ni 5.4715530517656665 7.747795305608818 3.5918804455780577 0.12345151828914223 0.6965820375086519 0.12382741357132222
Ni 2.925379406959982 8.399755780935555 3.5386930495542708 0.9139788370977034 0.12326305642741997 -0.29182098013689745
Ni 3.5021541763624673 4.333572637044262 9.378592512903529 -0.9410924054850436 0.2494162899184414 -0.2922804362718192
Ni 7.424965205588014 6.111239791954804 11.600901142151658 -0.13081824306685857 -0.6217313109463487 -0.5818285612141398
Ni 0.4123176124064251 9.086376848536956 0.058317490495870275 0.6562234311859472 -0.10076076155984581 0.606450216417562
Ni 4.683065429446077 0.2893242556081952 1.4104019577166598 -0.05288347826259279 -0.33454577269893354 0.44996310782968957
Ni 6.105992588619351 5.525441285328375 0.6272205470745301 -0.2544636225343617 0.30530564488689355 -1.585247592652547
Ni 8.114028310727889 8.524027349203735 11.35553265441531 -0.2727634492848141 1.2224487386451914 0.06525434112311987
Ni 0.10363226587518597 4.967912313626858 5.888476038310629 -0.18574806233551883 -0.9753171309958686 -0.594343405851699
Ni 7.791343462010488 8.935006833977555 2.602592882330199 0.3807667513396862 -0.2818255594870824 0.1635807822098602
P 8.513006406557993 1.6722510214654314 3.640297244105685 -1.1824634565015055 -0.45265556706018817 0.09090957979737892
P 1.5739522018870937 3.1515356863592756 1.7130103528417537 0.6896305458914832 -1.2903767699457325 -1.1187980571320604
P 4.735891512852646 1.2024175241937942 8.243095895470326 0.7520031945914339 -0.596508788934134 -0.25568875319071455
P 8.380673390950916 1.7990190965108606 12.31845892173672 0.005607318884448407 -1.8888115722579857 -0.28150160048876033
P 6.3217452434123675 7.722094903112857 1.3819145458366429 -0.3912008021888166 -0.4847380494170297 1.3116256520221798
P 1.9077033842825504 3.3913274318655753 5.937358548829794 -1.1628145719223264 0.23365799864292017 0.3044214425097273
P 6.962303491421926 4.1136167726590065 6.058175859538911 0.8458754565615626 0.29816054920168006 0.4354001224138502
P 2.127414137093312 8.533414214686188 10.198405394443382 1.7889522394664867 1.0484758145677298 0.4328408463271062
