# total energy = -381175.07772309514 ev
CRYSTAL
PRIMVEC
9.20955186854835 0.00000000000000 0.00000000000000
0.00000000000000 9.20955186854835 0.00000000000000
0.00000000000000 0.00000000000000 13.47911007538925
PRIMCOORD
 96 1
Ni 6.498269065524387 2.4333109780408355 1.8608857508527963 -0.3582791117601314 -0.38342450067750744 0.4084791296532901
Ni 7.210821309453587 4.650519819573177 1.4903449538727263 -0.8976183934618089 0.05568443804649764 0.40094116940503205
Ni 6.566005320117184 5.578713722413367 10.864041511218801 -1.411639251003356 0.2626209615341735 -1.5242965068904715
Ni 9.305423385874589 6.92246102834481 10.548158484107226 1.238537416676938 1.0313669228015852 -1.2262591135302172
Ni 7.878808531496378 0.18169340851262616 9.793584896540228 -0.1289793900859069 -1.7409836820070081 1.0147365133337556
Ni 0.8489411035338255 7.8939858731101 1.0748191794373232 -1.1681274994948077 1.390459017381315 0.04770630493702752
Ni 7.300218430232959 6.232324833862091 13.094753397820341 1.2454431426578356 0.3088360266376552 -0.2394499227343489
Ni 6.199170446841823 7.4541284624226 1.7424849881170557 0.15502389377878464 0.1537051749673611 -1.3046024266268113
Ni 3.077657280227785 6.972303123498612 11.619949562863365 0.5724679459348464 -1.0782877557228396 -0.18125685933338462
Ni 4.893513847775888 8.135653725832 10.589863019157944 -0.09548820030699684 0.5745489968335911 0.32055280085395116
Ni 0.9520834805986828 0.8069114712992712 10.484900834627751 0.49174224864900473 0.3651179890588357 -0.26545663121075574
Ni 4.854612700338774 0.3092908298257108 1.0143418936915751 1.0552092766368213 0.10895255334201881 -0.34748484935810475
Ni 0.07771756699628714 3.188346885115728 1.792978198593728 -0.37307761022554453 -0.19485748083595475 -1.056765822490664
Ni 4.354386676618537 6.750472645677172 7.271130981353844 0.6187552590371601 -1.9311252454245322 -1.4905217244328717
Ni 5.550302254647387 4.713264497009034 7.937511136581346 -0.6592863863819871 0.22036256708559468 0.01917940114192826
Ni 7.645668723880245 8.701737255547219 7.580920968895248 0.6671213090453736 -0.6055991812711764 -1.2403166200645477
Ni 6.517701220139044 3.550751963903102 11.899938361249525 0.005576465646512977 0.7171567763362101 0.7101651755097254
Ni 1.7241202205734125 8.618482905918546 12.241970069212945 -0.0927188650919758 1.5459567654727244 1.079734001251063
Ni 4.272495340678477 0.682457270066747 12.230715075774759 0.04704578853489317 -0.722820916600523 0.06983013341926038
Ni 5.755822615965246 0.5374786613582871 6.517648725692928 -0.5979696897503767 -2.000231613303891 0.24713752118659374
Ni 2.4957793689181895 4.909197714746864 13.14273884730101 0.5330480493763271 -0.4031852282442024 0.9749096111448049
Ni 0.27865249239820356 6.831737732084628 4.1832013668809465 -0.6684860506033843 -1.01224177193636 -0.43477662989723836
Ni 4.109283661019259 2.855384743912741 5.632394358819959 -0.682026251181664 -0.32360135787228783 0.15027532335020571
Ni 1.4428328753622928 5.4948607519079395 5.857603821251882 1.353360569867121 -1.0611819492804886 0.36435874229530796
P 5.716930678080082 2.0775183575536142 13.218370450780604 -0.24884961878169398 -0.9687003970102994 0.544198666676508
Ni 0.8159663027765843 4.358300736197319 8.533058785850438 0.5192270843328348 0.21462206505739165 -0.32306708263537265
P 8.264320376126488 1.3417856713660774 6.296348718063813 0.1920801752011337 -0.38169080581585235 -0.4878387998295405
Ni 9.288385714766951 0.32080921644966875 3.093401930241632 -1.5841322481011815 -0.10886102206947702 -0.5863717005001321
P 3.4058488735206334 4.598329288672106 6.668762737910527 -0.10608037400054635 0.7512506326961255 0.5525300693603388
P 1.5900107250764304 1.6815260428043188 4.134649529955349 0.25943073673165 0.41407205036003525 0.6303236806010499
P 2.0340308532453633 8.140092729871935 10.116840169987837 1.1691122320055802 -0.10347610360847985 -0.18988959530771812
Ni 5.38822334987803 7.953737446162181 4.580255542970085 0.23262132984828968 0.4763066308202249 1.4041054045201562
Ni 3.1803345749191636 1.9348900265028135 0.29458962204780714 -0.8705891572581587 0.08936100436333642 0.4574612159789477
Ni 4.061108494768421 8.305772569453772 2.804355537512574 -0.6069986327218643 -0.3303348199413795 -0.07709504251178981
Ni 1.0282556847777473 8.574378361629641 8.294437452913622 -1.0001915256400453 0.6198598049552485 -0.4028748960926352
Ni 7.671363373820953 4.123807124444526 8.915204539242795 -0.5423179047140273 -0.9997246133059556 -0.16585646561791437
Ni 7.799836623524491 8.762658441696958 4.979803665727304 0.35525369467024626 -0.09112632379387532 1.0382669923555279
Ni 7.432974121593279 0.2460543623157205 0.8129842498551503 0.901805434959963 -0.2682712178414154 0.7675514267386782
Ni 8.327212406393546 6.411321685563736 8.603365426392498 0.11939945970695567 -0.1597287554536217 -0.2920287252723293
Ni 1.2575182710228974 3.0175004868898996 6.231662667076881 0.1102537886519456 0.2133100311141875 -0.9532305835094745
Ni 0.8744451157491663 6.275425536988439 12.445949672489556 -0.6503841987963509 0.19502383121048994 2.266951941718418
Ni 2.310400297715143 4.808601778796203 10.788046130437179 -0.944549767906025 0.24140987467419714 -0.9438756246571358
Ni 2.8815582905548522 1.4965798205429266 7.375647423569652 0.18201070678027362 -0.772955628473385 0.2595549210143401
Ni 3.504170050139627 6.532979866824217 4.579729677553736 -0.27203119910447987 -0.7361993947899579 -0.3614271704708098
Ni 2.3762209655023248 6.398769066255785 2.3400817626950383 0.14047042144464197 -1.0089654151779333 0.29314586959590805
Ni 1.106159284723426 0.5210184291579193 6.129099570829683 -0.6983851521556618 -0.15327554362911022 -1.1675993949054795
Ni 4.198791296422032 3.5871757418656465 3.359371948649388 -0.18126380131192008 2.3320111361115963 0.07146561214015434
Ni 7.093896837895443 6.5499162328604035 3.902525535919311 0.32613363737583834 -0.7259175532479757 -0.16950254701093387
Ni 9.212038529100836 5.816762221218887 1.7804016344507068 0.41328554990299793 -0.31883144728747026 0.21300715516178798
Ni 4.711892273768472 3.8703326261226314 0.722720510237277 0.20264535231148972 -1.6749875776218572 2.3368970034489887
Ni 6.65733644680607 0.25503091260145794 3.0294701415594107 -0.7795870177469735 -0.03421058444343786 0.08226167431439381
Ni 3.4956051668260573 0.4715207712470499 5.301603829966801 0.48186587007555726 0.29444453380267355 -1.3849995369286405
Ni 3.056364796119213 7.846308022664565 0.5536386621650825 1.0681159573961605 0.6616183769492735 -0.5393235979723937
Ni 7.41445371262168 1.7513897038975828 8.224817844947035 -0.9125014812212284 0.9081033521535328 0.6455811209807527
Ni 6.524166325607996 0.001720344304273882 12.152819764425836 -1.2844400927463233 0.2012926949383372 -0.30081007100938517
Ni 8.548923160039633 4.625331694989724 4.614600725057497 -1.050823745974616 -0.2306094416245835 0.8753719233587828
P 6.361258561163131 4.1824167130548 3.783424847235365 2.0363772099865125 -1.8185080987467328 -2.299393864297208
Ni 3.238290285340981 3.36577811298586 8.673470377746854 -0.2656903444881166 1.3464820975797325 0.9916994290086342
P 3.9977651964558096 5.940704371362989 0.868967274249262 0.55028523919022 0.5220280441167396 0.1726287513447414
Ni 0.48543732519880717 1.7773974786045925 8.21859126687359 0.9848667223575168 0.24899642877220338 0.42844503125225564
P 0.6661471535631655 1.217419881832274 0.5477629680209352 -0.1721099027267939 -0.2403132991759087 -0.6561200728388636
P 8.552404370676763 4.996485848129669 6.9395309328842725 -0.449456086286284 -1.0241560068754427 -0.673918277362549
P 5.4755022737088845 0.37478179565307923 8.890565303955567 0.24050638902332128 -0.1337485293397761 -0.7304853751243161
Ni 5.18877208329527 2.322575325393142 7.717249045457003 -0.7210301432486873 0.5364041103327537 1.2324264186831935
Ni 7.015984028397815 3.125860075134474 6.294852165871926 0.961683342262518 2.4489989010532662 0.8557433504945778
Ni 1.811178115157465 8.281404094993876 3.832730946465673 2.2993799803401367 0.6066952425488326 0.8422561146414204
Ni 6.295741808590304 7.30657302107851 8.98706206833325 -1.1103247295537266 -0.04920320119752817 -1.7828096169038588
Ni 8.653166078562526 8.759517984481985 12.36010099207655 1.2864555805144555 -0.35052800705980275 -0.25357350661992456
Ni 1.4076247582571588 4.320200819779862 3.6151783055250424 0.5178906249095984 -0.2253962728547602 0.3448273571305997
Ni 6.7073995712066745 6.486020361430788 6.32383278394842 1.1444941763465837 0.9257961414476057 1.2447841689175982
Ni 3.5485508809870345 8.473091709282723 8.35553822532639 -0.1255618797639257 0.8629306122716365 0.34523230587850223
Ni 8.28191062035113 2.185417468200685 10.760023305763493 0.5720352292728019 1.1572846432430328 -0.20316342959848882
Ni 3.599912552212599 0.8996488965709346 10.09922321806254 -1.0717553539209606 0.981714035661148 -0.7992410445324751
Ni 5.21360103535267 7.148104260673581 12.721826405930008 -0.08922807832989794 2.148551869810255 1.4140748570280421
Ni 4.188209521231396 6.0034398392468935 9.670493708996315 0.42218336661326 -0.8380888706376083 -0.07591927703613376
Ni 4.271546756827618 1.5498847072299566 2.9489464240839363 0.10722914289300889 -2.090592005466019 0.3342377545402115
Ni 4.756448086102931 5.044283422750554 12.393893601046956 -0.5177021630478761 0.4751807447458977 -2.5048990546549956
Ni 8.012770674162159 2.313052648676765 -0.34371060928391856 0.5547389040861995 -0.4180351487728413 1.1448281626472347
Ni 1.078880591847306 3.0044689708805445 12.468863958696536 0.37175734875222427 -0.5083502895193309 -0.03778698894078653
Ni 2.5458424933187933 7.761340696373179 6.1617059895089215 -1.6085217326891394 0.13137848644570277 1.3499520584062041
Ni 3.5994520746150953 3.0812674245922143 11.667773845184906 0.25094429652719363 -0.9092282097865954 -0.5972415533351004
Ni 2.0976228094606264 0.7180678445920993 2.1499183292539286 1.2587578574888707 0.5910500798124079 -0.8007507963087821
Ni 2.04475077171525 6.490275174431723 8.513959096061177 0.006368108309872904 -0.7965480710813443 -0.08658858382452185
Ni 8.325784925841283 2.267916634569451 3.6812255282901956 -0.5521785995581909 0.7906486748777738 1.193053830422842
Ni 5.333067343249035 5.033342475033866 5.259710499101107 -1.7260031494377757 0.6073272197058766 1.53286316551356
Ni 5.082116262161459 5.780900225925299 2.773232777652493 -0.9485498902043533 -0.4002202320786075 0.06189365218100309
Ni 5.947390506078742 1.8805444604454247 10.472985516314745 -0.79137681129305 -1.0057942165388034 -1.0075939887517034
Ni 8.607495910442108 4.602795921367892 11.212261117137476 1.521923635782921 -0.3639262827435797 -0.9794203545309649
P 8.840423898363387 4.584247883740442 -0.18666104083449625 -0.00030056195955432106 -0.22747886641540177 1.760388311785865
Ni 6.114341263829689 1.8685904620142284 4.763315648992102 -0.5735226124516059 -0.3381761703626692 -2.6447110165800325
P 1.193898686151784 3.0045426472961445 10.159232658569223 -0.016245772434901055 -0.4212911938162938 0.1423295861405678
Ni 2.335302926188145 3.6304422169270953 1.626147165018132 0.6209016159562016 0.09654312393407244 0.11834685007272522
P 8.218272616376117 7.764296962549153 2.455436005645694 -0.07094650641189072 -0.19432680514346531 -0.3361575972707436
P 5.114672028304972 3.8956404748814353 10.161605039151564 -0.45625845392009806 0.8090726859109164 -1.0193606423693282
P 7.31527604767133 7.502865411342394 10.82050427533002 -0.25541107404929564 1.487627176493896 1.8761589164909818
Ni 9.20513136513828 7.042093108176275 6.577388326327476 0.023174895454566538 1.7571523213470703 -0.4867373392352456
