# total energy = -340862.908311814 ev
CRYSTAL
PRIMVEC
9.32783883753019 0.00000000000000 0.00000000000000

0.00000000000000 9.32783883753019 0.00000000000000

0.00000000000000 0.00000000000000 13.65223501112394

PRIMCOORD
 96 1
Ni 2.229278881906911 1.629862624332515 12.959821441767009 3.0299563725163625 4.296292556573124 0.019732188321604727
Ni 6.528787664100449 7.954529189095878 1.6779280455624228 -2.629580074475865 1.1171402098136631 0.4917111383007532
Ni 4.681912867027573 3.220641603542223 2.114717162502428 2.8538851711489754 1.4138655692307134 -0.29992124064652864
Ni 5.982418826529252 5.645497284325004 11.830440284166277 -0.9884400415310718 -0.026713761845760443 2.795926078135688
Ni 4.331437974855917 7.555446928252396 11.711255687787364 -0.29014436376542285 0.6394384984181245 -0.08903987357849182
Ni 1.4704312013160419 4.761553955824358 0.1506315397685359 0.6748932396813085 0.05308788096391502 0.38186898326492946
Ni 5.973025692725274 5.341913438461786 2.0409003763344455 0.4827644706304266 0.8325550853035726 -0.9772814538110911
Ni 2.5687002849447893 8.248104263785642 9.370867319664503 -0.006189159529847406 0.651996023368161 0.6915005092206865
Ni 5.697929066958727 6.5948754029298255 9.880177585944914 -3.0401770218031063 0.6273751394956874 -0.9441625597699351
Ni 8.292532760616174 1.9504324648899178 4.391500862519466 -1.3483865136912971 -1.272594249151331 1.7598630354100144
Ni 8.037528299907986 4.507547573881837 8.035460318016883 0.8157770945142854 1.2727400307005758 -1.2334913696125982
Ni 1.576637975389618 1.7930624942772968 8.59645707260039 -0.2473367816815934 0.6812163536858591 0.48196999975358923
Ni 8.361698686292932 2.2639411313762072 8.493028128960603 1.5325320074263864 -0.9332392279892121 1.1529075972212597
Ni 0.28020921428487894 6.547312752218323 9.117126781131528 0.9501156920295766 0.21282229284449156 0.5493467865363506
Ni 3.8604567315287612 4.616692617218822 4.618196264854572 0.40764377823618825 0.04467574564081983 1.098931143004804
Ni 8.91242362464512 9.029609265141021 3.534112958672786 -0.4287805602148035 -0.41680384746890153 1.0818271363346659
Ni 3.7271898967150268 5.300115392209925 0.8068366135415386 1.6901324036830956 -2.161973028312167 0.5969913849975073
Ni 1.607988842038247 1.334487276728979 2.7420376502402792 -2.1389079189625875 -0.38583131034678714 -1.4250328987014427
Ni 7.795209700146582 5.90010064795914 10.511565944240772 1.3834879853801205 0.06685819527513001 0.01600331740679179
Ni 7.275164024039959 2.715268618074782 6.460619817189357 -0.2846064646663292 -1.4821016186899765 -0.5044581535537764
Ni 4.156214520528486 0.7007874799459042 8.173320180720467 -1.1483731996860158 0.45066193366892704 -0.10376201028001485
Ni 5.950013914081369 3.376164662046415 11.303340896259686 -0.02073594699577074 1.3881686786852416 -0.7948850815566246
Ni 8.386566704884197 3.4051462576064533 12.236184487574606 -0.5161147639560981 1.121183012424469 0.49880198370926354
Ni 1.9558519393090945 7.239186549281326 5.999433737524124 0.8229766975865181 0.4113507947741303 -0.4628597612866996
P 0.23145073462236385 0.21491247619688955 9.797908844921135 0.1752595040993691 -0.2162125494729631 -0.988798196201439
P 7.086247302161149 6.14782939430079 0.008874505959388745 -0.23042406508665478 -0.10605877673399153 1.356507857246851
P 0.5277159580599607 2.661652199896764 6.68777974590325 -1.1490871950339048 -0.3942200486311146 -0.36170047873685446
P 4.787121562335483 2.737300973630885 6.394105796120812 -0.007269537078219739 0.49945607235349465 1.1478826332028425
P 7.065250336726438 6.347155984427107 8.43440545962807 1.72988268699784 0.27783160783634087 -2.044786002875498
P 3.9704785917253034 8.07191071420934 6.7101413741736335 -0.7412153599473106 0.5852363013441082 1.3212107246074536
P 6.0461186385921755 8.2549415697224 3.902613899579484 0.4500363842697862 0.5525041012184098 -0.9488617650178175
P 7.687501144005042 3.811317676037843 10.034693237844508 0.6503644013020089 -1.3860526607835033 1.2932803167457727
Ni 4.265835283650976 7.290778826411218 2.286107807812923 1.0610045431623598 0.9018676556564661 0.8489638656788991
Ni 2.6230162910426666 3.384167947849605 6.350937490329919 -0.5496283223325115 -1.413010934539902 -0.17266166146520587
Ni 8.562144617091024 4.791356401210365 0.9666243600051933 -0.8465853381443936 0.45114607239419724 -0.4925603736749259
Ni 8.457029200172428 1.4070205522599932 2.126677317580343 -1.6324540751350207 -0.19069795014162644 -0.41757980640297754
Ni 0.5456375349989702 2.7824010748644823 1.1525710979682275 0.9996161127525494 1.3298619725245484 -0.4476470581020033
Ni 8.60998710297047 4.50379778263139 5.201036952647769 -1.336731188840556 -0.4594180825950023 0.9671569637825794
Ni 5.9365445146643445 4.629210577064838 6.286021328070334 0.5535446266677821 0.1837541718339416 -1.1372642342570478
Ni 2.7537832650227703 3.103372012495938 3.3108446043610966 0.8012997268337168 1.55523690522307 0.30451348800290134
Ni 7.697696471957124 3.7558636735903272 3.049212714092109 -0.5642491575694799 0.15445233754603077 -0.4878326291819534
Ni 6.239447428285566 3.877862478974861 13.6713480626747 0.6035741804213477 0.6899498769041149 0.43480902579707054
Ni 4.7554162378074585 9.142009724265085 13.540832940345744 -0.26142539856417557 -0.3766085061969385 0.6536073337193389
Ni 0.9790966134404452 0.7776544694444736 5.394175454426956 -1.161908000947657 1.0396283914794289 -0.1289822182993843
Ni 1.7547157484300748 9.320190103533788 7.435471331132096 0.0428237800337456 -1.773789158572803 -0.606178193703098
Ni 7.3930212689389245 9.262590698132037 5.55259573970326 0.22409529465514955 -0.1944504752055232 0.6028761259130585
Ni 9.064989758208041 7.933364322560401 11.756567530964706 -0.46366580212776276 0.6796883470771069 -2.9198763904381195
Ni 2.1317096866838643 8.97770916932639 12.228866797932879 1.3021107705532091 -2.1578582348128448 -1.331187119093875
Ni 0.5125806066097777 0.680659869099605 13.628917588943285 -1.2688671780087308 -1.9307318666408553 0.33909199730871925
Ni 7.296114350280012 6.454761934340401 5.112338532248539 -0.191186973962903 0.9161041109708223 -0.4705442744151509
Ni 6.281273458054222 1.1288737231628596 3.8626273196481113 -0.1650033735889997 -0.1274917497967869 -1.300453180345128
Ni 0.8580912229021117 7.284240011320267 13.579619027406638 0.7228854512898713 -0.4283226467417785 1.0604278447232836
Ni 0.8648557716952048 3.8948764571858394 9.498173665401037 -0.36195347528792504 0.3639658777322635 1.437030951603583
Ni 0.43675553671985207 5.545736046953065 11.787817656952877 0.39710405504712903 -0.4132755226006689 -0.29498343702527907
Ni 4.276441036516044 0.8841149607369853 2.7218055675979476 -0.45693773937530985 -1.1264864269152537 0.3569735055748304
Ni 4.070314451808694 3.1758679766712263 13.118637227414006 -0.4785393768054855 0.4558241945961569 0.33626712626541444
P 3.9261900124787426 0.18190871648960635 10.669249330241488 -3.0266198519439613 0.5749156361443906 0.015606081968373122
P 5.795106492946652 4.4153885252390355 3.9325264134648816 1.6472741708669887 0.09679097827882041 0.2558949556642496
P 4.156904780609414 4.6072994834148435 10.326646201344092 2.110230862742869 -1.303445944424865 -1.011575856217587
P 0.6831737216916327 4.778409360773502 2.688835388110818 -0.3175122142554145 0.8288064168944177 -0.8671757607012355
P 1.4552548073745606 4.938670961454875 7.736298800591069 0.18609130460755047 0.7899555054654911 -1.0131547706689326
P 2.8025212234396366 1.3818820263397151 4.640818139831143 2.0348504889293406 -0.19885323225890916 -0.3586789183017113
P 3.043953678502553 6.575249629818039 4.093690948954819 -1.2190913921371844 0.20684139267070828 -0.6262219997278506
P 3.181194172701088 2.0645679020552326 1.3055551187152772 -1.064625941965031 -0.5401147264151215 -1.5223571237759137
Ni 9.160264305053948 6.328770813893204 6.745787710650198 0.14295899219445057 -0.43637945560798397 0.17355717669628173
Ni 6.259278413853845 1.5645864074901747 0.8044729391563071 -1.8362818777903858 -0.373638367825021 0.9587389149222134
Ni 6.001727453117369 3.3211397401897464 8.746250039648988 -0.01669880081191963 -0.5453854878957575 -0.4232269773864259
Ni 8.453055540787627 8.544888115067828 8.021479753026414 0.7704637152894666 -0.33927094608874475 -0.036033496584789555
Ni 7.519879878406749 1.5379647551797948 10.79977844432884 -1.2575671796148795 -0.6372101233082381 -0.3024182960367695
Ni 4.958082194271238 6.883077642395071 5.136093739655282 -0.6739607005647104 -0.31428753667052967 0.20383165931010702
Ni 2.5961987541147264 9.045074822089378 1.263163821907375 -0.3978568740527535 -0.4714410751978075 -1.292145688920697
Ni 1.5510517132006298 4.889793085454037 5.122236302138708 -0.2376954019370874 2.2484245723381924 -0.5745353699868363
Ni 3.736816226492291 3.594874501472301 8.30446306660951 -0.6190288244135209 -0.24038400451284406 0.6860346010101088
Ni 5.192360196873727 0.6300656707353791 5.98672362419612 -0.5795636764393631 0.03435225222762471 -0.009184494712745473
Ni 3.1416068242759825 2.4567102507337095 10.356230375299102 -0.17574287149369086 -0.08376679810501057 1.235272372772421
Ni 2.1003401643573727 8.741649549487994 3.6188386524711085 0.8582856573004574 -2.812874275954252 1.292709017623335
Ni 2.8615571160368316 5.899177191904925 9.198848910793922 -1.5003322827653904 -0.08390126680034583 1.00906260287743
Ni 0.624132232391079 3.096077642451538 3.9944390115885384 1.412333191746587 0.35258026160314115 -0.23727502657021718
Ni 0.3869616669359453 1.8258125367656444 11.238096394069713 2.2703694520403994 -0.4615996636273534 -0.2149470524969782
Ni 4.549513521234464 5.7581309394223545 7.750578789211237 0.835041342060536 1.7469946640877785 -0.7109833005356465
Ni 5.560912440894547 8.976337977003467 9.653959768963096 3.2361398198880975 -0.06727574242852286 -0.3675224847352703
Ni 3.3071293261146977 5.415099662718002 12.057804492552771 -1.2521861178086242 -0.18572183708327372 0.3664503347170141
Ni 5.024132621744889 1.491754641113354 11.781606249008417 0.45052849341485635 -1.3013975465362684 1.2657116630988847
Ni 6.125992923362247 7.836615977163322 7.244203993842557 -0.41679330594594033 0.37572173271661097 0.19117848932247075
Ni 7.817745759004984 8.737498661163496 13.539672557182671 -1.0787626384767293 -0.251828756014676 -0.20192390076443292
Ni 0.17485220633795867 6.809294436447241 4.0134155671106955 1.450293215930128 -1.2317283641749046 1.2405248794206118
Ni 2.0928405818564806 6.62024712482339 1.920009718214969 -2.1067858416170617 -0.47188896136850345 1.4540565396273022
Ni 8.33058101561759 6.950060853761867 2.084600368944431 1.5301372819419647 -1.3458922865145335 -0.583548372118724
P 6.855672451614448 8.009097046844904 11.345034470715516 -0.526461654408061 -0.06871196065441715 0.3750185360019993
P 1.7705264354188954 7.136197879639104 11.179965301848869 0.03089283292411454 -0.9180818035224835 -1.1479628516214744
P 0.22922884338889069 8.655712169412475 1.5504164873693975 0.728181666691804 -0.5643098356040862 0.817541899724192
P 7.003677271939885 0.7764679683323921 7.831823333520339 -2.1415528127846017 -0.5072560280138877 -0.5817511710089852
P 3.3220818519218236 7.1445276398048945 0.11842997420935805 0.15409675397882494 2.391950492779706 -0.5500479263684334
P 1.6127833512490162 3.625768304013288 11.912053278113174 0.20208048094695522 -0.557641165334659 -0.18881256019345546
P -0.10301012367176553 8.306226028167554 5.828972144971202 1.066039791593422 -1.447431835221933 0.055275632643853184
P 8.050064915431866 1.6631909928346127 -0.07555642812869957 -0.07403157309511765 1.5703912443660053 -1.4661713206129652
