# total energy = -340896.95476155716 ev
CRYSTAL
PRIMVEC
9.01874182927561 0.00000000000000 0.00000000000000

0.00000000000000 9.01874182927561 0.00000000000000

0.00000000000000 0.00000000000000 13.19984029554653

PRIMCOORD
 96 1
Ni 6.379641472256936 1.8907250978402337 11.335032423053457 -0.6385512107171648 0.6915377902165251 1.064084210528948
Ni 4.60704385400835 0.41171638390091814 6.102391822396909 -0.08492045209347955 -0.7442196939912731 -1.1795347128904847
Ni 2.6901824425433953 1.4843856877775001 4.680769362285785 0.3654555749039125 -0.19182332199532126 0.4047877968446319
Ni 3.36565914425172 4.288276426449426 4.821056792259524 0.059532608147994256 0.2406513992416178 -0.4658828643837396
Ni 5.2796435770947685 4.617424425775795 2.8523403212886835 -0.32181341273392966 -0.2985385013663891 -0.777604440099306
Ni 7.2732274247244915 6.312514977326364 2.469465873540926 0.5050520783840334 -2.0408013071961366 0.7653258798422691
Ni 5.107683227928945 4.32977165729392 11.607807875125623 1.3326315648498857 0.5228232863245253 -0.5951479040308654
Ni 5.594902714108483 7.82479563337207 12.330775467201462 -0.6659478575625628 0.685171224568549 0.5957035194240193
Ni 1.9821029893673807 6.280110638177425 0.38762371715934474 -0.8457648991256272 0.6434892714487305 -0.913320377578098
Ni 2.728304663969101 1.5835196972195056 0.42304933479837303 -0.05555639710906561 -0.2729943343486976 -0.09509867817806203
Ni 0.4336707069708485 -0.16454513968954748 4.770739428223968 0.2889703980619797 0.8032406526101714 -0.39855107190630074
Ni 8.764458337498942 2.3218840852305145 1.3224785300531807 -0.1658209843942886 0.2133375419180132 0.28249584608122963
Ni 6.673490116328937 0.7766164793180798 4.6286563667655205 0.7361867963844676 -0.6457040197118621 2.0968055904758987
Ni 0.6505714463340433 7.268826278744898 2.3725261239694837 0.5498838899867433 0.6159149613748875 -0.2047012063992539
Ni 7.685762710377351 3.906251544175598 3.975409059750852 0.0588306969849632 0.21916006213706127 -0.6902532670771467
Ni 7.5258874751718885 3.897828039370391 12.666184277058639 0.4905448859067939 -0.4849172553073713 -0.4715287498156073
Ni 7.724985218297955 8.708659382220768 7.238105738682824 -0.1124677655841289 0.5706820576790171 -1.0127449368250236
Ni 6.863487949017686 0.7501076916586102 0.40682732399202876 -0.14868895269969232 -0.2563850079267907 -0.031111376692823833
Ni 1.834718711501546 6.405633486013473 9.383066461156185 0.247300014906387 1.0293437217239692 -1.9119977805664619
Ni 0.029916970171126402 4.887075785701789 1.2862953381061892 0.1984472550697421 -0.35039868057079004 0.8780163029601654
Ni 6.336640111538279 2.093060569258665 7.010316672391015 0.5840070569226974 -0.7617898416645525 -0.00036509664890259705
Ni 3.500029377755763 4.308622707863288 0.5002912504886025 0.4003834971293492 -0.21673088387027836 -0.17914598363796888
Ni 5.93415170420769 5.612750804054419 4.892625919381793 0.18019756483093483 -0.40981044687020385 0.27117836418588137
Ni 5.457357883504404 2.9875213396770826 9.131385846064079 -0.10298039491898393 -0.4851990482138483 0.2252504913055153
P 0.08666108958590184 5.534684575367192 12.399005856123637 0.7664281117675122 0.6673125991205734 -0.7601888157260198
P 4.162780634838663 6.034773806040337 12.433972419807006 -1.202949235159683 0.8779435407407009 0.3650398275227326
P 2.275103871713804 8.386320532924305 1.2750778271032812 1.3937693127014708 -0.3152064489403733 1.0244761092190227
P 6.309565848770365 7.691579798813494 5.8707743002273585 -0.391631461968332 0.3391827572503126 -0.2815507085591409
P 4.669074759843695 0.9466973227008133 12.541749089479023 0.7424106658069923 0.583120540552686 -0.3334006033508968
P 3.9203929312575725 6.007564262146002 8.311239507760122 -0.1961173213849848 0.9437336997626328 -0.9174804224930585
P 4.835236058056897 1.0751873365763824 3.6123082033151017 -1.5398025729458706 -0.4336206619159242 0.22404541525382057
P 0.2638018040195091 5.547319832575001 3.5217834847585894 0.46909160112902437 -1.2236725837499636 0.6581157631126536
Ni 1.4244290925472913 0.9965348896746601 2.5640030303071137 -0.12760822076999315 -0.24212027047766047 -0.013467695469131643
Ni 1.8717045714653073 6.518737526443986 4.803923888535272 -0.19236222521792676 0.016936370744022447 -0.48141412725011923
Ni 5.919929148449862 5.574294889183539 9.15676909475172 0.2183087698803595 0.17422900595232574 0.3025728193367627
Ni 8.457424292971682 2.3791621141575683 10.198433768200742 1.0266988279019542 -0.03680019954748501 -0.12498389577326864
Ni 2.4391998780636306 5.213085262895167 6.890435047526763 -0.9568581529597329 0.017712843898730787 0.7663849172344027
Ni 0.4374432466496686 0.15546507048410613 9.227361492141222 -0.44872563587816267 0.45499038584095186 0.2264221430161133
Ni 1.4642648749076752 1.2276762222792057 11.447218355572652 -0.14441552213531905 0.21042139671248275 -0.8824069758286931
Ni 4.153716799368392 6.733437692817383 1.3537753677138107 -0.6880462321234989 1.6233788523066301 1.5695890601796838
Ni 5.517467797344558 7.82781691186216 7.968783453090539 -0.5591223778658757 -0.07408788025434983 0.4402217121722095
Ni 5.3035793177296915 2.9324799587068715 4.867256198806797 -0.04251216233059775 -0.30743708940759956 -0.39684643051036816
Ni 0.7382769062159226 7.586150707621987 6.878951483641891 0.057438958843759144 -1.3267591652295085 0.4580695389869079
Ni 4.978552883388312 4.517397560899403 7.083694057236458 0.48572638147222796 0.11969950744587773 -0.32924492931131044
Ni 8.120024144933575 7.245413625132138 9.142882938061593 -0.20748828222608784 -0.9047107815322162 0.4374996852553562
Ni 4.580591884421978 0.3185708189885241 10.26395853459448 -0.6658920646239629 -0.37492443362629624 0.715093208938962
Ni 8.11463093736022 6.938632105374199 4.701967914796105 -0.24846472463844954 0.3579242995238739 0.4085092115602771
Ni 7.199093367445262 6.047517288149285 7.016137368323864 0.2907439450226348 -0.15531288577411317 0.30685961963757474
Ni 2.409627423827792 5.173673361397573 2.54879652982311 -0.7779854775878084 -0.004886381558023843 0.3997774881142341
Ni 2.455514781910118 5.263563160534078 11.295459987952508 -1.0153440650107675 -0.802183929210883 1.5719632168388153
Ni 1.1455876347663658 3.2453130541867528 3.7157946575311898 -0.6414843252035597 0.3798252133620233 -0.25034574371124624
Ni 3.73746579210981 2.766201416850771 2.6651265741816976 -0.1658112142022757 -0.3686002911804813 -0.19301528542089338
Ni 1.1567979307758647 3.4465933328190927 8.19394626178141 -0.05990593232701296 -0.37746339799806605 -0.8978989008167052
Ni 3.6352383542436226 2.6272586812736654 6.818905602868244 -0.5179973256907917 -0.22535719208670865 0.3885217126947567
Ni 4.094824415666037 6.785466814039266 5.957892640020566 0.02491553229475709 0.9975944543368304 0.38374768834488104
Ni 0.6230534614714662 7.486673985993046 11.356178666861561 0.9748926418639403 -1.914079088575523 -0.5150968642145451
P 0.29173825849981816 5.676531345791488 7.911139263247969 -0.2649717211545372 -0.025369846223356304 0.8281402440653286
P 8.40404236048558 1.6853232542229046 7.861389178069207 -0.24712672255331636 0.02558196223416239 1.1499904235744645
P 1.6835285246123735 3.2300353056428333 10.298396600010626 0.8034985342572484 -0.5136873854615283 1.0379744008157736
P 3.9667312264279713 6.167962584373629 3.7457188426957253 0.15002052702692226 0.2710480092556042 0.17826435236396398
P 6.9490938458174965 3.98595016512165 10.413195262018117 -0.09605924231911844 0.35794204013568676 -0.17720300097898514
P 6.156770325847653 7.741525590688479 10.15256444760194 1.0170710750042031 -0.18753497903261251 -0.17810134442353842
P 2.3962887047625876 8.540324567243054 5.786757505725917 0.7066265662288477 -0.3192186554235599 -0.5685387860837692
P 6.98634124929234 4.0112838107296005 1.6430632340770392 -0.0891126357979562 0.21921739773755794 -0.24755429700903817
Ni 5.38707482895732 2.7652905239328627 0.41268229114357086 -0.29715164832119145 0.14103709258138936 0.3802093361743194
Ni 1.3485634368498611 0.9225902259724217 7.1376153104798945 0.3945913159276043 1.40383749557075 -0.49089944103273525
Ni 6.760187280881884 0.7327475156419694 9.31698884589247 0.36632743598590456 -0.1738806214739715 -1.4717665553125556
Ni 2.9183024966578506 1.6817067387765579 9.174100410794724 -1.5710039382493395 0.2490645630059775 0.37460484550334844
Ni 6.536486410230546 2.1145702683597554 2.613884789115591 -0.3728847774884481 0.03223366322272513 -0.6177026494029297
Ni 4.032423741418471 6.8495900679632715 10.370836937587052 0.4771021301383268 0.7692691807607333 -0.03953919574520287
Ni 8.031613419445948 7.27001675265741 0.22289369326368727 0.0731802808384159 -1.1497489969876198 -0.5704115776264499
Ni 7.753412292330087 3.8915419763626513 8.262716873335096 -0.41054089727832516 -0.05701652659435988 -0.6830842601325332
Ni 3.0717834439544354 8.455701713295243 12.317113877181198 -0.05356996280665613 -0.7822761345433624 -0.1314378789287285
Ni 0.1896280642765295 4.843515262993921 10.10553351306426 -1.0601002861805353 0.2520385580326369 0.9262689673189661
Ni 8.881747074106773 2.1720827845726074 5.710686222716325 -0.9483395739657604 0.5665688068415919 -0.01115190285176144
Ni 3.6880160310317067 2.6681316189366178 11.546098036496986 -1.330685496867108 -1.1303919326172467 -0.5150094467070614
Ni 1.218495143166036 3.4056843201890943 12.607893443431772 -0.7170624168501909 0.5248410880855026 -0.3201974743970614
Ni 3.0535385293709947 8.438268485470335 7.967582156687911 0.24297490516847187 -0.8965560136355657 0.6285606751633561
Ni 5.708511804077637 7.759689336596066 3.719450855441287 -0.9529472479411008 0.30917078426925465 -0.611014952970109
Ni 3.149299529394213 8.276923195357753 3.4962947167923413 0.22807819056229753 0.15370054698167077 -0.16764672474911774
Ni 3.495096126012243 4.18612113851733 9.44785169072548 -0.13467592625005195 0.14993413796070307 -0.7761319693188375
Ni 6.9879105103588355 6.098942153673149 11.377654996618134 1.2470876202397942 -0.8371028525752552 -0.11779020623830681
Ni 0.6191690893948039 -0.22302807251593307 0.07199661548176235 0.10742017585789243 1.8309830912852918 0.6918146980269957
Ni 4.490891478862463 0.25775383579427175 1.4820119549458828 0.49690888045160864 -0.2593124659862308 0.3710428391837029
Ni 5.887804390295529 5.620128134815295 0.4976018616953341 1.64223403733992 -0.8568885198426146 -0.48480695498175214
Ni 7.850030072820645 8.838249682591236 11.364653578494808 -0.7013290652753341 0.40643381708848714 -0.21752766873996082
Ni 9.081331829287958 4.865971929979964 5.884475572711374 0.20521799813467234 -0.693590816090812 -0.36528845319842895
Ni 7.843870272197566 8.802120603094814 2.61432039434267 0.7146481509817435 -0.003364031376226464 0.1284849669479916
P 8.425831640581276 1.5627495349428555 3.6399091606018845 1.331538846006339 0.9593806622712703 -0.4998543362331778
P 1.8677633813155479 3.2004357951817104 1.5463083687117076 -0.4164531489977021 0.11539085276819482 0.47649792089542453
P 4.645057850532918 1.0872363755696977 8.137318484135356 1.211440817570462 -0.119352151408788 0.1485485704670861
P 8.497692974936616 1.6628665872368606 12.41031806391504 -0.035684340775486934 0.04864810002500654 -0.10730447621563455
P 6.396398294449735 7.832632919962783 1.3747899378921966 -2.675059289854586 0.4153396042185492 -0.13235859097078495
P 1.7368563446479066 3.236474687260518 5.9157724103720035 0.8141925236359849 -0.025844214756613557 0.15216894082849278
P 6.8989316041402375 3.918805632707555 6.059030613881969 0.34223851335750094 1.2259883763673338 -0.13579461323552744
P 2.2164369565554844 8.5234865763744 10.15987774529631 1.2875482993580019 -0.14933584225507185 0.2393175109215427
