# total energy = -381167.5322403671 ev
CRYSTAL
PRIMVEC
9.29323238214105 0.00000000000000 0.00000000000000

0.00000000000000 9.29323238214105 0.00000000000000

0.00000000000000 0.00000000000000 13.60158496558644

PRIMCOORD
 96 1
Ni 5.1266023213710366 2.359886244839881 5.67681185873574 -0.7827042232197166 -0.6369640687357031 -0.07957307173863715
Ni 6.290430978931516 8.809686864991072 1.7813583699205346 1.760895847549903 -1.3772538315449507 -0.13928051490159882
Ni 3.6267210895412347 6.99086189961067 10.547566847457745 0.6182312682128901 0.42525814888384184 -0.9259138979723925
Ni 6.775379721585096 2.4807261448211873 3.8865580068293477 0.817491763212547 1.694186004927179 0.35238871441762537
Ni 4.436551941204004 5.848816578630688 4.194946487100029 -0.05237902782234851 0.5241306922820392 -0.26265258610305736
Ni 4.3775770888405985 2.1072868968900327 12.672542482763868 -0.9706516071993995 -0.8448981802499577 2.221118428324071
Ni 1.4188721256130026 6.381448896367254 9.828477904230526 -0.371904672963366 -1.6195198835718558 0.6733135538990146
Ni 1.459595069681147 3.4645170124610445 4.448139672595736 -0.42520389860713864 0.4465592243544632 -1.462526010550894
Ni 5.144315222191184 3.913184976100011 7.896386093894181 0.3090584270611064 -0.23799673522759013 0.18283243135062058
Ni 2.3252410747152705 7.1565044726527995 7.254691189507563 -0.2625289160409995 -0.6034006309579608 -1.6770236342152793
Ni 6.615982200668434 9.104440314787817 6.401939544330708 -0.0350068550924881 1.0601468231477549 0.32798765986544154
Ni 0.5790696703641601 1.9850623052916212 6.464887253515002 -1.1642867855924786 3.9570668619000173 0.7789576116930907
Ni 3.5126652491605097 4.21615364327609 5.87415736454694 0.5247133042583866 0.6928703929850196 -0.10704068103128661
Ni 6.04626059270458 4.012529629703038 12.633369649848294 -0.20448600506465428 0.2202820915566464 0.45923527716023493
Ni 0.36503073131936653 6.827087266266783 5.829367702011378 -0.49415008675954897 -0.2038738254019521 1.2327737747202834
Ni 2.5453512824409676 6.357797620088516 12.471171148707501 -1.5270871822617313 0.20914510110322043 0.2853052905055667
Ni 1.7421836783584952 2.3785377621253136 2.125723740508652 1.2807798702859168 1.6718228067406302 1.5705858768753145
Ni 0.8444211917166351 8.524366046008831 4.253351664321632 -0.3434947543621052 -0.5279955745540843 -1.1718710256976397
Ni 7.9879978488757795 7.433637953952694 7.421187810600779 0.4816226437164996 -0.5275106644978658 0.036559801401904776
Ni 6.54715652203569 1.0128229254374113 10.981933455864748 1.6426091612911518 -1.1829187988713692 1.7583766806724748
Ni 5.294205766434703 1.0230826539292488 3.269726216217242 -2.124914947117605 -1.1306762966268848 0.5951736150624781
Ni 8.246052324203083 6.9143414246090495 9.983278063113756 0.15603613709338288 -2.0867862585666836 -1.623295034343572
Ni 7.652196191879354 2.3326013147202844 12.580840583428673 0.7846618611667195 1.138132238684298 0.9653942154552021
Ni 3.816553946337216 0.32748421406146655 5.654369631983078 0.09819685748741153 -0.7995608897657391 -0.3587287977030403
P 3.323464332162939 2.1381311349918515 9.345581107275315 0.23286892708272153 -0.3340361800523667 -0.40724988523187927
Ni 9.263001444794819 7.030255911455688 12.298553075478804 -0.6892027143254453 -0.9187178944445854 0.20680076924076
P 4.925682638405887 6.052756562102945 6.530202878296869 -0.4622972039150103 -0.3594476781469358 0.44634325168891514
Ni 8.772597574763784 1.1916247154582011 4.719750185922172 -0.9147882203728762 -0.6076108123845664 0.03258153348044711
P 8.562598403812652 8.785701032348468 10.495323083270643 1.1918279284355409 2.776718651969302 1.4515103761666808
P 1.1453351252246484 4.487432388208361 11.321741425318448 0.19546914627802464 0.6454790481852497 0.3908930411404106
P 2.977635277482915 7.717183765559987 4.3583010663426185 0.2723006507157827 0.28531634624916025 0.1791963772599301
Ni 3.6923406030202783 2.7345336129738795 3.601060616432846 0.7296659645468143 0.5409230812490298 0.11570607001576846
Ni 1.2416594783205679 0.4756527223543183 1.1509956330365851 0.47040260663096406 -3.049380542679245 0.7486288788025622
Ni 9.164474595636793 6.1275206161942775 3.65651426306658 -0.8513943294972628 0.13440441775622014 0.32511419497238847
Ni 2.652660236150431 4.813504030955734 2.7645089338528845 0.41435332904587996 -1.0498567540756565 -1.9290467656289485
Ni 1.9531400522395728 3.9773733318003015 9.075874777253206 -0.35475747176011807 -0.4997903157644618 0.6031507197306838
Ni 3.4725742448907755 5.7751305394895835 8.606797016772054 1.1848939203198692 -0.7200536382680308 -0.5714551883996158
Ni 1.5892542471432083 8.395831349658646 11.297381075412966 -0.03290369270655624 -0.40177574949118544 -0.6792980536172237
Ni 6.130336465590136 6.308106706822344 8.431418853541475 -0.5870435297561761 -0.37991725885519734 0.6566265801616369
Ni 3.6897756708973186 4.4496182258593695 12.26954053346914 -0.21842678351546255 -0.6273843954670678 -1.1881502224736376
Ni 1.9853596887261673 5.7914122825309775 4.579653779230778 0.5267982118118735 1.1073818448753185 1.1459928723792974
Ni 8.694218453296251 4.722811376651529 13.335877607953108 0.2257629121655596 -0.3421058444343786 -1.060221128029116
Ni 4.165867963140825 4.0715230685311035 0.843425886534139 0.3298956755214318 -0.3302355753593539 0.8858285999157324
Ni 8.859833146641392 2.158250982985355 10.597498455441254 0.23029319593574532 -0.08737071340618502 -0.39301985767542635
Ni 6.8340200175846375 5.5310902585152615 3.6156547084831914 0.5106946213817914 -0.090959716309024 -1.9433241014835692
Ni 5.169351190087026 5.138423312894241 10.49807016274726 1.021243461214338 0.3078582361054182 -0.45231875254605974
Ni 5.080080400329245 2.779661549166237 10.817421869197126 -0.13390408108103388 0.7611493798670762 -3.6710059241753488
Ni 2.835764792739808 0.13522675295070252 2.9981835434868116 -0.019807007423598148 0.8550748636726436 -0.7823869490896139
Ni 4.540320173395903 8.003331682219558 7.481021357631437 0.7475297322011126 -0.12464990947261757 -0.15884069642171356
Ni 9.158889363006725 2.3048796026811984 0.8599511122625676 -1.674633279606232 1.060081260017142 -0.954243598155021
Ni 8.410533243204014 0.6715252508412823 2.3839222609370627 -0.5517682514936497 -1.3445979931831424 0.4757684989285677
Ni 6.9179193190559305 4.2373886791491415 1.2831639832276287 1.2954351583052464 -0.17230247835357423 -0.40704933918529895
Ni 0.6277411160437798 8.095232456726606 8.518318939731985 -1.393862129525593 1.60571177404417 0.307701913033212
Ni 3.6004862946748792 7.588360979007587 0.6376095994545425 -1.0148714962497232 -1.1117684039787885 -3.368557803341908
Ni 1.35407970981129 9.32232014675442 6.440717414872275 0.721597585716383 -3.0160577601573997 1.0111526526372392
Ni 7.240050631295569 2.3430469078587133 6.6484276627006365 0.37282615633637084 -0.18731412127105804 -0.6400285665936396
P 6.398464804762685 0.7857558039898035 13.18756598388238 -0.9272454722996225 -1.1555926002525905 0.8343065207770405
Ni 4.4840589448727295 0.4238819836927894 0.750176664016072 -0.8464580685379101 0.8591150951802883 0.31430322039981357
P 2.276535244076032 1.6898627803430561 -0.2375192198486671 0.8642200205070213 1.4274919017648966 0.12735470999829035
Ni 5.60105900472454 8.23397112217465 4.375711007788822 0.12217727956240892 0.36430320646702424 0.0781813335974331
P 7.71351293878981 7.854639964946552 3.37509753098599 0.18015231341529617 0.06471466656956598 -0.20349561612692696
P 1.4573368142250633 7.881562459005296 0.10484903511182736 -0.6239614858284479 -0.5637387935919645 -0.05564767127129127
P 8.634825405478015 0.6203771587458342 7.537766763558981 -1.1409370551229447 -0.5595201275249266 0.20123973021321473
Ni 4.757326441523525 1.112492842171973 7.811757273685018 -0.570765618531759 1.1555764023026744 -1.1371259089069705
Ni 7.56980239404545 4.972297491770974 6.9789870073399545 1.3029849456280462 0.7946986765774313 2.717855816194823
Ni 6.453582965709322 1.918801558781838 1.4937802248054441 0.12412180488328947 0.4610787581268768 -1.1412450732816668
Ni 8.365498239334954 6.694640119105853 1.3859062425703441 -0.48632210607469795 -0.06950951685504803 0.3202920909933968
Ni 8.164411278187872 8.720694872203177 13.61913068274202 -1.0613331301463722 0.1772819338460366 0.33990960811400817
Ni 6.839530904356068 6.243091253444722 12.976020419071606 0.500536449901867 1.792355865831397 1.3705568791407492
Ni 1.2047188798105553 4.432026137059507 6.468791340416651 0.1899764985945696 -0.37544791022993407 0.9893322143280383
Ni 0.4241998122384605 0.776688397205849 12.604493718353876 -0.4864457761367557 0.35784228133302887 -1.5159465922638795
Ni 6.885820494589621 8.72017445119272 8.931602921276141 2.308096534277528 0.10674731816058389 -1.603502425097677
Ni 7.6591754093588555 5.193355609194287 11.303080614800686 0.7215122250914284 -2.279830340342983 -2.4324857338895916
Ni 2.370908018382743 1.2484807108504667 11.198715757093229 0.4207049822955206 1.361862693800861 -0.9439933811819227
Ni 6.071956380095822 4.5277278435893455 5.507009634902898 -1.4366015773756484 -1.5610301148660795 -0.5164976012168137
Ni 1.6065954186701727 3.9315576964155565 0.1692158208728458 1.4071267078449832 -0.236634821883057 -0.9842172616989759
Ni 4.041171371742751 8.85560472593144 11.917055665794685 0.5854386471629014 0.03167547672640996 0.6312245951487645
Ni 7.082576809471126 6.846138392542388 5.428677908920246 0.16167456632608285 0.04552035302930225 0.1751808283426338
Ni 1.556988144494966 6.9804627726338895 2.2899630354690172 0.556363584173816 0.5340168410474997 -1.0747776856870521
Ni 4.296186960098286 7.8184892911845525 2.5238281563657003 0.9856249406797799 -0.6685099618627842 2.6274362886599847
Ni 2.6928441727434604 2.4045681058804194 7.1910492758682505 1.2155293858175389 -0.16935650835137284 -0.025336164771943462
Ni 5.7732533065590115 6.332845291283641 1.3672584425778431 -0.8951858727609163 0.07768793890078234 0.7990561822151787
Ni 1.92066949848008 1.332054749190226 4.628442319637751 0.17947457062198124 -0.006127710164292672 0.1318795944518374
Ni 6.185919288153252 7.72585435132347 10.860185607084842 -0.12486305392468819 -1.146484467303735 1.418141828008564
Ni 1.103803669943832 1.3130129161469515 8.828666433377737 0.2897574127396494 -0.05013136943875238 0.3661371743519694
Ni 8.440253000193957 3.8525373419172837 5.253013514133916 0.6428984319422669 -0.1776963956756359 -1.7395690610476686
Ni 6.774487571281457 1.8426992792350474 8.860249483449756 0.5757630717463503 0.6897526732916444 -0.06696926693169757
Ni 8.908074315664154 3.3531747959205513 8.299755125865927 -0.5201223424535946 0.38419146075051896 0.326180945674006
P 8.872248905033688 2.66074534827715 3.175793011799718 0.7369185323441696 1.0608194237347472 -0.5196158351308212
Ni 2.7810183610863533 8.604650280103925 9.009839856289032 0.8130206148150708 1.245994901396248 0.8026752670250047
P 4.898156084245722 6.626111823907657 12.298702696519308 -1.4652233548773992 -0.1146827709575767 0.7199968168881664
Ni 0.07471758792968561 4.491744448009278 1.8888383191048614 0.3549269074584468 -0.04132791221450947 1.7636325297547757
P 5.344342754852695 4.293519802419701 2.644827899943075 -1.5438188931941155 -0.4026591805374033 1.1389452215038967
P 6.877688916301254 3.961807167648284 9.440343268016633 0.19248075307366205 0.5254319275919661 -0.19816829037674258
P 0.31169872962647105 5.69377758367659 7.844197159777822 -0.3055139042429577 1.1714583636402536 1.319609955779237
Ni 5.073584430930881 9.31720886897316 9.708308046300182 -4.486379098382996 0.30365268266450285 0.6362675568893107
