# total energy = -340857.6247394508 ev
CRYSTAL
PRIMVEC
9.35277647079080 0.00000000000000 0.00000000000000
0.00000000000000 9.35277647079080 0.00000000000000
0.00000000000000 0.00000000000000 13.68873375813726
PRIMCOORD
 96 1
Ni 8.797455308211793 3.2341246122444978 11.609086951804754 0.23216264504431627 1.067952949455735 0.658718172583343
Ni 3.8260150671868853 9.011512301847986 8.825345287458664 0.39923421401625436 -1.1233134285039104 0.09227534979665399
Ni 3.9317107933669266 1.7465094079888857 7.893594578701771 0.21331671598240684 1.2123833839893894 -0.8444582644990617
Ni 6.339751429427709 4.130822050304092 4.358520068330479 -0.6287499083560268 -0.7031548056301632 0.6432761269966598
Ni 5.11049732065015 1.078487353090252 5.206523211302579 1.835630360249316 0.4999021587519778 0.4259330634636794
Ni 5.044363838673416 5.967024584039955 5.460805560989363 0.6352463147136479 -0.3105265269662007 -0.8792069808341567
Ni 9.140758319021863 1.7049082585287652 3.2763439802251475 -1.3311274695005333 -0.8921316593156248 1.9375458042388956
Ni 1.0983152390739426 3.5501923381562155 0.012922731162106297 0.28919048449258583 0.21109476863042353 0.8211152188977472
Ni 3.5359106485821137 4.367363118423676 3.906367575135792 -0.4142358296314092 3.3370461058868726 0.05392297527070068
Ni 3.9667556465654594 8.284240408408465 6.0696806578875915 0.4885270841458167 0.9533982194355904 0.9753564688742365
Ni 1.2819195927276363 8.144360284459372 9.627368311056697 -0.13912033517465072 -1.3310269393669272 -2.4209504795564825
Ni 3.1295138081277147 0.7012346991989563 4.250926663817376 -2.3166156274921326 -1.1273017237276972 -0.3735512074278534
Ni 1.156246336141386 3.695029433601231 5.072292164303557 1.944337373239432 -3.3842322766543713 -3.9896519949248903
Ni 8.168752325329875 2.8395870922746838 5.540364018221282 -1.6911739575737326 1.6907342989331529 -1.3580970561108416
Ni 0.16465562865229885 -0.02987557367816179 7.679571255060645 -0.22197670565025 -1.4588115378137845 -1.018662073640407
Ni 4.816371208190195 6.185411913152774 7.77206553734164 0.5916337202300198 -0.24226605202690535 1.7377322649492462
Ni 6.545643449260241 4.813256733646531 11.06261825548491 -0.9311180678811513 -0.14337139714152083 1.1647467559480327
Ni 6.768202116650761 8.615244518242802 12.29979229532426 -0.15532728395181633 1.1738577171103657 -0.35253886684224445
Ni 7.905770958306566 5.976209010472024 4.42102280250586 -1.5184153655193462 -1.119743194654149 0.42497481331546816
Ni 2.964886237804638 6.562459741240748 13.45465629111263 -2.3887718379414085 0.6347961145501066 0.26264101613883156
Ni 6.197280586413767 0.47475067155024997 0.547787437793287 -1.0968644902837628 0.9664812778717936 -0.7452273093201811
Ni 4.239940892649242 5.9384424993389375 1.4217669819593035 2.186152453771848 1.493603448681989 1.749317141573368
Ni 7.710204403627806 3.4952728350919555 9.495573662311804 0.31667506306609977 0.36962924666562796 -0.9684566564306095
Ni 9.338410542839474 7.227002563315828 3.135554766409255 -0.7950812567278307 2.849470329910731 -1.1228069211811373
P 4.876257035526786 1.5329668170551005 10.299950779731581 -1.8953871685929744 0.7745944496283885 -0.4102781305352418
P 9.365028544494937 4.155036388422854 6.540846410240885 -2.863006159613637 2.425039047803559 3.39223509235419
P 6.141304219615471 5.504772962880556 2.76235934692349 0.2905693671179835 0.8947485281131816 -0.02346285900863056
P 8.30196391970049 7.974270692714373 8.71348140523794 0.7212355743912741 -1.050481532143849 0.96781773729503
P 0.49896688022429325 3.2639506162077003 9.54946623052653 1.1918243288911152 -0.16146270742559288 -0.3008566079766044
P 5.440968322229264 3.3849287790374354 13.648311138293717 1.597953984475622 -1.847390843219354 0.3206440750161768
P 2.1874273461630027 0.3415082130174897 6.743234880031203 2.1820944816523906 0.9513086838964133 1.5200228192157823
P 7.1315855384075215 7.98756098798929 3.9756735188699164 -0.45154433627388035 0.2262290531687007 -0.0061135690969056
Ni 6.6315861116678505 2.033733171460178 2.9507841215375588 0.8668440883934296 0.36357944092712224 0.44871020925919497
Ni 3.3709276727555557 2.8834516136253954 5.599239745705872 -0.3053796926579386 -1.7910703142507542 0.38315556328683686
Ni 3.2287280602574273 2.967505015198711 10.428761892802514 0.03114197282044314 -0.08438591974624822 0.2554732947457988
Ni 0.33850036012486945 9.430310923818597 -0.07027582664757219 -1.107184384152532 -1.852673688884848 1.3303859633488186
Ni 2.576886308543598 4.378268455714706 8.914363142749027 -0.09149450576657146 0.7206948713964556 0.207814555217255
Ni 5.098544472401491 0.4546590372718707 2.6792954690940785 -1.5494526944411249 0.7026588398303512 -0.11363916018441075
Ni 0.8841684587842394 5.337274090200408 11.85779691730801 0.07369604413256985 -0.1440951626814228 0.25327577287384767
Ni 1.9973415184589796 2.987417076170068 2.8104616112643956 0.9020766863434786 -0.1298941885906924 -0.5363195210387474
Ni 8.972296110371753 5.530109634168206 1.1664567621453459 -1.1156854796450077 -0.6435388937397433 -1.7560783715566015
Ni 2.9369214363465086 5.404062266525659 6.5808856460409695 -0.917351610224678 -0.5623018040351219 -0.45582933680247945
Ni 4.856017627381169 7.229677457368345 10.206990729185497 0.552714674567319 -1.2380548206135646 -2.3139303673504856
Ni 8.306406488494005 1.9212286240555483 0.9519283885782207 0.7715852304884195 0.03196241183920947 -0.15362752765189028
Ni 5.40877606583499 3.561705605913726 9.09677969379898 -1.277283169986568 0.3029443437435686 -0.6538317910253191
Ni 7.596904870228548 7.078461768413482 10.940802083889073 1.04553704365438 -2.962765476492162 -0.5839939442965749
Ni 1.7002879869835088 1.2257935815068217 8.840006699754905 0.3032477339166003 1.006831399554066 1.0187047539528842
Ni 7.176993267865454 3.975360200860268 1.4348664805955096 0.5672761173212618 0.14984234957784515 -0.7360441001590162
Ni 1.4158700564344369 0.8980807136902487 1.9382834118344445 0.6702380002974844 -1.336857430005775 -0.6670122942713351
Ni 8.872735805514965 7.984577452315329 5.22691974609184 1.1656461278338506 2.2007840876420937 0.9199990751498542
Ni 6.157896044962199 7.834306393777613 2.0814407486366906 -2.548740477319978 -3.693658114357226 -0.9908692197978547
Ni 1.2978380181730333 5.64745891975187 2.4920201507004793 3.6311394269977137 -1.6635166008677802 0.46910779907894046
Ni 0.9772341957037262 1.6643359144734584 12.205285295560392 1.0010782991203726 0.7846652036008293 -0.790266866058323
Ni 8.94131971491044 0.3149220108018109 10.332858523521022 -0.7559989460143883 0.8432038232666703 0.18537962325250654
Ni 7.7621216654652905 7.346540398578824 13.904331233836999 0.7221701703904014 -0.4001330716814399 -0.19906997625540554
Ni 1.8200315833274667 7.637262100426484 6.207936204574719 1.0262959360365809 1.8229293677428797 -1.2867605133493838
P 1.1239137881009997 9.106209162972922 3.9700197655316423 -0.11846692059035725 0.0932755089263942 -1.2306901527183773
P 4.072226906111723 2.4356780903446538 3.4572949512120617 2.071728335792297 -2.309944900340177 -0.251730796984231
P 6.69993620165314 5.515986941793031 9.08789549148959 0.13632914558275874 0.3370094037480777 -0.8109943284136614
P 0.7420605034949034 7.462411945490118 1.0624248948881811 0.24830223091865625 0.5944657903621762 -0.878393740904242
P 4.976593620825386 7.9387956118011 0.17391394201798538 -0.9517043766729352 0.9555278641840834 0.3414630686440571
P 3.0933933856423312 6.531053118064694 4.4094973761390195 -0.7271257146234639 -0.061506701155229555 0.6613373553737449
P 9.413943565105646 3.524995958514676 2.3720661168873547 -2.076315698052663 1.9355521708476344 -1.9335443963889858
P 4.669654204687292 3.9184111453156025 6.779674232192079 1.5449563492326683 0.8015059293072518 1.3439989261465626
Ni 6.635420749994885 8.679123981105354 9.834670729571465 -1.1717481269665304 0.14196063283692326 -0.47745488549205517
Ni 2.715073579962951 9.044480838684075 13.456339790865963 0.5800424158479947 -0.017019417376131978 -0.31626188678808115
Ni 5.0167918538243965 6.5828581465852904 12.281490782450255 1.1714701907147955 -0.9357537668809497 0.886025803528203
Ni 0.340319475136109 7.734456152852197 11.812281630921392 -0.19601242037600436 -0.7096458126711456 1.0891825482584725
Ni 2.848621874284233 8.263177955938996 2.1492268662046126 -0.273303123838368 -0.5005099675393058 0.1022597147028755
Ni 2.6759228579215693 7.109503633309647 11.275834434522078 -0.507930685483409 0.9431839979067498 -0.5680428202839573
Ni 6.709410564153837 2.278579505029535 11.321910887493141 -1.1412085636167766 -0.7970820892079434 0.44333120433546874
Ni 3.563099169598429 1.606189703548645 12.13782746044437 -0.9354208090215631 1.0746126208640976 2.3517602937140656
Ni 3.8262769449262928 4.3600211889438665 12.897237364175002 -1.832075295908206 -0.15997403869520838 0.023456688361043476
Ni 1.6884193137225165 3.156599448603549 7.2412309420644085 0.12353559336251628 -1.6909618415629266 1.1245424158150052
Ni 3.745281901238198 1.7361278261766702 0.9955198088578363 0.2146889137395851 0.4427833022517987 0.04889826836259965
Ni 0.5623871217652404 1.2246712483379334 5.659360327730288 1.189918113007338 -0.07943011840286966 -0.7030715018877376
Ni 7.006248981771937 4.43331889764867 7.083549678779108 -0.32027409327126777 0.23249046069738027 0.0575492591693783
Ni 6.879649800321354 0.6000367231932341 7.013587170141185 0.06351653249640675 -1.3629366435913302 -1.5177633337576442
Ni 6.379491376382758 1.2664688061026097 8.97559296405536 0.9600460637694112 2.687020575981521 0.07220069053396598
Ni 4.62769764972369 9.19130072272746 11.499850264476871 0.08942142528762664 -2.202868738085264 0.07779798211608537
Ni 0.9336727043086142 5.748366024411323 4.752016624286149 1.0241601206405007 2.409282042079618 -0.7503502323690433
Ni 7.6551446089174355 7.0017783546492 6.819398279427235 -2.0968971217484405 -0.2592440746421406 1.3583819343411123
Ni 7.768930486689879 9.14189000496716 1.9915465381969537 3.7289256793102687 1.608158950033082 1.4241309557124635
Ni 0.47265097324678845 6.2345607531736675 6.817304192789617 -2.4635809126324992 -2.3691746325357714 3.562881008940948
Ni 4.526940189486757 7.988168918455771 3.9260523636404487 1.2263933251152364 -0.36075971209013996 -0.671484728220392
Ni 4.9665206806346145 3.8052238452332325 2.049121294483275 -0.6798428703771001 -0.9105387010679028 -0.08147311697482743
Ni 0.15151591307754084 5.557924791203817 9.374564635319924 0.2607494555430735 0.22869679798290293 0.09594148579433154
Ni 8.700205139127636 2.0865482998327725 7.814022092305241 0.06686616569493001 1.1777503672965524 0.4653971829965727
P 7.6414240859277776 4.790445311988878 12.883808647809255 1.5312266583514016 0.821217034582934 1.3650554897065459
P 3.6658768295393616 5.2698592778558595 10.945428902377815 -0.05323751916790186 -1.0373941028322715 -0.8956728396996638
P 1.775867773131718 -0.06740265373521853 11.292438418478138 1.2077803379997392 0.5407734430450429 0.7786225969511752
P 5.591725725140165 8.151374866764924 7.427534506989279 0.5445452513826493 0.9146411532720506 0.5704750838745337
P 7.997502989310358 1.0873070212424314 12.636603544029951 -0.07655639639950042 0.11722070688808199 -0.2866052402639128
P 7.825065850687101 0.9148408890123118 5.118942877746033 -1.7361852321771 -2.2204694818861626 -1.5138169475153864
P 2.7052718702879943 4.550266013846815 1.3028567179932449 -0.04923842531083778 -1.048230788436459 -1.095103541728598
P 2.3661027866499955 6.404977692092926 8.573910858187933 -0.5168634691966647 1.7121101935057677 -0.8309250058993174
