# total energy = -340870.6390862427 ev
CRYSTAL
PRIMVEC
9.24785417957546 0.00000000000000 0.00000000000000
0.00000000000000 9.24785417957546 0.00000000000000
0.00000000000000 0.00000000000000 13.53516937923444
PRIMCOORD
 96 1
Ni 0.8064915039534033 2.4874046258088476 12.916246940196423 -1.175526620172356 -0.16057259151115572 -2.1534914732037174
Ni 6.1528379270289255 2.9775131615022548 1.5404918522047877 0.5246477411277739 -0.628910345193291 1.533946628385726
Ni 7.099596261465748 2.866289217528358 11.35374704426759 -0.3028499842575494 -0.39964584763237626 0.14224242574340018
Ni 5.570722488650202 5.102901281881471 0.869305704889123 0.11843915267621537 1.1289793685404363 0.21017302814710254
Ni 0.2611418352315038 3.572862279420901 1.5565988400836714 0.15892631415698436 -0.31206507509791415 0.6511509017590463
Ni 6.651454488701877 7.408502339503502 8.660004292746132 -0.2947628363740407 0.2852096454679669 0.8453676636872085
Ni 7.917078840285118 0.9769433309555552 4.898364638191485 -1.2091360806966853 -0.8801577747832003 2.506089218308355
Ni 9.07194164061074 7.325872761104337 3.6365615000155795 -1.2590054547233027 -3.198266698991408 0.4377405976215687
Ni 5.3918597381389235 -0.01165876994827403 5.449029048794302 -1.5026102801662895 1.0405293060271434 -0.5944094832029441
Ni 6.005593590456847 3.2054357792107986 7.367882988949205 0.5050803605188076 -2.6129586638691 0.11507846373409858
Ni 7.468187991320875 1.7176132317465564 9.110076092707752 0.8613902643677099 0.3341991879927922 0.8992487299763803
Ni 6.534931524199417 4.973625526264019 3.3576018238549574 0.33239735889736305 -0.463500223084176 -0.3886690369058983
Ni 6.84740727400685 9.16428146605178 0.994649272847334 0.29985516329528356 1.2048582792569378 0.2748501566105137
Ni 3.58503245571338 8.459188060851329 12.25303706723658 0.3489002416483927 0.08147311697482743 0.16152081435703797
Ni 4.0947279468683915 6.819506497506539 5.201227243427465 0.4748339029294403 -0.038236674883695435 0.7931179623538728
Ni 3.5821656208724466 1.9352707311536934 2.9465661417870934 0.309475459993867 0.114131526439797 0.43738604249562735
Ni 6.9304530058506675 7.596067320935163 4.846362103747815 0.23475740235468603 -0.9416341369211267 -0.10459376215269084
Ni 3.534696384619182 5.618145485631839 12.076835849200208 1.281130054536484 1.2736088064587743 -0.09496678058588805
Ni 6.192853392695763 0.3547541654277429 7.707886826727627 0.012464965236230146 0.25958114626658524 -0.5076681758506418
Ni 9.181131056633006 3.8644656220154725 10.4366169855191 -0.9529981557836941 -0.4011771966752381 0.08521150097133712
Ni 9.121861558260287 3.1290485024814076 7.748965795641908 -0.2745470235477982 0.576398391337504 2.105118224106652
Ni 0.28502719338364324 0.10750260739327856 8.92713503843889 -2.370716008880962 0.5363094937364182 1.2545397056424652
Ni 1.2849523671237273 8.565205462839918 11.364953594139342 0.4852023906479579 0.9136350806050394 -1.1050403412263354
Ni 2.039725245761257 4.944725981496543 9.120241334182444 1.0984518893755406 -0.9686368907622157 -2.25994928514834
P 7.711295585832041 9.16908110244676 3.090729093297884 0.41344392985773315 -1.0716231992184706 -1.203675057582114
P 8.329301946848387 1.0878343521737308 7.12106885442434 -0.4278786172258244 -0.6629260400171034 0.36006705689848956
P 7.563912531445079 1.9541086104149246 13.544779209006158 -0.3155023829142373 -0.14003976166512655 -0.40642944621311294
P 2.2181348514105808 3.985020651003892 11.546785830674567 -1.8483560353461006 -1.3817105817647237 0.1654360902510441
P 4.180797727076678 1.3775788760488585 7.076565405053294 1.0430937243202099 -0.17284780933408295 -0.07976307626225619
P 4.384703667101659 4.692046857758389 4.142262842887368 -0.05661260628772185 -0.13851869703490982 0.511257692974113
P 4.002212412195168 3.6898661323482926 0.6213781287034579 -0.38964168523181286 -0.5155866593667701 0.4185719951129178
P 5.477439382067954 7.336701998519605 6.619996987427943 1.4491326199631236 0.22438660064332325 2.262067617042924
Ni 3.1117735106012017 7.436708295196558 9.970398431904995 -0.11523941479199509 -0.9272904666049449 1.021743283668892
Ni 8.607227712895408 7.640743705182099 7.220877247018727 -0.16230654348312692 0.3456434252739918 -1.3403818982192657
Ni 1.9520093474830151 6.993551115914183 12.95857159508836 -1.3099634338284085 0.8297854929782355 1.2031806344441989
Ni 6.045784765355871 4.992870311115576 12.086825381442711 -0.8891373525739913 -0.8874594506509361 -0.19688916655400288
Ni 2.400724487215072 9.312681784414554 6.080946032287205 -0.08637929602719317 -2.9932245643129676 -0.3966479413463169
Ni 1.5748171131050879 4.065523222908172 5.186068160616954 1.9620473889246857 -1.0742102432193565 -0.6857898319891544
Ni 0.6779037886977748 -0.03900837433078026 3.8902782330090653 1.5527547622311646 3.5423116694300285 1.5007739982884991
Ni 5.589393906533573 7.251205585279506 11.195953680266308 -0.784508623418307 -0.9268274109255974 -2.102796775062327
Ni 3.461508865486446 6.328732116301689 1.1713877912200232 -0.5948946503694786 -0.32947530015456156 0.18415989191279253
Ni 6.200649333892237 4.834676515021997 5.700756568322354 -0.17309514945819868 1.1712863568387633 -0.3810806830356792
Ni 5.633191744619577 2.5900003216969667 4.734697037122587 -0.3939392841659022 1.0701167898762731 0.5935800453231133
Ni 0.7273872076231531 1.954866934469623 5.997907698726848 -0.04982926481730128 -1.6277348152824804 -1.1626207107439654
Ni 4.907780803465803 1.5347369124579715 10.526599532892545 -0.09309758858763321 0.38669494389866305 0.4781740230462669
Ni 2.153954742390971 6.49663615943714 4.230674179810894 -1.0622960082802737 -0.6071778386122059 0.24744322535247065
Ni 5.152673233861808 1.8743643625653434 13.468915360831597 -0.9419298137846746 -0.21367667042498686 -1.2833615149701638
Ni 5.903645244371519 9.2036773254788 12.360330673122101 0.7540397654054886 0.5726774908424911 -0.23923240740690407
Ni 2.317197866946324 8.207886867407689 2.3889436455897 -1.2482621001638696 -0.4558676462395826 0.07494071517294834
Ni 0.9084934875938198 5.553835906651671 6.673623445091187 -0.591340357359317 1.7150209393946594 0.9906162232467843
Ni 8.046604287969362 5.28144960534568 7.989377640617165 0.2848887717934384 0.49785838884907163 -0.9605679977111522
Ni 2.3239488006040063 2.218440030603325 0.9735965324751233 1.4981748701027553 -0.2701429809428315 0.8504509917473869
Ni 7.8869955701639665 2.384466759310681 3.192594208694282 0.24296102121140095 1.2402978510114704 -1.006809545177195
Ni 8.956324965832188 0.20359613690507408 12.921213962754697 -0.8183127164519456 0.16247237963702985 0.22449972918241984
Ni 5.601268151487632 5.336085928701277 7.92212077046343 -0.38328206156237216 0.9247558731085492 1.5075462840153262
Ni 4.127622564704523 8.991235615911297 1.2019473258389426 1.0448184203208006 0.3065505730375882 -0.7341666806306453
P 9.162376408060705 6.489422833063177 12.92891557583705 0.5729515704394842 -0.39976926058411794 -0.9622875515054201
P 4.383270249681193 5.626126383914825 9.865135654829373 0.05474110029662185 0.040567122789084975 -0.19380281431919527
P 3.9938338561761815 9.05171658320067 3.548082653755477 0.30893604255062923 -0.4426017823686119 0.12291390061811737
P 1.5183404667386966 2.540015669067141 3.403323215640685 -1.5463722557435886 -1.1850271034636237 0.2940334144071839
P 7.004176900534287 3.8461456225964743 9.23190640080767 -0.03958033339578345 -0.5387111611993755 0.29018550141600347
P 3.1267827781716377 0.4318387303732838 9.973957931034915 -0.8523631211684352 0.0046768366503790425 0.495491688389108
P 1.20503241004196 5.9270238201066165 2.404211853081253 -1.07353789974268 1.3508439740928542 -1.6307064963162947
P 9.061112403195471 6.874004103047253 9.211535227299256 0.24336854106246472 0.34035595162280735 0.6068669922400064
Ni 2.0383010761951157 1.2304177701657106 8.087412294751902 1.2977103274926682 -0.009479657355661093 -0.6741039110107939
Ni 3.9345551099491356 4.204120815685821 6.437313023509331 -0.34893675131328294 -0.47022494340251925 -1.1047873446752652
Ni 4.22854439895971 3.6507569564053637 11.080296314928724 1.0111318267016327 -0.2528376568951646 -0.5470993852630708
Ni 8.204955297586476 3.328959369437733 5.508029434606148 -1.4327366951036034 0.8334130624284938 0.40004539706364006
Ni 9.2227926403698 4.6276448002349655 3.807998223503407 -1.0214910584487698 1.012032227028715 -1.6421322216547332
Ni 3.457698749504302 6.243522386545682 7.516716106894419 -0.4073995234358661 -0.01572512404474066 0.4560170273332534
Ni 1.9340592622370407 4.535055282727137 0.16382851373416268 0.2727559930856464 0.6003358759897081 -0.49347954305508557
Ni 1.7109177852148278 7.8373253445812106 8.13899497660919 -0.31897491484386997 -1.1779681397343134 -1.0459900720313986
Ni 3.816210318144533 2.83250680567697 8.693152301790784 0.10098110510076803 0.708772923147889 -0.5689352501912396
Ni 1.2203468568051405 5.805858432732708 10.867699241408552 -1.552603581365281 2.7571294169834646 2.3163752293465527
Ni 7.544612259467568 5.535506659378347 10.3940491120584 0.10089960113055527 1.475836611616871 0.39387680635908295
Ni 2.9006727399109096 2.064638965314402 5.470928892622737 2.3662554020064475 1.6114831293103087 -1.2827745321184423
Ni 8.436345860667117 4.366420659099964 12.850303265356922 -0.42902095836038373 0.6203519141003186 0.4142728535169317
Ni 8.8230263935831 7.488671988652061 1.310111154816501 2.57796389296147 0.7776869725107832 -0.8729499441808514
Ni 8.148044002066783 8.283996708507312 10.895094160277251 -0.587875024518536 -0.6542845622920216 -0.4124453133898897
Ni 1.5882727411488247 2.485166645062054 9.951557778287466 2.10798140458706 -0.6965534982635617 0.3703882363188395
Ni 4.027403567378081 8.482196722413404 8.043450769644334 0.5218285265114239 1.2830267573385647 -0.59922798763751
Ni 6.760098281318934 7.042361291044658 1.886072146141543 -1.006309465612325 -0.8158141183998079 1.1923840580493272
Ni 7.091097483340529 6.8697315943488295 13.011480419255937 1.2840860518410144 0.8442852292563073 -0.023515823733753046
Ni 4.74969798162413 6.68896378584648 3.0864926512313304 -0.11161210245205294 0.47256773260308294 -0.9171122405203624
Ni 5.775322017749602 1.095084669964995 3.0173279487302267 0.5876235706293622 -1.6129327172726415 -0.21564844943937697
Ni 2.4998059984594665 4.269928547066735 2.622385382759758 1.7871254706703934 0.09197658760931257 0.14452607957125432
Ni 3.100370906217747 1.5444379116455176 12.0979107844228 -0.7778350680528734 0.29099257069833107 -0.3178595702925042
Ni 0.2699652130435513 1.012455091565829 1.7560260442587685 -0.9548202965940974 0.23760181378201656 0.5127936700026653
P 5.029935711252549 7.02521576912501 13.374506790377922 -1.1748290798846992 1.3532119601043986 0.22895519385061214
P 1.9427337495944463 3.60485985538745 7.299909410085236 0.5683009590413503 -0.27759403790423803 0.322136086180671
P 8.152954612713671 5.750103119003713 5.415164331039417 0.22153576145808945 -0.350194534979784 0.11419426135693238
P 6.266688261631291 0.10326893968302246 10.10177067609806 1.350375776207184 -2.434690197740078 -0.693722970793302
P 7.625281292749708 4.514358584746461 1.4487364911571274 -0.06827513022731467 0.8347780610968205 0.5601847576921191
P 9.20069951638596 1.4399186620576754 10.851645891084754 -1.142631154995916 -0.8361996240346954 0.24357525775663214
P 0.9629513273609343 7.695703703439093 5.658851766016798 0.7210324572415325 0.3842547098882866 0.29864957302295664
P 1.701540460928677 0.1911041352820642 0.43218737448135863 1.5762690433030206 -1.0922434465719835 -1.2375735101017717
