# total energy = -381161.7445493622 ev
CRYSTAL
PRIMVEC
9.30538763088962 0.00000000000000 0.00000000000000

0.00000000000000 9.30538763088962 0.00000000000000

0.00000000000000 0.00000000000000 13.61937540080205

PRIMCOORD
 96 1
Ni 4.148183569303272 5.165271731724039 7.995335990932284 -0.5798300427268723 -1.0509389313962416 -0.2083758270373637
Ni 4.31565262868138 6.546712342883476 0.5975817512528065 0.0706333460468461 -1.4091409100615344 -0.3450952660800056
Ni 5.759029899240753 6.438323188933583 7.173433915186598 0.3883548480995892 -0.3539360043000872 -0.09627675764656322
Ni 2.4196054763357404 2.1507542198178604 4.423232213916158 0.6287897604550268 -0.1736268535919526 -0.6704796839946453
Ni 9.068853884412713 4.799253618617495 7.414483465380981 -0.9011166364230545 1.073589578916222 1.6562627475188445
Ni 1.7940507996288844 2.6598333608112212 1.910852954444684 -0.2751018676100036 -0.647975075134226 -0.383207756681011
Ni 3.361366526700844 4.129051692541513 5.968854291039338 -1.0365579800842213 1.5572912166489374 -2.10926181396138
Ni 8.10305701805752 5.680278404574035 1.0488483805995428 1.81004865512547 -1.4118469961387878 1.71821733484477
Ni 4.488788669065281 4.203876313670555 12.757432266603582 0.0659739928979638 0.7554237902372087 -2.5203575553019113
Ni 3.6423147870077743 2.1747714250328904 0.23007477614145555 -1.0036568584808263 -1.5134721625814578 -1.1315029062932385
Ni 6.6155722106057615 4.044865851557252 3.369460352774472 1.1520953857326095 0.14511717618803394 0.02979728586709062
Ni 5.229823205019918 8.916124558882187 0.3963332046019052 -1.0259393240281103 1.5415735488033644 -0.5043357690432992
Ni 3.632618573201474 8.250984763622546 4.583600332070093 -0.1010052734704841 1.146454128286432 0.03839479772811452
Ni 3.2942932933843245 9.082374612493858 9.903900750583333 -0.005689851295925685 -0.5399450336064766 1.2570408747977642
Ni 0.3686561904713109 6.899479584147245 12.604487056082357 0.1837228043753739 -0.6412536972499924 -1.2005570807784225
Ni 7.456928129521747 4.069748457812576 13.202186985756796 0.6947293005706293 0.2322346359328323 1.9537545527882738
Ni 6.844503354619776 1.3025123141296464 6.837075794293298 -0.9692765812287435 -0.3721728390230881 0.5368681944533656
Ni 5.46792015575102 6.167890016535597 2.667137159483549 0.9471810348812849 1.2451911745480295 1.2686848867945957
Ni 5.616108452166888 4.459271979819998 5.8106654946449385 0.3467225172707835 0.6349560371667388 -0.26769374807139057
Ni 5.812368380562935 1.2815379706369392 9.136012727294508 2.978337877009122 -0.8780160458498493 -0.7868393284340126
Ni 5.427702270846193 2.3754607178932368 4.654639521551915 -0.2625348295782704 0.2908087368222992 -0.9745332016419928
Ni 2.0925211046548777 8.56392494625775 8.018012289804236 -1.2836661906947764 -0.6014522489823383 0.5583911561268061
Ni 2.284621524824998 5.770959406054263 13.1310938250273 0.07109717305714208 1.1700707392641074 -1.8526058117613902
Ni 2.622593199916006 1.0137847498476036 6.508181524737843 -1.3462964639314878 -0.1783211737438284 0.7028956384315056
P 2.947258170839059 5.291583062056786 11.05650885483657 0.2479165654444634 1.4359672862257593 1.4433923750452367
Ni 2.134088270751561 4.363705649886501 9.29183237202376 -0.8483270034258485 -0.11638766946382537 -2.0793632266297353
P 5.978553296461898 2.281011034463343 2.309069569482669 -0.48431561716763044 -0.9626328506599809 -0.033994611777889844
Ni 5.842778387011102 5.930593329132078 10.326796183889734 -0.23083826980593797 0.41218228953649017 -0.43492549677027675
P 0.9181691013601962 4.983258351636481 1.7901853416489064 -0.3564263748221087 -0.5737141596371216 1.1933073411945447
P 7.0831958501528 1.4065651574905402 11.591641219836534 0.555615907374514 0.32180647075539415 0.08771446989884894
P 5.479254117762607 8.194808139103701 8.714179969244038 0.28959260502701095 0.16700034941437047 1.3151089825850901
Ni 8.439595663468902 0.9773076307298516 9.846849419636664 -0.6600286638646504 -0.9300086368670565 0.04140504530934804
Ni 9.179885768421135 2.531102629720665 12.297641902279329 -0.5972364111287779 -0.9197910729041062 -1.4143252824759514
Ni 7.247454550833044 0.6027564772582612 1.261064256993348 -0.540445884502295 -0.6513529904675235 0.2219484235154758
Ni 7.591288620067977 8.093156085725557 2.7309302436957292 1.3904425623210828 -1.030184986678342 0.3513587304912142
Ni 0.16840518136362959 0.8871039956299148 2.571420082272064 -0.5385116435940597 1.0238698430935915 1.0119841473995992
Ni 0.8325158007624485 8.221579739027623 10.803487923584793 -0.26124079335719524 0.17933161728621372 -0.7637649631130524
Ni 7.992043744824157 3.504604356950731 9.819460872519501 0.06748785843932893 0.3997191240724729 -0.321774074855562
Ni 8.613038781641293 2.2880924343737026 0.9446466510381686 0.3660171038343374 1.3964977673762273 -0.2346944103272345
Ni 1.693357201166335 3.2241678929579525 7.162115772333812 -0.44294193931685 -0.7741421925823183 0.07059812193353648
Ni 0.4146741234236116 4.273638803983254 13.629044653073487 0.6896721977626961 -0.1799409687354385 -1.593372792862843
Ni 1.8831964121666558 4.2581825552958605 3.537741772483952 1.1890069140469781 1.4575223866887155 1.3177209662866403
Ni 5.414777087566969 9.296584633435351 11.08916797345075 1.7991605474580563 -2.7330736615858413 -0.5032967862558235
Ni 0.734745955061837 4.6456216704965545 11.038557831752374 -0.3677965643322633 1.7050998236262054 1.4768475693798888
Ni 1.0590926817313624 6.4658113036973175 9.092921338720405 -0.5639699357661642 0.7868892078353416 0.05559933453185909
Ni 7.876284723950474 3.4262902154979247 5.558611393157531 -0.4992470416664821 -0.5859963194385843 0.06726957178093575
Ni -0.010740278287170746 0.8056911601296057 6.636204115837364 0.7038608305582523 -2.1548022215953404 -1.822251367839249
Ni 4.391361261625775 7.502143007530205 12.16833982039443 -0.31099086819712896 -1.510918800031985 -1.2370934851415598
Ni 4.317104269136066 3.9523889102837266 2.930112994314962 -1.4433301543487338 -0.8466007647633613 0.6428750349034993
Ni 0.5946877757309647 5.253077368457485 5.389895411850398 -0.9796278425560806 -1.7733772678463655 0.1588980320222102
Ni 1.3236169330477745 0.9591155981086258 0.3472547296909747 1.1194922549856074 0.17707624559313376 0.6459667864549457
Ni 3.786818149961747 1.779320371168833 9.062345696374203 -3.8933040177207596 0.2809786381057548 -0.0183299086574394
Ni 3.104091172270332 4.329638626139028 0.842475357035849 -0.6386887647362937 -0.5613037017879107 2.739647201038301
Ni 6.676662079740466 7.137530007940697 0.5910140087341053 -1.391814760078261 1.9576132644127318 -0.13360043379768602
Ni 6.449852564083302 3.4222051503722373 7.89323169572018 0.650270556036622 0.8837647754081682 0.11689906188260513
Ni 3.821713353199392 1.2588607412262345 2.413720749261744 0.2926033668288767 0.024496699589783618 0.32850008072548587
P 7.220878364047254 5.2895172660251175 8.764939927681647 0.7237354579949923 0.7634631156019175 -0.33744057774822533
Ni 4.939281090169518 2.0793539812998727 11.198490457769902 -1.6658246801756664 0.6901648211283986 1.9853004459153551
P 8.834339507880676 7.80822511955577 0.5760528066633089 -0.9657431141541885 0.682663884765663 2.56180836624753
Ni 7.50566044401656 5.64062814830854 4.949852940942395 0.2785165497185074 1.6065350412764139 -0.10053193337849138
P 4.579451059770449 0.9728875716530833 5.87119052675657 0.611092857395896 -3.239987732879278 -1.1549038017156819
P 6.159775718609403 5.971416064226358 12.475401789726908 -0.3489670903305861 -0.6128226956028091 0.5744232698890043
P 1.1615170822744991 1.0451439058238343 8.64981460369876 -0.012800494198777957 0.3600215483725348 -0.3340804030267408
Ni 8.82107933065037 2.541589801467019 7.745407239956737 -0.9518082492406512 0.9412081051273016 1.8139274213545857
Ni 2.241370083585378 6.5061873801901555 2.225079141636539 2.354050889520455 -1.6596938846875802 -0.1391578732808055
Ni 5.798791820156609 7.6010964985246385 4.555041167201651 1.2155921207346743 -1.3904875566264054 1.612865868590448
Ni 4.1046250502751604 3.763154549472858 10.006400524765462 3.543545027616497 1.5752832823509837 -0.3459041351345462
Ni 5.5180761945379295 4.69246499132277 1.0825971600934874 2.026465350189439 -1.7612285482989731 -0.6110501770834186
Ni 8.990642102222736 3.4747992006920168 3.0753775379688917 -0.5679880557866218 0.11687849305731482 0.68761248702019
Ni 1.9745008746113961 6.609179409372626 4.5726367244822015 1.8659608929120575 1.2439984397915091 -0.375461794187005
Ni 1.1372207154335678 8.303299652316422 2.052507938275711 -1.0509700417444932 1.3370942286069294 -0.1879044465568893
Ni 4.507427360287949 2.526077720454444 7.131009722898399 0.3256356146934972 1.6085204471375587 0.25365423925918895
Ni 1.4866938495117037 9.219833797087592 4.465343745183349 -0.9368112616111867 -0.584124299226852 0.12551045770069996
Ni 9.238156105134237 6.470063865798545 3.0905490417978667 0.19733628139375048 -0.8887673708290823 1.0759984454680307
Ni 8.845738607604973 0.16128655990314994 12.899005363024344 -1.1876267458699998 0.35278723540762474 -1.3248598913242668
Ni 4.0825340602788485 8.043260597789489 2.1994883953901794 -0.3906801537986562 1.1555213806950226 1.9060981272525752
Ni 2.4839057041683086 3.261045143739496 11.49204286548627 0.32578576711811635 -1.704255216237723 2.385160980661699
Ni 7.330030559774608 7.961456936012919 7.442266560929418 0.9985699308762221 1.57643179413313 -0.9527199624216433
Ni 2.6884009005284404 8.126822977809237 0.33087166440558846 -0.5403286421981405 1.027655535388269 -1.4292435943486805
Ni 4.139008457198654 8.399619718639855 7.05850028218683 1.0395211764776033 -0.14182462147969124 -0.6955553960163504
Ni 5.836878771317058 0.004340963282763085 3.164039270355101 -1.396937168906491 2.5426289651056018 -0.6561763799980957
Ni 5.886476486852165 2.411714507710268 0.13066625169680438 1.0423049098703274 -0.855771889739668 -0.2906341589176479
Ni 6.4604979274176655 3.7156319353569502 11.425566107510427 -1.3388371794399652 -0.31589756147012693 -1.894640006014305
Ni 7.474934054392372 7.731706917896262 11.85976572558832 -0.6237761092905193 0.7172328809897842 0.5065178642962825
Ni 1.728689757617892 0.9009206350345165 11.621548735358079 -0.022702069583206065 0.30384628673254765 -0.17237652612461926
Ni 0.40557810711299874 7.5545230339367935 6.698294314131547 0.2697426601806193 -1.2357845365221494 -0.24527141451213244
Ni 8.05550648777902 5.529800982825778 11.343059888975338 -0.39002606515442506 0.3878372850332224 -0.6051777774630417
Ni 8.065332977010742 7.515877759524543 9.620944387647418 0.05581402164582645 -0.874720662928029 -0.49164891760425006
P 3.617618288503052 0.21083960957811237 12.33549063551901 -0.27233613193940837 0.8888445039239208 0.6939296874874695
Ni 3.7276358852706997 6.744209887821017 9.710914457520353 -0.7730975533678879 0.7592778738759762 -0.4743420508946863
P 4.210780911217843 5.6928406777395875 4.31732852897554 -0.5493167046293636 0.47637990726032153 1.1666979661371326
Ni 0.7560394733468249 2.62838115095969 10.08818464522822 1.2128739504725627 -1.562975154407592 -1.4388554064068317
P 0.49535369438655374 2.632587186123268 5.185154553259474 0.33259224851698843 0.04530489458438649 0.13352330070284746
P 8.309394681148598 8.440842585397926 5.3449373625377685 -0.726812040037787 -0.06917090256870669 -0.42321052232619366
P 2.0532430638905845 5.533886047951466 7.408082289299068 -0.48613390132329176 0.004032775308476925 -1.1928422286326683
Ni 7.3821686461054155 1.0588507416555815 4.649477823089002 1.9213154584229617 -0.5923009215003735 -0.9744789513652895
