# total energy = -340888.20286715956 ev
CRYSTAL
PRIMVEC
9.12456010269555 0.00000000000000 0.00000000000000

0.00000000000000 9.12456010269555 0.00000000000000

0.00000000000000 0.00000000000000 13.35471603496408

PRIMCOORD
 96 1
Ni 6.650463126079241 1.8579794603092248 11.668630015730058 -0.6001181035519472 0.9296823638758892 -0.5167544544226261
Ni 4.526119502383839 0.40032548252627753 5.970572978824954 1.3300537768203802 0.09308370463056226 -1.1263717557142603
Ni 2.7300684326234634 1.6454593270731515 4.6357830299823855 1.387209914316398 -0.11467608608935734 0.6680373931017397
Ni 3.691495974536018 4.201002295422587 4.849444645708169 -0.4103238961715127 0.9338231255171402 -0.4886101307779262
Ni 3.884973150489721 2.620108356816159 2.5203422397418995 -0.4051096989604249 0.3689993263911129 -0.5206386199683808
Ni 5.558736863518749 4.324028741535763 2.9397070297264394 -0.43655094818884166 1.3642311940330376 -0.8153217521444216
Ni 5.459671512673184 4.88680424527546 11.301402050669207 -1.4698287148598945 -0.18743444889900623 0.7048931284775086
Ni 6.064529488375645 7.821910671714036 12.672663779364846 -1.5418874804993574 0.027881814011932626 -0.7585381674964743
Ni 1.9044964685629493 6.965826178112437 0.37726498135726255 0.5333946340824685 -0.30072368194316595 -1.6286976934163822
Ni 2.812444962736179 1.594945761421402 0.231806716277638 0.1749291173431439 0.8605276592570985 0.5178690276430435
Ni 8.093986809828898 9.110864304498982 6.7155394899210545 -0.3216971988710395 0.14249953605952875 0.22598942635406888
Ni 8.890268935424434 2.537832196866407 1.0672596666539538 1.119966880629181 0.3288834322068336 1.062284695426364
Ni 6.949456716989019 0.8451633074150786 4.376327071176219 -0.37518334371463774 -0.7876407412893854 1.322221682370471
Ni 1.0086288921864892 7.558183506245734 2.411915090059866 -1.0655098872318811 0.05431249739963549 0.9557795751835733
Ni 7.936542522379305 4.0488502529292845 3.81540202825917 -0.4962589055724356 -0.5763315426553106 -0.47773667839853207
Ni 8.219248773208092 4.016029209640025 12.453673420441696 -2.4057678582787725 0.12940542187973195 -0.3913879784989582
Ni 8.175432634794127 7.3043929869108775 9.166170089204254 2.0730419123973975 -0.39571257401624105 -0.7565005682411552
Ni 7.221140499012293 0.5972216312129484 0.22708749370627151 0.39897864636202257 0.413863791003971 0.7126349772064565
Ni 1.6574033764658793 6.837662604567552 9.041356141734289 0.056652972607354045 0.0628974108551691 -0.09132069919286853
Ni 0.3183184971044748 5.127948124076839 1.4201675468279107 0.06495120806040426 -0.11619997893305149 -0.07711329734423493
Ni 6.533714377431456 1.9723740724074879 6.8829806456018705 -0.25862829543501265 0.08974049918994222 0.31390495652013034
Ni 3.474504806767908 4.925720494824721 0.21181024244710886 0.26297603088074706 -1.3529185972336957 -0.8648597109735492
Ni 6.220796707550477 5.816186331521659 4.862118659922453 0.03890696147784267 -0.16535664316336035 -0.10605183475545606
Ni 5.3425669061748895 2.7215095950907067 9.876454146716123 -0.7753907202774388 0.5769133833007096 -0.6774278331777043
P 0.24223243884152693 5.864035525574726 12.226403435530036 1.4046983009091485 0.438938988805044 1.1286163287740627
P 4.160991098640991 6.571873288478352 12.323157535259345 -0.35700101637865617 -0.06651315323088546 -0.13738689742331175
P 2.6531301404313474 8.734978044198435 1.3988927221036296 -0.6359870495344144 0.948764834428637 -2.2507737892966593
P 6.276629891839324 7.818215224804904 5.9858511425401435 -0.27787428814881826 0.5795022270738084 -0.8221539445749065
P 4.770721589527346 1.454920259526216 12.430970602035245 -1.1549613944264947 -0.6215266511347103 0.21035094848586355
P 4.057582457107161 6.284878494322919 8.034130606917243 -0.086125013924542 0.014453199310852528 -0.9044793822477003
P 4.824976224889576 1.0451362578246126 3.673414745906049 0.19057170897640727 -0.33065826471906923 -0.24308803370756848
P 0.09151568967861057 5.775207931351499 3.6990027502697056 3.034690544767238 1.370898321640568 -0.6171488337819888
Ni 0.647259807274659 0.3229665481057395 4.548295833662744 -0.6662016254445816 -0.8004126962430731 0.8197705319443948
Ni 2.128148565327768 6.596336234560784 4.4421662482565605 -1.0760562952891597 -0.39377730466674116 0.666336094139917
Ni 6.338822894635986 5.856370894948376 9.222112768216332 -2.160717044417879 -0.7653366784755464 -0.5404561689149402
Ni 8.442280399874587 2.2300790280979443 10.228297190706634 1.5241417264801622 1.0998266582358802 -0.741740122102529
Ni 2.2140836739455745 5.435874659490422 6.688148472448152 0.1099550264646042 -0.350456530391919 0.967973546146604
Ni 0.2842090659051666 0.05387870347912776 8.97240640205809 1.1925918031847589 0.9819546909170443 0.2963610340990961
Ni 1.5656011755948076 1.1901437696269257 11.168776567152554 -0.9540520509695053 2.0290518799696926 0.7366143708401894
Ni 4.535344432816267 6.710429736170155 1.2898323279388946 0.4929226421103511 1.7895754748727826 -0.09832849796926937
Ni 5.781576874419584 8.030780980842325 8.090354322385624 -0.634292692551127 0.20647038248453473 -0.42482311822895225
Ni 5.639981948158051 2.80902325263513 4.809968148158362 -0.8144439775251587 0.05083199505020278 -0.3053670942524483
Ni 0.9198560453248794 7.7401819853804525 6.824687479864377 -0.5604197565210607 -1.1862866869023374 -0.13033230456937553
Ni 5.134152825060075 4.782638265239266 6.904147800514972 1.2774991426521158 0.5233580757820729 -0.024077352664177886
Ni 0.8138980016517622 7.973506116030902 11.543348890774299 1.1375295721032925 -1.7151872897691944 -0.4959004937917524
Ni 4.634245541576981 0.24128713439761054 10.140262520770824 -0.4054210595532566 -0.38396468945169354 0.7409039993544789
Ni 7.967191920324433 7.714642341186224 4.752663172298051 1.29399842585872 -0.6688886853584416 -0.569820223899354
Ni 7.348619730536968 6.345191837704072 7.169105869163625 0.4520055921810151 -0.4534708638726319 -0.8840547958447613
Ni 2.681096917657253 5.520322464784307 2.3728254738654844 -1.1761079465971227 -1.04718872032519 -0.010245331877092033
Ni 2.199621245918475 5.560926757983419 11.259160811357752 1.543218283495639 0.33288869671148474 0.8017599542995869
Ni 1.1806542269466838 3.270251525135969 3.817605609564245 -0.051229744709253705 1.117412232528127 -0.6660015936186336
Ni 1.593038728325084 1.1973156739987239 2.5912820460128705 -0.36928677572454466 0.24783557569488285 -1.728237180974617
Ni 1.3188000694263602 3.140774014912282 8.004536920595294 -0.9280851945920985 1.0489198440836838 0.5069577800471785
Ni 3.9994498836304095 2.8698293222708346 7.06614068125889 -1.4374698389132146 -0.9356984881629821 -0.6337866994489859
Ni 4.149293412375538 6.818364159597638 5.7582864343317794 0.34515234457018623 0.7876625956662564 0.1252623462456359
Ni 0.6893796899345291 0.2849810037039632 0.19501101453499972 0.3478761712592525 -0.37988254896251994 0.40546219720383725
P 0.26103359527675635 5.289607958370923 7.947832340800713 1.1007383714168721 2.3584215077843256 -0.3804654180491835
P 8.486488894380136 1.7644070947458772 7.980938982826407 0.24141578821146809 -0.27874203546575216 0.10893738383336724
P 2.048153545445382 3.328520967016762 10.287792061031615 -0.11024247579803595 -0.030444946753418536 -0.34777332713280107
P 4.374432812464279 6.194636593257925 3.4019937512185354 -0.184822722307772 -0.9684849385653836 2.1345740674739235
P 7.109209518186785 4.031559211218651 10.242947584675285 0.21354580127407738 0.032434980600253814 0.4879231320132307
P 6.480855799790455 7.922536322365678 10.137151045718937 -1.5300094981148489 0.36693344500101965 1.7468504252004302
P 2.544657367947966 8.505905958633555 5.6611573151753944 -0.10938012779774064 -0.3094687751256477 -1.0626474780824213
P 7.42151584252971 4.202516972427318 1.4465557751271987 -0.7957440871228102 0.4084058532131934 -0.4164960864204956
Ni 5.574732217671118 3.1879479915054083 13.76283612931145 -0.8822894764142225 -0.15246513191267289 -0.6554168761242519
Ni 1.7198336178295484 0.9316449771930262 6.849513583445532 -0.8779581960287203 1.2624486760768967 -0.04674496946502272
Ni 6.702263254728985 0.9107597711922514 9.242278046411847 1.3835075257641463 -0.46161817557011464 -0.8245635824576639
Ni 2.772771374684552 1.542835397722496 8.940074435199273 0.23460416460627337 0.13729022394444743 0.9824511709374886
Ni 6.76100717374379 2.3815923513723845 2.2869688364659946 -0.3616184605460095 -1.9688088760182352 0.9652998559691828
Ni 3.9651597861377654 6.905385090887511 10.041918922642573 0.4334386278121052 0.6680330222263656 0.9281222184776209
Ni 8.348945272878245 7.415302016986207 0.2096760078000814 0.5061869633194249 -0.4987461907706637 0.28668674423412566
Ni 7.626316597777818 4.014706148400952 8.058769657012876 0.41911655476247817 -0.9203687997844472 0.2019033319391426
Ni 3.1518147328383326 8.815703028902378 12.142629022784037 1.2853001267537736 -1.4348779098163225 0.5139774058981212
Ni 0.374620683791172 4.8881911784364185 10.080379856634389 -1.4384692267120065 -1.2324166484911807 -0.26404895222995173
Ni 8.892632196534224 2.5975250701492367 5.95075443391968 0.1410777160113377 -0.2740711123526441 -0.5019317875874969
Ni 3.7149917172298865 3.2586542090334807 11.681596928328991 -0.16358463886460214 -0.24173074834872563 0.20909162215746568
Ni 1.2809787671094344 3.5298178911213953 12.509175383192762 1.5336638070379844 -0.5020955668588707 0.1437444642102234
Ni 3.4293473579943328 8.481123652941692 7.760852764214895 -1.2860835418870173 -1.1468706469985603 1.3094317296946545
Ni 5.7173582192431 7.875599584339559 3.481894788130146 -0.5482514965896429 1.2440629744808576 0.5055236187038132
Ni 3.221161390886255 8.477227465706632 3.34578372259056 1.0181159713289498 0.03719460677242627 1.5418579128130026
Ni 3.6961312511529054 4.401368514379735 9.059065088305264 -0.5467394308204907 -0.005419371243358409 0.41741499869033916
Ni 7.503682507756229 6.1909685200296005 11.239382414517662 0.2979538325075127 0.4074638010148982 0.9415960845943396
Ni 8.144190140431485 9.122032766268806 2.313785006641921 0.5931380726896881 -0.2722546279691956 0.5376400396223838
Ni 5.032459600856905 0.4854475928240751 1.078189977400744 -1.1564189528086277 -0.0443993520509816 0.9702078347937613
Ni 6.436510436880861 5.5348122664922155 0.11537276495914969 -0.1729902484492182 0.45775612151154715 0.5403345557354113
Ni 7.948386201609069 8.931785684650492 11.366773137807723 -0.4166953469154953 0.4717298100828199 -0.46785592894971034
Ni -0.1839146367913052 5.280437775300113 5.7217343583483355 0.46453894876133545 -0.4057018240184691 0.7774997962006417
Ni 7.48120871581254 6.348093447869761 2.758309859113479 -0.6387612698454418 -0.7664862186989574 -1.6339651124629084
P 8.566867145793841 1.884285567566088 3.4817351083254304 1.2588468176582515 -0.19992975315253952 -0.29087044329817
P 2.103913733252073 3.568715891550118 1.373732659616611 -0.31994113541188124 -0.8023271396569666 0.10760632372676951
P 4.762974837858572 1.172943973518987 8.093665625307413 0.9600707463597595 0.017063897460822226 0.4172337359174685
P 8.68898113588007 1.7775373369736351 12.418644233567226 1.148973038053544 -0.26707076977541105 -0.5867789632408797
P 6.505793223006898 7.814455905973884 1.484951012285074 0.5759877861626467 0.8578079463330903 -1.4865884508167364
P 1.9325727405120883 3.367637956891952 5.897856620669519 0.6195150200213201 -0.43653834978335143 -0.10177711863950213
P 7.080549274380401 4.0198341512723905 5.8873195784703425 -0.8213980402454885 0.1412846898158212 0.44669240749821787
P 2.3291352543832393 8.747907546100265 9.993000330125925 0.4517369119006607 -1.0958406770049387 -0.5191278397508091
