# total energy = -340859.9229995985 ev
CRYSTAL
PRIMVEC
9.39528345697127 0.00000000000000 0.00000000000000
0.00000000000000 9.39528345697127 0.00000000000000
0.00000000000000 0.00000000000000 13.75094702907919
PRIMCOORD
 96 1
Ni 1.6073075414333498 6.6319522005103835 0.13488057077746415 0.6042719778193206 -0.3105578944247684 -0.7698559065021386
Ni 3.603965031571015 8.994142595362947 8.752849163191819 2.1265877068343375 -1.4646060330083743 -0.5680592753441894
Ni 1.9302140443415472 0.3395258201124895 2.066547125967439 0.10537640595498625 -0.11768324834679733 -0.6027776526619812
Ni 0.6007551046075402 4.300474987828 13.558888120995416 0.5289553673641922 0.11533660249149169 0.12187388938937721
Ni 3.3776796254624886 0.2545304472704138 4.37260915691579 -2.7075665184536724 -0.0480649738280269 -1.9525304505731857
Ni 8.538161295190013 0.8718221905863458 7.8398004680588995 -0.22781259560573672 0.17044537054017742 -0.21886978459015208
Ni 8.329059862831643 4.359017000095479 4.920433112636712 -0.19961967811128847 0.5951749006140589 -0.7396523863355648
Ni 6.097811535860936 1.6071102404772246 8.478572648326708 -1.1600215825582214 -1.2766725329857627 0.1854870953646483
Ni 4.919060461699097 3.9184157792166974 7.97102533397787 -0.8283744715633218 -2.6451087662390833 -1.7476472100701128
Ni 6.288967976495526 8.475118942066151 6.8412471757114295 -0.5832640081090859 0.27426754463416636 -0.15429858557698586
Ni 6.604123370413084 1.1429926246850266 2.4839983679941793 -0.30385862802772184 0.04484878088357437 -0.3066140792856719
Ni 4.245446811636278 7.181792384097233 3.8629028063899242 -0.30132223475911335 0.3769898007957572 0.40301296433239625
Ni 3.357667671341203 1.8618351701186762 13.671934052628341 -0.027713149644552276 -0.06543663233725504 0.8585602511180827
Ni 7.90752167242802 8.806161760593614 3.526142018248277 -0.3798231564794942 1.021485402021815 0.6798760376078806
Ni 1.4058914510802427 5.001720167031993 6.317845320245376 -1.9442121605154776 -1.4726237611065285 -0.9111475382964952
Ni 6.2850313526566435 4.846369152292342 9.352871435676608 3.463767810286854 0.9130229009423372 1.133391638675519
Ni 3.536854520637521 5.338475318003466 5.675895655055589 1.5877050530541044 -1.7093429151732757 -0.623957629173706
Ni 6.2857829753466445 8.571561528476947 0.3106315648521133 -2.033479062503111 0.5931666119347785 -1.6422636050262749
Ni 4.189178458006053 4.100430608884145 3.624268239484676 1.0825488449920389 -0.8433454910508572 0.16869290662544498
Ni -0.26290352403702866 2.6568546751839603 6.20268075215501 2.6586294264333374 -0.1260349627456023 0.4371235328628601
Ni 8.825027490112648 0.49926443230502265 11.950728427337276 0.6488669908208762 0.07384593944687282 0.7605919647017094
Ni 0.34033099591915345 3.425219760605073 11.191483343730969 0.4542841038025467 0.8640302730937184 1.3293120135583494
Ni 2.78911208277332 2.830263425050893 5.0673481022094595 -1.0767646342100938 -0.24681510485016847 1.1782982693802224
Ni 1.0643822865945123 5.801305779939035 10.363305064167912 0.3943036094838564 -1.31894429717078 0.7156899619826964
P 0.7533119619971106 0.1641900975740661 10.256762547860223 -0.1790318266576078 0.9083851450600097 -0.6508156299068146
P 6.484521409866622 3.3874601157161313 3.7301230210310137 0.24652508441357543 -0.5758065233897761 0.14039483101170014
P 7.505704182353308 3.031764072956625 7.97224953943421 1.9309383262247068 0.7698376516696935 1.3464777267043584
P 4.938151678025131 2.341135564248901 6.533611766807334 -1.7209519601671137 -0.7302100099757424 2.0165257224782236
P 3.3866709118916294 5.039752275146061 0.09393122709782904 -0.31674782528556417 1.3530175847054051 1.4518672452854673
P -0.20587133384809 6.442862722273298 12.468781547835608 2.749512009647523 1.7585558865628166 -0.20611916979270306
P 8.234815772789101 5.895512288847078 9.9269739996967 -0.615289669086063 -0.1317572099413602 -0.34731515654945994
P 7.573068365944677 2.071631853465298 12.656522802872503 2.217346619986465 2.5825795373566103 1.016973115973758
Ni 4.138876109477713 4.5619833122467135 10.123241474623299 -0.7103749775276863 -0.49061302014056796 0.8214008684589661
Ni 4.904262889989695 7.264170230921379 9.942993897805717 -1.0903439155564254 -0.8975253195273702 -0.1384724171780067
Ni 7.937483231908198 8.999648231567207 9.932185563523499 -0.3445638190565679 1.0593757493096854 -0.6007233412361138
Ni 5.756509067614956 4.648325968760616 5.315250176882424 -0.42545586671694463 -1.9063804343796844 3.771123652834557
Ni 3.1470442030355796 2.2664900358481437 2.6751782968378306 -1.1655612814295282 0.47102661336820817 -0.24039300337390856
Ni 8.506283097850332 2.129694706267901 9.94451969186642 -1.156495314572518 -1.069960981024699 -0.8417629770550857
Ni 1.227803849968052 9.00490019511359 5.723254461224211 0.8837850871231424 1.0478934597016987 -0.49127225099112176
Ni 2.6957793352424044 7.04164293826286 6.709527178345422 -0.8349624091934846 2.965307011967093 1.3006179880577664
Ni 8.867428405112348 8.109275992991627 6.917317968638102 -1.4819398963011317 0.08091441625788 -0.6855260368048065
Ni 7.550228431452261 7.852935074566673 11.93061030651103 -0.2363676842645994 -0.7692699520916817 0.7243142133165977
Ni 1.529035433553336 9.321276975902402 8.230203628057579 -1.5323219482981094 0.6528619709128821 -1.1342174770109241
Ni 4.962767321122674 3.95102680867913 1.3274549257367911 -0.4275934818852378 -0.2332293957459338 0.7711028915353624
Ni 0.4945846415314019 7.457027217892096 2.0214168810746713 0.19579413371761117 3.084537550196352 0.2823418370018686
Ni 5.7237477136145225 6.11104009520496 0.46777989734922937 -0.8660015378874762 0.7093730186257331 -0.2994849244400584
Ni 1.6583709079353153 7.06394734158865 4.285510180070073 -0.5189131526368418 -0.36021695221279254 0.23380943661911988
Ni 6.97718189731162 7.344988460663773 8.692152812389123 0.5227168426536482 -1.0382024576661797 0.4428763761862373
Ni 6.487687620448253 3.3453222686579314 11.171104973548307 0.29092829311929896 -0.8004018976097957 0.005097212017249286
Ni 0.6754231816889975 5.30496234131303 2.2177256952492197 0.6264587983290051 -2.1254610494290618 1.2078767543682876
Ni 7.812892375756852 5.075764397280749 12.826141495325103 -2.146174113606697 -2.740916297558712 -1.5501265805796982
Ni 3.0280153547902438 6.391245034037457 11.713152708896569 1.6088768020357131 2.330140144341129 -0.25162615308556663
Ni 2.7564728674600123 4.998845210242737 8.112055117887907 0.2800728384620338 0.1855338894421837 1.4031278710982353
Ni 1.8949347543296098 1.4513270426908231 11.91338029587111 -0.5286486347570508 -0.19342151972037655 -0.6918136695857312
Ni 0.7211218412410786 1.8229199053438572 3.8082833250358896 0.05335270458952747 -0.1660171595654947 -0.2923359721001029
Ni 3.855974724244837 8.058616623685538 1.626682495324859 -0.06014967290670285 1.6879320535976672 -0.700633067649574
P 4.738135484932151 7.769984115441401 12.30808743529841 0.755428418222899 0.2575967688467048 0.427282121292406
P 1.9143642008661441 8.873958127231734 0.04086384659864745 0.0019506959684676083 0.41109291312705337 -0.32288607697281807
P 7.583572293037446 0.32696150732075474 5.698639757655029 0.5231539301910667 -0.4256582125357379 -0.7187991970356394
P 0.5730859943318661 8.930912336566585 3.5482810645822664 1.693032093828394 1.0477607907785762 1.4679896047686267
P 8.248438934045375 8.61769237107578 0.8774960023674933 -0.6116464159065208 -3.7351078968615803 1.0419110168660186
P 4.518182499986886 0.9880174212903768 1.804523000477712 0.11236209324420005 -1.451906583163835 -0.23624838507791568
P 1.976222748253254 3.6392255310157027 9.790990422621661 2.2847830563625684 0.0029166594261627187 1.3582245828276414
P 0.7928585898315308 3.157632687680974 1.7079225733020158 0.653749515724158 -0.9499922790778348 0.48084359945863
Ni 7.091907705656699 6.359592323504776 5.809678856705651 -0.4523760881465564 1.0822567676729167 1.1179305669254425
Ni 8.122166322125151 3.0223030223462337 2.4720898459994705 0.7587996486879771 0.24569924607817037 -0.805267196121897
Ni 5.718007195319639 2.0872656054173255 0.3538038326374273 1.689003689395291 -0.7446215574153822 -1.1220109076424032
Ni 5.14099585148924 6.082450247134035 7.8185135739497005 -1.0017092478361522 1.911095837577483 -1.595662360227968
Ni 8.255203538255387 4.994363659953605 7.537114494568463 -0.07876394557378047 1.0134676739236612 -0.03300293728858187
Ni 5.525253556468797 9.099407353097634 4.242730635140285 1.8528914613226088 -0.4276523601476312 0.6843186467602665
Ni 3.630018153063186 1.8689473998228137 9.098163417545681 -0.41138961843186567 1.4791479353782915 0.74284183980714
Ni 8.203228829241795 6.372755115863424 0.973170054577763 -0.3877187571774871 0.33910948081021597 0.014373752223168793
Ni 1.3278918064253542 8.03402916643887 11.654408698031151 -0.9764137064941572 -0.2700617340829349 1.2075826201666364
Ni 4.94908778816465 4.231598163573003 12.63342167949531 0.13476900018449048 -0.5099256044262508 0.5643663998736345
Ni 6.205753949428753 0.8419884069634678 11.943728941036639 -2.4603081554184985 -2.1164506184003353 -1.1097757990287918
Ni 3.816382999049017 5.790172368843391 2.1533153888295553 -1.475944083729013 0.14210178640047783 -1.436842489741861
Ni 6.2691439280467405 7.6292615573059015 2.3683527613822117 -0.4314059136527925 -0.2934613439537978 0.5517952480768432
Ni 0.5661325449209913 3.541298489792154 8.37003645283379 -0.793888264860994 -0.69828565046332 -1.1672039592392736
Ni 5.925953007792132 6.048270205306224 11.636780327365532 0.3381190918724886 -0.04988531486621731 -0.5208275960507353
Ni 8.856830525183328 0.9986622776375207 0.6677819975167715 1.5773023696635415 4.555923068020405 -0.02202844055494916
Ni 6.046813936344346 5.507853491195266 3.406027075215889 0.4289602803257774 1.056274227566226 -2.846325870744479
Ni 3.3885405733330076 9.189395379658043 11.023254213726506 0.8969751034508552 0.08372617467506226 1.2335880430914625
Ni 5.000949753774742 1.9751892670545022 4.530428312663732 0.36113740714453285 0.03156131974604887 -1.7010171689163995
Ni 7.007462896435049 2.4424073264429556 5.905742813186359 -1.5508650014076195 -0.2290580379770636 -0.7983635270235283
Ni 4.071070347555968 0.08428790798511195 6.461020047407005 0.13764683595291777 0.2887608531543349 0.9208454823105494
Ni 0.17604412692374963 7.359870589925799 8.951440091758883 0.12888605904115222 0.9130193013979115 0.36455440324588184
Ni 2.6639856954553482 4.326847548963421 12.037469443876882 -2.064164664512426 -3.398719414526953 -0.5417386351717896
Ni 8.088991575645217 6.500192742953151 3.7485358978793215 1.847422724898554 0.17326689914937254 -0.9402822508789225
P 4.24182023215702 2.364013079875816 11.708615726434045 -0.07551021452317318 -0.4491616949743168 -0.49788744231479404
P 5.564234588228991 9.248604457062898 10.067316048845386 0.5535099167751049 0.7426693187850176 -1.2350296606339957
P 7.062284376387022 4.503929854727735 0.98423675915967 0.0740084331666661 -1.2110651793985983 0.8172297678004119
P 4.771056558754209 7.147321088477048 5.890740424293932 0.8775753587680049 1.0752201725411097 0.8715363516627765
P 1.5959110623962045 1.6783264903548507 6.705443048553627 0.22510522397690264 -0.4090162331036827 0.05065253204954502
P 9.322968126954905 6.357102573344146 5.829219167588961 -0.8043899357232662 0.056210999973929004 -1.088241781611758
P 2.4621092362046153 7.0882529403265675 8.969770290111292 0.13595659273468844 -0.14640684153373495 0.09559592952945471
P 2.3811218913569716 5.038446330722183 3.8820297247937328 -1.5959174136615677 -0.20770014112657778 -0.8215479355597917
