# total energy = -381164.0396834661 ev
CRYSTAL
PRIMVEC
9.25403925305651 0.00000000000000 0.00000000000000

0.00000000000000 9.25403925305651 0.00000000000000

0.00000000000000 0.00000000000000 13.54422185947973

PRIMCOORD
 96 1
Ni 0.47847362670233506 3.4766500429519454 11.718690783668567 0.9776012990443551 1.4950324678190317 0.19125022310067064
Ni 4.5648417840170845 6.401490973574093 2.8804363482108495 0.8136106829905859 1.7437818135774357 0.28017131171311105
Ni 8.012063981839834 1.433682046113365 2.919619801621553 -1.3056028428668676 0.6380426465118625 0.7741643040695054
Ni 6.954530873137281 9.128582337351661 9.400705693038638 1.2179562500914765 0.24367630211087066 0.6474670251495559
Ni 1.3203663342872676 8.005937807790927 10.701546929703866 0.6310309910807197 -1.2093348269710527 0.5751799455493707
Ni 3.282379994902515 6.3239976480672135 9.66057855143567 1.4179160851510033 0.22223304463543017 -1.3994848750290092
Ni 5.173341141397651 7.766933733529381 9.138232449584592 -1.0332546267426013 -0.9843789840878209 -1.6011961455620036
Ni 1.7436090779441393 5.752893863695161 0.7452805367834251 0.3709153124669031 -0.8751898892549638 -0.17889581530037577
Ni 2.4088912207689637 5.767570770102363 3.0502942404581357 -1.6840178061449256 -0.333576981027761 1.5015993224032718
Ni 8.81546266194555 9.110231577322985 1.1328767208687063 -0.925697153975896 -0.3526028873109605 0.17613882138052891
Ni 5.814100079948147 8.813001087478767 0.5374681275509566 0.45054417714414025 -0.30682465263458125 -0.5513350206109731
Ni 5.936743863437838 3.8468949032582196 11.451396185713794 -0.4230747680792778 2.4136606307632884 1.0445348276421107
Ni 8.699805678164205 2.4172938884976767 1.1176445721005759 -1.8301305134770094 0.12601825057505392 -2.5305103274651968
Ni 3.0039166968576727 9.134134760960944 7.440409582126529 1.041919758616767 -2.673376502835525 -3.211689143044901
Ni 3.050196147641038 2.8914153404942695 0.02555965668139496 -1.1527317337650276 0.49280205737208677 0.31892606388380557
Ni 1.6857435698960717 2.498488829744078 9.678728498810479 0.05603307963516802 1.3038544927171931 0.10916724045598619
Ni 9.16570954321906 9.141010512197104 12.192278277594733 -1.2688445523009113 0.6127486478317641 0.6254990055188969
Ni 3.718754220395339 4.319452422604865 1.942959593596062 -0.00047385431262499036 -0.6473358988883302 -1.2337924457927847
Ni 0.9999729839529966 6.049235965761892 7.243165285830393 -1.1603792230079564 -0.11080246206656401 2.340230952918228
Ni 4.242292242514543 8.081654357742835 5.0212361982371085 -0.11993604893671603 -0.8381179241033307 0.3601228498370895
Ni 3.0238221354969492 1.4860876709456385 1.925866457514887 1.576279584825982 -0.032828359383930555 -0.39658083555380735
Ni 8.910686726844736 4.717042969186854 8.640184678851668 -1.118815797743873 -0.31594821220240427 -2.362633488983144
Ni 5.4834532540154015 3.3086522126137683 0.2524057740464822 -0.15465134093071428 0.008328060249721141 -3.676352276088927
Ni 5.366232337584108 6.518637857690595 6.473176463985664 1.3236905536065138 0.8562362309705963 0.3565382178096247
P 0.32390803447894645 0.727942168659507 10.215269371618685 -0.05084047969063502 -0.49871739441525725 -0.2121728321859507
Ni 9.156214898847187 2.089488052645015 5.169545134456771 -0.12343403478764549 0.006229011628847337 1.1053090215066899
P 5.706623666951144 3.508789321610339 2.1311562156208717 0.39419073805507593 -0.5460357198852467 5.048129400790022
Ni 1.3554021272618373 1.0766149378397862 0.4415361286415863 -0.11101766340116366 -0.2081079180879577 -0.4247940647632297
P 6.63777436026709 5.825334483717594 4.789019961837911 0.6262873057481472 -1.215017993398759 -0.17436681708177065
P 0.5988908883247043 5.966875015557541 12.30877182653321 -0.40574373299999805 -0.5810083793056897 -0.657238502714023
P 3.5881612171050254 7.135280769698109 7.538673598951798 -0.3629929722960329 -1.0694367330901131 0.2000202559838168
Ni 1.4726600598505248 7.795463936841743 13.221692987735949 0.2421565230322346 0.1731152040628567 0.615431851090882
Ni 1.041051664622335 9.228137292666087 5.703390305602672 -0.6366457661643358 -1.6098805607098792 -0.633591038498412
Ni 8.822153332394734 5.126497194214008 1.4649569974965808 -0.2372025214610689 0.04064785542834935 0.841797429837447
Ni 6.212107058300832 2.0954198918675977 10.297834836092644 1.5907980901571315 -1.532282867530058 -1.3655041472081904
Ni 1.2980826075353489 5.571949632308009 9.972543322731052 -1.5134130272087485 -0.623679692921971 1.314235064620569
Ni 8.229191507080808 4.7219661181204176 6.259990234103345 0.2699709741413415 0.17857468451553116 -0.24326261161221974
Ni 2.970167215352587 2.9777370195399078 3.915539516339774 -0.7126879419315791 1.9028510810701875 -0.8683792940910334
Ni 4.12112910532066 5.426365085272633 4.939049223972517 -0.1154607867741818 -1.4103830099987518 -0.5939657107973061
Ni 8.737719477376253 6.990482816007383 5.583456104834311 -0.044039140498085445 1.3622689281003444 0.705035567592644
Ni 7.107398349140165 7.418889313620886 2.1378468860700566 0.7933118235322337 1.8778499310401595 0.6000941922925472
Ni 1.874424178178824 1.3112325974499988 11.660572640346277 0.8082396484866596 -0.3791137891172955 1.0469519217240355
Ni 1.2078094536877717 0.8447744154381498 3.29483500646207 0.4451158070397173 0.8144714883289844 -0.550017073130498
Ni 7.390636731488989 3.7876505433471808 3.9827192149924118 -3.4714716066890143 0.977503082903594 0.38899428145580106
Ni 4.148641364304652 7.014274951173156 0.35057447426645827 -1.4230109831754072 1.2389840172960531 2.2222178320358372
Ni 6.910352089286094 1.1306677816761468 5.123683966251972 0.3806117138190606 0.1618378313768245 0.08371948980684292
Ni 0.8469898324582533 0.3833254449258084 8.034202420173976 -0.9849358850325555 0.6767686023271505 0.7717927185135353
Ni 5.895396815627384 9.13754950148065 6.918943539417523 0.23903931755949157 -1.5849598862087995 0.1391005376803088
Ni 2.870704800431648 8.048608183228259 2.2677902557980842 1.3731549788852289 1.5162980620660271 -2.9750916021576828
Ni 2.1893021210612083 6.671958781621569 5.616680882308319 1.2298925965177465 -0.4324896336352745 0.18614966864931168
Ni 5.721217287004207 1.3868843691264663 2.0397873835143963 -0.20552704473465894 -0.8637541366141963 -0.053654809210978566
Ni 3.5257334676579983 7.5018517763829085 11.599935547513244 0.14129908799352442 -0.6401347531542008 0.6113859631562826
Ni 4.024831571857011 2.6761108610050104 9.786770333611692 -0.5894696226991655 1.805476462373755 1.271222308504469
Ni 4.888002092116647 5.048059956693551 8.052053462077819 -0.2522912974733913 -1.0919493123703323 1.2833746275962867
Ni 7.349456256386815 7.403925531993871 7.666611618352938 -0.2747043750612688 -0.5721306172000856 -0.6587567391307623
Ni 6.639643676215548 7.971299938508356 4.808781037463346 0.0037633236971741637 0.09483051211833991 -1.0119370962117473
P 2.0562290352254156 4.327503436838324 7.947071938089254 0.9304660361194491 0.2917880700164329 0.5404669675482175
Ni 0.5199770677777834 7.276700999026522 2.2883508804232555 0.2509520098366775 -0.25306417108367385 -0.39879789780978414
P 5.163032141563084 8.619341806026359 2.887194573147281 0.2606597240427446 -0.13700945947923499 -0.0682375921211599
Ni 2.3704036711172902 1.815920141415689 5.705286458265242 -0.45388301170938605 0.39870610942692625 0.26600890416979994
P 8.11356228541751 9.035014745495909 6.427843701427681 1.0976111386418 -0.06996897298996982 -0.5122449965880468
P 6.70860477744283 3.632312238838167 8.24375829041976 0.934500611200139 0.3665359524522849 1.4264830008844078
P 4.494760944028596 1.229778543101831 6.246364586566166 -0.4994781838406817 1.6574194868311067 -1.2304003893921003
Ni 5.8972013533004 6.1449875109039604 12.9974824207774 1.5565592235789194 -2.266171354798652 1.2511947004296322
Ni 7.733239776260389 4.191330247820682 13.156396486090792 0.028884030024201868 0.370107214743311 -0.2333633502206368
Ni 4.880950514132859 1.0327692994051558 8.59226448689176 1.2585218302186647 -0.8066216532672624 -0.14360433908793332
Ni 3.590863396594876 5.184936452701702 12.81964662120751 0.08429156026022903 -1.5908060605769312 -1.2006691808762548
Ni 2.8422301213553802 9.132496795996206 9.610777013276149 -0.8850372143626886 0.8718788226038597 -0.015259240151915657
Ni 0.9249180978145266 2.6695034769099646 7.396174348635313 -2.6104844912969942 0.18202613339924134 -0.5152403317709449
Ni 6.29532863416462 5.457551197878101 1.8454812447115065 0.8210658537170503 -1.7171251302218558 -1.4082219977916908
Ni 8.736673770929837 8.774837429204302 3.7004848959129317 -1.018162765406485 -1.7024364178614293 1.3287137178527182
Ni 3.412010578100553 9.141945170171333 13.206198949654246 0.4310567578434899 1.5052865414468721 0.5018736806560519
Ni 4.652597839161786 9.313357741029218 10.727091779922302 1.809049524436994 1.7611107917741864 1.8768924522228965
Ni 0.030609585954036966 7.66494496586622 8.722167138846652 0.27950513888402184 -0.8056140379383544 0.38429456198728656
Ni 0.046135087769524415 5.5612612168601405 3.9743220996873077 0.060634325852605246 -1.2610433110889379 -0.8763633407377747
Ni 6.246578354875124 3.4803053884947226 6.196400177314108 -0.8365559789328496 -0.28219759811452044 -0.2523365488890299
Ni 6.610585992660305 5.923381030618166 9.331169915967795 0.31239134808908137 -0.2864394041100099 0.8130769219743028
Ni 2.9691030008274746 1.9295227284615992 7.890592685135637 0.2476080330651091 2.1220489384237196 0.8371445044464679
Ni 8.420407722145132 7.307257836956271 10.92605640213338 -0.4506956151203399 -1.3026561015337177 -0.625565082870142
Ni 7.743650570527793 1.5251582250762865 7.765106060757994 -1.0746951532755749 -0.46897461593518586 -2.1381687268037175
Ni 8.109869923717337 2.0084596841068922 12.133347629617619 -0.7553625979819701 0.0377893029336317 0.09751345826714175
Ni 8.676309672257593 2.510222951638361 9.405961061984824 -0.9186495031004954 0.74173806522 2.290725389988932
Ni 1.3856998520898196 4.2251722697192555 5.6390691797048795 0.6111177970965604 -0.039696804368989695 -0.8332886210354874
Ni 8.129358930585918 6.872493814310139 13.26378868732972 0.21685558237360072 0.26558570058945224 1.0437647822453056
Ni 5.257534391393064 2.418959615580462 4.157412342799447 -0.44242489047111544 0.9170605613468206 0.05635729574380616
Ni 3.7844208836144477 3.6941569838062196 6.591485655444375 -0.555919554657862 -0.30146004588855824 -1.0565827599455802
Ni 1.2935018580576914 3.1773281402148994 1.7394577158922662 2.0366062952781827 1.6041372304681984 1.3409028037197424
Ni 3.4349143254888417 0.7043045759508586 4.086372784334424 1.0562456883211357 -0.5562679391362162 -0.8130887490488449
P 6.556051938777807 0.6017050416906754 12.205687380611149 -0.972750398709957 -0.024404654096609586 -0.12663454400281415
Ni 6.256193301758532 7.794177625372259 11.562431702244346 0.08644820159191563 0.7928677940162796 -0.6593743181101032
P 5.075960885330193 5.890825320189076 11.089074633897965 -0.541427531689274 -0.04312331355203541 -1.6089775892796356
Ni 4.389579532790097 2.013919567322686 12.0248042258837 0.69718984629598 -0.7374844321499686 -0.016542734850029574
P 2.651393321904356 3.585903231503918 11.512385857446018 0.6030558460240323 -0.8110285240857065 -0.4531898422971034
P 2.0535823799716577 7.847138492565461 4.04089195714686 -2.177730805367056 1.8690444169333873 0.29068558098087355
P -0.06277107430686826 3.2379976221856546 3.4660069722968863 3.728506846605295 0.4194045183165422 -2.0900770135028135
Ni 8.064747227852573 4.777666180960865 10.606047094432085 0.07064311623885898 -0.1556622986937319 2.759381960463067
