# total energy = -381174.33873987 ev
CRYSTAL
PRIMVEC
9.21932751652805 0.00000000000000 0.00000000000000
0.00000000000000 9.21932751652805 0.00000000000000
0.00000000000000 0.00000000000000 13.49341772434298
PRIMCOORD
 96 1
Ni 2.863670612303148 4.903271641324311 5.900765993092255 -0.3855009235905619 0.8398583038332053 -0.8903820236143697
Ni 4.135172594934478 5.643906311268466 10.59434310984637 -0.13626923887910078 0.6882028123060211 0.4036048322801242
Ni 2.793474653170083 4.4716503885356715 9.235016892082719 -0.42401990560136654 0.5481301405204303 0.38193763171933576
Ni 8.373113032849819 0.9467419542071966 10.988715513976576 0.4769077547393335 0.9718407424114941 -0.8237112617596974
Ni 8.995270125854255 4.197403055158827 7.149932311133137 0.8272329017597109 0.7105595827346666 -1.02922545097855
Ni 1.9255579485803944 1.607472713223287 1.1368739878810907 -1.3815198059101563 2.6645578761026303 -0.5642558424376992
Ni 8.264712180802723 5.165791990196657 2.0370611043112663 0.03363285756309691 0.40395707341322035 -0.13351070229735718
Ni 6.132724271498864 5.081794697884947 9.267616433912837 -0.08809242206355795 -1.884800908436696 0.7341715657266518
Ni 5.994369824597116 7.238969809756646 1.1868851515156094 1.8718739159623825 1.504984436825421 -1.094655655557902
Ni 8.255612704618809 0.4388731757534517 13.563988047214234 -1.1511253085098563 1.6176676608544656 -0.2946329956643958
Ni 6.706341605528308 8.8419434911889 11.856963192421384 -0.23226214673665804 0.36249417828274344 0.044253570501736686
Ni 4.000312273132734 1.688750303940007 2.0181292154119035 0.06469821150933375 -0.8593891747772812 1.4327212684846358
Ni 0.9143747394285828 2.379609825032123 9.874199317071792 0.894197283595402 0.5553793658836758 0.36443510405919816
Ni 6.114534538458472 1.9846907147846866 10.37921747948089 0.13813046045755564 0.7344970673868706 0.8878533436552452
Ni 8.679268458498731 2.014063492010579 6.265061263380104 -0.08364209960168821 -0.1908182777695746 -0.08436612225190632
Ni 6.755849393884567 3.9005775888798455 6.937626873031749 -1.2913242214606664 -0.04461532471652961 -0.34825103810016794
Ni 2.1997499659925945 1.0120701084516017 12.170036801381757 -2.459755882459454 0.006287375670608527 -0.978110891690922
Ni 6.803882089850323 2.763355110421498 12.88668646905633 -0.3375261954834961 -1.9405223703687162 0.16730245403582153
Ni 9.217087144076153 0.8830843420950364 8.215062414803878 0.040246506224872615 0.713383682447023 1.5892271461255856
Ni 1.314685312363308 6.015205504612973 7.697536390856058 0.5591095223500693 -0.24294996546780737 0.20419649884869348
Ni 3.702592532092011 7.2124181467275905 1.4224352798930933 -0.8941080663157053 -0.4320142366607527 -1.0777506522724472
Ni 6.603343279361431 6.4281023033696645 6.029642049452277 -0.2509252703638001 0.19499426352413515 -0.9205528907707952
Ni 5.961530580253542 7.256108539468804 10.115529041821816 1.12248861860977 1.2091389089101625 -0.0399369454042538
Ni 5.359056751334882 5.513111712868047 2.265841480549085 -2.2622331960865103 -2.830910564630673 0.7865418517982519
P 0.42835207927818847 0.4074122208622532 4.909539862051206 -1.0212650584808927 -0.909963288180407 -1.1757155962547108
Ni 0.012199936002204509 7.766702551114004 8.972178476413672 -0.33528984995380967 1.4047998594840194 0.0707467316962588
P 5.054754410501538 6.446937389330901 4.428094597975091 -1.3751537544828123 0.13173561267480538 -0.18217268627943461
Ni 6.862738276231396 1.6882616795856529 7.906859376530397 -2.276718791297195 -2.123962096286032 -1.448695789536021
P 1.452394406344211 9.011357852238177 10.239156535069878 0.18999655319922765 0.2552827760015475 0.10334446312662202
P 3.367055109889764 9.244404011282784 0.3984833022359893 0.15682906530832344 -0.4051631779061796 0.816204154749375
P 0.3852517234931767 4.524412599478478 9.283848903737578 0.9861854411689405 0.6074812287852377 0.29046857987406105
Ni 4.145433706375916 7.5156233875954985 6.200373852392824 -0.43887728232917317 -0.8282734272090831 -0.16604518458995274
Ni 6.044919396954168 8.98980306468195 5.206691692521587 -1.2176459179399095 -0.12339701090212296 0.7464290429377661
Ni 0.43114369162721555 2.8722445868229474 12.183031443409345 -0.7489955181133616 -0.8807103048525606 1.0312311685546691
Ni 7.971270207694459 8.25490281640588 4.465336071171573 1.2582667767850655 0.7103603222396668 -0.11554434762692359
Ni 6.731316763565013 4.966313402363437 0.08398807298426894 0.1862939075366598 1.3211497894625313 -0.5575704599977237
Ni 8.02023405573172 3.05403128529757 8.962395848066404 0.9731869720267433 1.1529510488646852 0.6028259894014134
Ni 1.0325001380600691 8.438800740864409 6.822434142459132 2.1909483324985946 0.19815980573631034 -0.9667430161736124
Ni 5.416695986493789 3.36098879243382 1.277395898664134 2.0602658436786516 0.10248648600170092 1.4538886465908702
Ni 6.224705501374172 1.5975619362245947 3.517531128510471 -0.06036358868972184 -0.064690755310166 -0.158731681647675
Ni -0.027267082838449374 0.48292865386131417 2.580278628037929 -0.9118934153235844 0.4958393015365138 -0.12812706938794063
Ni 6.014384984470754 8.190155479790233 7.590843880183715 -1.0115809984239095 -0.4071200445222343 1.640648180910039
Ni 8.372753479079634 2.794212199365335 1.4741022347359516 0.3108900809532065 -0.5351663812709105 -0.6942400196390366
Ni 4.811161340864835 0.4740550511996941 9.304588702748052 -0.8012051102373814 -1.340882749115084 -0.2507432362599811
Ni 0.9835086320404858 4.018096355765738 2.7935825193011388 0.8657102318993026 0.4347830576551416 -0.05717979164510153
Ni 5.651604449681405 4.239148169810065 4.707165483468881 -0.19370485528875028 0.0959402002427509 0.278925612231468
Ni -0.06707337292891898 8.011577107264955 11.713892137601002 0.5215565037969597 -0.5437142708409216 0.537064883845204
Ni 8.507991793306443 2.639889877336391 4.040212600363099 0.9443888168481284 -0.6612861904208354 -0.779290055331845
Ni 4.583167373257703 5.0002405273450075 7.5336849719844645 -0.3386613375292039 0.20942792245096192 -0.2712539546188232
Ni 4.021608919520623 2.5167012240745024 13.327853413477015 -0.760449011365942 -0.2594919289868886 -2.2528841507714423
Ni 8.657409433136966 7.444118283965862 0.801910007845652 -1.4903198928347108 -1.375007458712935 -0.31753663973544666
Ni 4.298022794846018 0.4195568408998139 12.025104364351108 2.6171793868186666 0.9276725325347119 -0.3359387963917182
Ni 4.052032700074749 2.9456212139230344 6.224864073806151 0.45602731174589856 -0.45154819292862236 -0.3014543894616034
Ni 2.0934695592568477 7.759566791674946 4.570166277700907 0.3864871987632312 0.8155467236710341 1.0653646199032685
Ni 0.7441785794123379 5.69562673821048 4.856847717996947 2.075631270391128 0.8860430299193837 -0.9145020565910249
Ni 0.3146150805084487 7.423301042604887 3.021554360522413 0.8134507603739538 -1.6787123347716124 -0.6390641457978413
P 5.389434435251804 4.161355484865909 11.520761056710667 0.7783516026779757 -1.5026588740160378 0.014858148058755054
Ni 1.093403015132965 8.906192984122749 0.3734897055444028 1.399918877242634 -1.8494832069720082 -0.31260346409988743
P 6.933874606763407 3.6310228931702895 2.9914633976888942 -0.3226125115964573 1.1029011833961457 -0.6223370628511475
Ni 2.180518448951411 4.3427457522605835 11.528965336200095 0.3987763005432293 0.47739215057491974 0.5802126228772717
P 1.2952048734812267 3.8128649076095567 0.4686921684274714 -0.2708078682203401 0.36097054254936545 0.24633559411058864
P 4.422797172427697 6.880476262227195 8.624533311483628 0.22741895971174378 -0.4602030403901429 -0.48150720118455775
P 1.1683008312607588 3.547228426062274 5.208094874158053 0.1743022823924224 -0.7371399043263562 0.1392925990864569
Ni 1.7122134922764465 1.8116255000689132 3.5041059438914046 0.5788419677819903 0.46435562910593575 0.43137068953948293
Ni 3.6859608653890885 8.000274211822726 10.611466166701879 -1.3775011716690664 -0.2535555088977956 -0.0846977945597122
Ni 2.7402791338375656 5.795757853543318 3.419178421440934 0.7629283261443699 0.8391340240726709 -0.5451296631312096
Ni 8.206114135589988 6.075628976658954 10.285438480754657 0.4249043650888489 -0.7863701021070779 1.520580234381149
Ni 2.5956094476389766 7.930815798884911 8.497061358692815 0.0017524639147324659 0.8368714532907394 -0.3837733993764939
Ni 4.166435334285703 5.281319382355369 12.943588158019988 0.3720741086616947 -0.5696870407555996 0.18724958658170976
Ni 7.762692143677324 6.17374105928229 8.056797908361315 -0.10499613979743207 -0.09879001098672019 -0.4634945666572211
Ni 1.5264809216572277 6.528722043056856 10.25503774851913 0.5111026554534875 -1.1174004054535853 0.915415826654546
Ni 4.942343151017763 7.436853453942634 12.620636039706964 -0.07817207762605247 -0.2673494773580944 -0.2810956232995933
Ni 6.9383551998995605 6.583125294284097 3.3526416133690606 1.031802467677107 1.10932431331367 0.5643239766714733
Ni 2.411434943357227 7.043068320970398 12.614537454604978 -0.21859596210347515 0.08527680699163379 -0.22631389957302311
Ni 4.809778441748739 8.548602930682481 3.0976700498051155 1.1265926134758146 -1.1173075886294628 -0.5429617089456134
Ni 8.038101112311688 8.664591289213227 6.832540369199566 -0.835515196373161 0.18344435390300665 -0.519933109260924
Ni 2.42135493968336 1.2519385698022831 8.238177112563061 0.5672583767094489 -1.949388305399778 0.8361052645486761
Ni 3.5547145199440773 3.68970391232999 3.7487011544209046 -0.4816496402996931 -1.2761729676415248 -0.1716458186061818
Ni 1.9682526539580179 3.315297805637987 7.6189637508104235 -0.6598504864155733 -0.026579293150425193 -1.8626655099902372
Ni 3.966846114523196 0.9684903476396765 4.325206903737501 -0.8606348742589244 1.0980726516592507 0.990873847783545
Ni 5.803308482717205 0.6852228242949062 0.7342825533375503 -0.298464453595344 0.1825131003379889 -0.20329018498434023
Ni 1.4123364286146116 6.073047564975574 1.2092798198016783 0.025632355856123598 -0.4277629175835665 0.08802634471231292
Ni 4.437419025748559 0.6270894331851798 6.7634405880991935 -1.0951724472933202 0.27625449315720807 0.8898652318789514
Ni 9.532692380351728 5.30995461338601 12.5329427190243 -1.1176654861895137 1.0890686483884275 0.4572809816473415
Ni 1.984321941687061 1.3779483372610086 5.818510231734083 1.2380890162856097 0.9404334317448061 1.4241245279545605
Ni 7.999250866476814 4.830964456207339 4.8659831495578825 -1.4902247620177433 -0.9274958977475316 -0.3907048363890045
Ni 3.280393431947708 4.350499206638165 1.2691796340490322 -1.3513119148682082 -0.36909702831124175 1.596540134847231
Ni 2.3237960167064626 8.876128757338808 2.5081567514025136 0.4051366955436184 -0.1073651542502409 0.21023627728487015
P 7.191388860835482 6.699187407434367 12.219625719819495 0.3806058002817897 0.4232112936571421 0.3630575069853812
Ni 3.3581031429448984 2.50964843858241 10.69855285563895 0.812641377098781 -0.42343138008774817 0.47029821984261583
P 7.235116130886457 8.842118658410271 1.9747753281222737 0.1954480632321021 0.027442412481668864 0.6848290107377819
Ni 7.630228847010146 3.7341318512664543 11.045643938989809 0.34589950714885587 1.3878308357298488 0.3159248151636366
P 8.969124113232587 6.732257134963959 6.369095841951309 -1.0690783213094297 -0.17243797549017398 -0.35887817879671097
P 6.003469300781031 1.865069941242328 5.887407187630761 0.022058265351620077 0.7448223605722785 -1.091898661638055
P 6.990859269674029 9.296124438224796 9.29939361173525 0.6489875755591403 -0.7219256584797631 1.3137843502363955
Ni 4.38276685268042 2.6213129325434927 8.665567615989191 0.5403458685893211 1.0717995768953348 -1.3382663945381597
