# total energy = -340870.9972598924 ev
CRYSTAL
PRIMVEC
9.25131230154935 0.00000000000000 0.00000000000000
0.00000000000000 9.25131230154935 0.00000000000000
0.00000000000000 0.00000000000000 13.54023069029667
PRIMCOORD
 96 1
Ni 7.4076276821055345 1.5947504998295692 7.265756029545006 -1.24953453911839 0.09618188393991177 -0.31125826292590264
Ni 0.607012842892589 7.686397481627317 6.073809526169104 -1.3204627906978355 -1.6475184256673112 0.8173768349012374
Ni 7.061906134031031 3.4143634012512947 3.3417017426244073 0.8176025777587982 2.2906860521105648 0.5882851154727611
Ni 8.043572154575148 8.397259082710988 11.35600181932258 -0.09914559455392602 0.2562880773376102 -0.5360762946796896
Ni 3.2377465943395913 9.057765789864513 9.754016793119067 -1.9307861169175584 1.1245167047833926 -0.663540790782967
Ni 5.35221732771825 6.686210333460906 5.921413580510112 1.3334031529085875 0.4927974293863965 0.5594329671277591
Ni 0.7062896024468387 8.43668817658023 9.772188221128914 -0.9749823733642692 -0.46275306050550624 -0.4428524649268373
Ni 4.474822850346403 9.234863665026147 6.466922772780435 -0.05021415896054578 0.9592207396546384 -1.0341264878245933
Ni 5.580715495122375 5.2418954261718635 13.306038799219007 -0.7350804506941663 0.7717515808629547 -0.8497537085700463
Ni 8.346968947968334 3.983837193418117 11.200574218557783 0.7651235340234759 0.11177176795836878 0.27304987017698135
Ni 1.4231941608546268 3.2230740127167348 5.514882230250741 0.039561564342706065 2.160571777089266 -1.7615522501869791
Ni 6.693888922834784 8.097183510504816 7.520908153388989 -0.7775041670760158 -0.47928191139846493 -0.34454890665823246
Ni 2.3597877869053274 7.337511984678275 11.134889899817377 -1.1865664229262856 -0.6835154341326809 0.6004590318311336
Ni 5.212411493238671 3.8198114228170743 8.205976170095177 1.331480739074894 -0.09465464866210795 -0.10924463066114087
Ni 5.90363255788771 4.164792865891686 10.71791844340328 -0.8535543132630591 0.08860484292360224 0.89367740653619
Ni 0.030088968770605174 5.047812141262711 1.2249413094023338 0.8750510496842543 0.475003338627769 -0.0968079475596849
Ni 2.085958188257823 8.368885307277631 4.4845247017637355 -0.3313177526799391 0.7162005830705278 0.10722785734142823
Ni 2.0457149788887006 6.6468182448416595 8.439179555036116 1.3110494678037357 1.031774956873281 0.5406847399859785
Ni 4.353547394801616 5.027662782640655 2.06201486638007 -0.31064402638067146 0.36920270065117056 0.0998459630550603
Ni 0.9274903345520298 4.4040503097317405 8.809856518575723 -0.34913909713207614 -0.4911511520322251 -0.3888793531444915
Ni 4.118480795523451 0.8951357193505056 0.5116854686440127 1.0236322731614889 -0.6019397301417181 0.790412904717884
Ni 1.0182642127887713 1.6391845537605791 3.461045524119476 -0.0031141201489494758 -0.21131305528881672 0.5023220810473801
Ni 5.535485828316482 2.2970176316019955 2.1282126329641513 -1.9475250269387945 0.12855464384366247 -0.35040922209375136
Ni 7.063515862405796 0.32094838346562193 9.335380100455215 0.7432627293946426 0.6450687001207084 0.5649564680491496
P 0.872354362322583 5.90156951520051 10.19869130481037 0.174819331238157 1.0630416281970465 1.2616094680050531
P 3.9090773371165364 4.327856499992869 12.059457744751084 0.058715254453021455 0.34660810318010626 -0.9261581527727147
P 4.0387252304726 7.59346804757839 7.65878786460635 -0.38658361513177936 1.0091163389335007 1.1566719493596984
P 5.720438067789468 9.051317625052956 3.7480980237212993 -0.26510593273955635 1.0833281463602245 0.034503947314140575
P 8.708093931353087 8.891639971326278 7.818684774439245 0.29592291812041294 -0.1125515835471868 0.22607118743459775
P 1.515346484653667 1.2192952333844085 9.97240697648717 2.854784028814161 0.8367159015494816 -1.9502815066380088
P 4.094334869901978 5.087287491694446 5.135010387218725 0.00801644254657329 -0.31282535030270636 -1.602830081621001
P 6.331348488637737 0.7939439381090357 0.8580481326746727 -0.39577196649926677 0.9244244579110595 0.8792938841210083
Ni 3.1906666650339677 4.720297176185548 9.987829839553667 0.3276842696924098 0.6121711780617393 0.40497085938971544
Ni 1.7087266698129218 5.859836844519107 4.224335238264239 -0.03157468948248756 -0.7004173520943421 -1.0948729137750306
Ni 3.579869381852121 3.3439979183865725 0.3953640909422528 0.1886348969650106 0.3778295230882332 -0.5454099133757898
Ni 1.578662467394419 0.3969035093420279 7.809260462396872 0.8987411942123426 -0.6940973234135853 0.4462311515910831
Ni 3.925119112989193 3.1722473018491586 6.107104999851741 0.8410962900053645 -3.2755160076928744 -0.6587305138785172
Ni 6.21876926684168 5.5358558808164275 3.6640405983585764 -0.4215205362182805 1.8353100007954202 0.7481192861559954
Ni 4.305264794871169 7.4700462875339175 3.828188486284601 0.5801262338110525 -0.0019049303321967193 0.9391807902846278
Ni 7.6647124051304845 4.137594007145658 -0.04930579509279835 -0.718228412133834 -0.31944054162637886 -0.4741031954110029
Ni 4.493445742406183 6.679697409461856 11.397056368797834 1.7031182744198021 -2.1988693871178837 0.5027913073743147
Ni 3.3274010637639964 3.300174451080473 3.7733781602551066 0.4277102099687601 1.4597456195922793 0.3701318973336593
Ni 8.653751721736025 6.482135631053213 2.968546352466411 -0.005274361025061885 0.6465013188021769 0.8545282471405541
Ni 3.130190835230301 4.710055973249545 7.367875717430091 -0.23644070359437988 1.0404172059293115 1.8576968531310523
Ni 8.943169781943752 2.1513372136857734 8.966448859584101 0.5852694685748888 -0.15324700438401992 1.3030211981826205
Ni 7.637754080509422 4.402357319544487 9.016399471158056 -0.20979301909986448 -0.13372718918353743 -1.1152951861851244
Ni 8.974772265439135 6.493440734926562 8.227843497448234 -0.13314791964129974 -0.07915603880587657 -1.2459645623789444
Ni 7.24868088206625 7.131216967270907 9.460627144455671 -0.7290319305072412 -1.7104821709840412 2.600650535925708
Ni 3.221084980529525 6.572456194977521 0.01691232437877977 0.7728718105103269 0.44201762773036773 0.7279950046022946
Ni 1.6788171765047901 3.6974720663349436 1.7929025119756268 0.32407084130953867 0.4231143630679617 0.7824075179149041
Ni 8.552967923375745 5.414839462021603 5.291251178352154 0.08898588041210483 -0.010454105453788448 0.023051739613140942
Ni 3.6717164123387054 0.9337257191761191 3.8708943950408634 0.520141368616988 0.07965123327474025 1.4013730931906576
Ni 2.1169223311908003 2.7223282211023743 7.775030606151871 -1.5210052377337093 -1.093042802544827 -0.9751168420596046
Ni 8.99719744693586 3.389958438879859 6.917988091145801 -1.6869532346241656 0.6583029394227953 0.21115621799597828
Ni 1.7995930611746496 5.064436749822784 12.738161783589453 -0.6491778371930755 -1.3313354717462813 -0.24781269287674743
Ni 4.7980082011741985 6.050534149053753 8.777373310130468 1.2317088237908789 -0.12704926294272958 0.7790771679900905
P 0.33364858526376695 8.666971847296594 3.0487052747422028 0.7697432921836743 -0.11231889871109044 0.3134912660214795
P 1.167506386016973 5.388750760775414 6.694641979672174 -1.0931764999092142 0.23965689653883243 -0.24825003752448213
P 0.20757262366343174 3.970413538982578 3.675197681231947 0.4231033073243681 0.33003965729846385 -1.3929208486582463
P 7.346763297176924 2.0970135066937083 10.609109131450422 -0.4837319767500185 0.4899609883788658 0.5290515266224244
P 5.145672524873418 1.7447790346201557 7.614985675318998 -0.1242202781343667 0.13207988338810156 -0.048377619972439265
P 3.037168888056388 6.891311931555949 2.3411334403830515 -1.1490627695538724 -1.1503979434255285 -2.2567814289433197
P 6.798586026381992 5.683599341419848 7.482183084400895 -0.29797234445027393 -0.09498092165327514 -0.1734201368977852
P 0.25210659176942707 8.945972929630843 13.112115562016083 -1.609702640371118 -1.8674086811021773 0.9393018892435242
Ni 6.884188420931989 -0.005940267755382359 5.577274932004127 0.7004803441217936 -0.4772653951890684 -1.3290191649082788
Ni 0.2001771244520119 0.7337308455803306 5.9930141135934045 -1.9209066530203176 1.282929826749384 -1.310668173204917
Ni 7.815897353983402 6.735492075141207 0.7507967417465878 -1.513566264957161 -0.1244431927784502 -1.3024933507036085
Ni 0.042019461368862594 6.619610134783133 12.087188553965783 0.002551562777260122 -0.633900856429347 0.40210690757835904
Ni 6.0851248064862 4.281387157312157 5.679639779670427 1.2352857425088597 -0.39010679779368945 0.9781571715478251
Ni 5.254477211170026 1.2390837908190182 11.033284584907216 1.5944732250158733 -0.6420869917845652 -1.2892380283555989
Ni 8.177651426618064 8.949765967755289 1.462101480698944 0.36599602078841487 0.2140520514865346 -0.9774766005410329
Ni 7.4706383715338305 1.2234305700713044 3.248328245575546 0.80298971294163 -1.9868929872134558 0.22110947255394822
Ni 1.0312253015993782 1.3649571486756331 0.9309234966202784 0.25198147954245637 0.20635879660733494 -0.7459302489244767
Ni 6.5785065533516365 8.556335401125253 13.000828748576087 -1.7236464762801413 -0.8299078774887126 -0.3083390323965786
Ni 8.665380621546825 2.806302384652609 1.7441036888077543 -0.5027095462937858 -0.21381011067905756 0.4233002538265226
Ni 3.6079471152855196 2.4424297614557564 9.290683309249244 1.2588416754519287 -1.3187347522631352 1.7017008252469854
Ni 1.5451819674618092 3.2575629057116973 10.895891492727285 -0.4053860925502632 -0.8356015854393802 0.8081476029934855
Ni 2.3198868760986553 9.031362543993371 13.125141410014178 0.556593440796435 -1.452148781081628 -0.2935809002507976
Ni 2.940612939507991 6.616168646533636 6.133927330179072 -0.671992778205062 1.5256561062421596 -1.2030880747303925
Ni 7.907272567532556 1.648408112321732 13.13773429658734 0.11279069614118639 0.03377092580285796 -0.2604054419400935
Ni 5.083216914195041 7.5778333294556735 1.191288735057249 0.1547665263523399 0.11565181973906534 0.8691670800996514
Ni 0.21547416966852764 1.032076422349254 11.507679863131678 -0.38168643494047816 1.4469093870595597 -0.15804725398614072
Ni 5.606489651743611 2.5370799396294315 12.93782638532904 0.3733334349900925 0.8097031204060635 0.14415686915729367
Ni 5.648999432674902 1.862659258477938 4.754015434849374 -0.1762419226172965 0.8024991464584567 0.6564314334316953
Ni 2.6255317384290127 9.030770459993455 2.3106540662250032 -1.3347756077760817 -0.6299711823576376 -2.44106833335228
Ni 5.183417879867904 8.21513774486259 9.789045037632702 1.4361758026921394 0.0055049889786292295 -0.37152286414391494
Ni 3.221982357841894 1.5568848777725999 11.943174297430568 -1.1342634997575112 1.1877527299249027 -0.7311618323660505
Ni 1.042844950097681 7.206078588009973 0.9911384394114834 0.14230336088832266 0.7657346852449135 0.45067170386093997
P 6.994704600040847 6.112499440169702 11.717959420832212 0.4565633867550266 -0.07125169635713535 -0.2439915193584443
P 0.4618523487387914 3.2110935630309845 13.062233410154619 -0.013791911577769796 0.09028454461887031 0.386868750472366
P 7.777051092801576 2.5265426946934704 5.197458596847104 -0.3157409812876046 -0.799768634901171 0.9886817252282327
P 2.1915341664924024 1.3572878106142532 5.60696886973104 2.187911345444484 -2.024791562031442 0.3722024067094429
P 7.909002562969803 7.529476719025237 4.802544119692286 0.521752936078482 -0.9093341392368404 0.2781779354321661
P 4.265428643251988 8.697750963979598 11.938042594387568 -0.2232036360788156 0.8055934691130643 0.342818554230687
P 6.614956724596313 5.083004134007572 1.6580017233828306 0.3277367201969001 -0.18209452474333154 0.41579468947809683
P 2.9793111796898386 2.06441188144847 2.0647495543546706 0.7869995081609608 -1.3671676509535422 -0.25819660721423277
