# total energy = -340895.7817734943 ev
CRYSTAL
PRIMVEC
9.01830943994498 0.00000000000000 0.00000000000000
0.00000000000000 9.01830943994498 0.00000000000000
0.00000000000000 0.00000000000000 13.19920745005227
PRIMCOORD
 96 1
Ni 6.214363712600564 2.2571205191785233 11.437126427167474 0.6243458657510602 -0.7577313553244628 0.4327896813741966
Ni 4.700802805404802 0.1693052319655349 5.725987987732256 -1.5838172879639238 0.009194522015074489 1.077158527214403
Ni 2.8228210327073846 1.821671448655933 4.673430432642035 1.0353073955065717 -1.271936560962674 0.28503326779110266
Ni 3.413240732366564 4.345093626806427 4.9348405605825985 0.8408265812837455 0.010751582089549225 -0.3460540304488492
Ni 5.2866772771144435 4.315261059232879 2.8906134683071034 0.03877609232693322 0.351000318710531 -0.5453590055331963
Ni 7.202869626840011 6.037469573254999 2.74432656931458 0.043821882280956785 -0.2212136022319803 -1.2679978880299
Ni 4.965165527850679 4.556609056029515 11.481805837545233 -0.04347272647165416 0.45956077882045365 -0.7383547505700638
Ni 5.593254705972587 7.716705842873264 12.456355917951527 0.2246215994722648 0.3886734077812726 -0.0374602017289871
Ni 1.9265092957062615 6.639144123074936 0.4997099361519945 -0.4036768231686403 -0.395088567278997 -0.8322984892080763
Ni 2.660383243367985 1.3918498032137212 0.31840945082201727 0.24663281363603334 1.6288645580115495 0.7575171824311276
Ni 0.5439122779612401 -0.19183387073684038 4.655716669272035 1.301496791118294 0.8661699451445405 0.6885357701654077
Ni 8.725611173029083 2.265218961040992 1.4712361774085283 -0.06674172430192375 0.3233542748584882 -0.008308776976011498
Ni 6.7277309765437865 0.7168437721460386 4.723204286013233 1.1524656245878344 -0.49390686040049125 -0.16788172357805925
Ni 0.8892891794529002 7.250332989336861 2.6540568993072706 -0.7090835124097723 0.3064960656505689 -0.30903271602949356
Ni 7.587148809692617 3.8192269860019783 3.7052950757288063 0.9595315860268379 -0.6443927570996064 0.8029953693685848
Ni 7.776650545612493 4.0272523294781015 12.402463402666534 -0.40503025187274116 -0.46200152705146236 0.3239397150483131
Ni 8.143416171564304 8.849017719182779 6.754997835086295 -0.8608235932309625 0.061650425821945444 0.27081995240519807
Ni 6.74675960942776 0.5703503538677126 0.3542364886694874 0.05405770107635206 0.7426456646359338 -0.04173620339652167
Ni 1.7262487166439306 6.709883742194315 9.423164781317864 0.17932210420451697 -0.559808605299623 -1.3096111926953122
Ni 0.04742368193538562 4.798642444342351 1.5345925066027368 0.3338443757565347 0.08895117051942746 -0.6882043549679181
Ni 6.337157013713448 1.7768324142013752 6.981100379802193 0.1528320283337884 -0.1827802379564465 0.006810338053614078
Ni 3.1665719330099544 4.314458429694171 0.14220431031642158 0.26885537247965957 -0.15444822378097273 0.9033840923009927
Ni 5.922792750623431 5.53292221592814 4.9044425450081865 0.2019257005366458 0.709512629527391 0.2211421255640966
Ni 5.174552636049779 2.7045459046157667 9.218405869514998 0.29292552605498584 0.4001919499438334 -0.02872539295915053
P 0.29548671192889686 5.730116569786419 12.356371725033025 0.18578894287578326 -0.7418272824996966 0.15170485670788067
P 3.9267342526417175 6.234113810238433 12.573326998500482 -0.45104785625343613 -0.40092008635910953 0.1522591865494539
P 2.3919442450626023 8.5421607227325 1.5000505778481417 0.17814839561138998 -0.04797652787927866 -0.32964679273541936
P 6.321393008840848 7.711980248735253 5.782942219066592 -0.2688499731630209 -0.19365677565963424 0.5735750629560961
P 4.719118991844304 1.1795407627613483 12.660851495119221 0.2917551598959685 -0.05141666390907919 -0.36824573605454
P 3.8966130991666126 6.008701166193447 8.273104872062538 0.6584741748933369 1.7931768190707955 0.7044033333252836
P 4.769684652782901 1.0322717698725856 3.7012954554994026 -0.6816603832018131 0.05954726343601357 -0.851482775446011
P 0.187652080657078 5.497435168345943 3.7270995442533903 -0.13536858144170233 -0.2596670211121721 -0.2431181156145555
Ni 1.5196302294379023 1.1892354453918088 2.850791319384941 -0.3362725255820531 0.2714560433273002 -1.587914083741117
Ni 1.9781932270133955 6.375187224553124 4.770972467368604 0.014569413173742649 -0.2148568067760171 0.39555162295834456
Ni 6.02780194555281 5.9342910951386285 9.113999999486063 -1.3188247408737803 -2.5089472565824407 1.9872745389225905
Ni 8.438387036194168 2.4041279810939993 10.195701123309862 0.08881953003756961 0.14012280829723608 0.5109162504742943
Ni 2.405318397937925 5.005387187880311 7.076293144923892 -0.5959657719464704 0.7661882278425644 -0.30829403809125616
Ni 0.394984817969462 9.02768846548481 9.325939289252066 0.9951272237432603 0.9909144712134934 -0.19987421732425578
Ni 1.4520650552356604 1.3013330315282032 11.35508055352362 -0.4298485964680016 -1.1454354572139307 -0.1902865736358207
Ni 4.110987332477009 6.615263639721021 1.5166415616948936 0.6131168298044603 0.8404609704142105 0.46780167867300726
Ni 5.726626484039453 7.925164065201724 8.04771477379111 -1.181854362162597 1.4675766856009242 -1.022157231277859
Ni 5.283620070219815 2.786792886559766 4.947234423223568 0.19809012884063948 0.30541028878555787 -0.2052827899343368
Ni 0.8872167719473375 7.278902993591092 6.945277851109435 -0.201682217067272 0.06262101726533087 -0.10860596863587747
Ni 5.0985823974646625 4.552604926645399 7.050290653362583 -0.31298604425028675 -0.5884164988443028 0.3610718440139201
Ni 8.029478850305479 7.28628898900909 8.982192898104207 0.9559914340840632 0.1151118880751953 0.3727834760238935
Ni 4.748518680565514 0.35582010380428636 10.334121350992106 -0.4326241023306097 -0.2068917862926695 0.554190230671581
Ni 8.032536057200108 7.177681488619661 4.656680726549427 -0.018410384186387647 -0.4848915442757585 0.47190695909063246
Ni 7.076288635769179 6.120122379123065 7.192749280004753 1.1709264023961834 -0.7861600429788009 -2.987188642531533
Ni 2.3300064959407387 5.105048525321445 2.6562086679357617 0.8266562033206344 0.3570102723500368 -1.2740374093557607
Ni 2.2835712207181893 5.264230704958894 11.313898443540369 -0.5084788446773952 -0.08097715117501537 -0.07343970514738965
Ni 1.32626865708469 3.5229574848151057 3.935013962523602 -1.9277866679696025 -0.47750219379022274 -0.07677339750631294
Ni 3.8442978861998203 2.6649194530080984 2.3307685430870406 -1.3182074190047555 -0.8421463285364335 0.5934849145061456
Ni 0.9872072776824359 3.297274291487409 8.174598780058577 -0.686087051514599 0.49293884006026717 -0.34145792643773454
Ni 3.663904642797866 2.5781813529711037 6.8732630430375465 0.490689124794142 -0.4608201051488515 0.9698365674972715
Ni 4.055858406970028 6.827031581607972 6.249243827958548 1.1311468085054004 -1.0922244204085898 -0.7018612836297202
Ni 0.9793342935555596 7.667114159352425 11.549464802165481 0.12202224204178339 0.0008839452668500905 -0.2369011881705662
P 0.06794755052180607 5.580331468568449 8.066009316287996 0.5298827642744681 0.014497422285226646 0.37555178279765
P 8.469247691042014 1.6598649409761914 8.014030486262708 0.05552322987828502 -0.7304264968619227 -0.33349727682976116
P 1.5579670627979838 3.2348766085849383 10.305505353359813 1.6436435160929368 -0.06922643839699046 0.18061716886685666
P 4.108363004434717 6.026007301977497 3.6524586044773257 -0.746740660640914 -0.12878810001070723 0.6655953593191505
P 6.684073340623732 4.087485618118888 10.285574889533471 0.970623067954309 0.34622320903686177 0.04568130408719875
P 6.370741198007249 7.748838079349851 10.291857945708951 -0.8379271482487635 0.9946888506542612 0.16935907945453413
P 2.5514601021487278 8.262638222145409 5.75375896977155 -1.6246793162856084 1.6825185958915796 -0.025789964479910422
P 6.994258093251348 3.9454382263864383 1.4945728567041958 -0.2616467705463623 -0.12002680887830944 -0.10840002327265846
Ni 5.1908487211783765 3.118955259252902 0.4461727422582934 0.7611223832838827 -0.5445573355675073 -0.1937807028320082
Ni 1.4043491800749475 1.0062268922569857 7.005016936393804 -0.0816374104668336 0.27646275251327224 -0.6937134577116053
Ni 6.944206475949901 0.7227534703113787 9.23078620469183 -0.5842744516514712 -0.29156284137950433 0.08385858648786848
Ni 2.693516512190601 1.6228628174108153 9.060727943889418 0.18364412861863857 -0.3642895796202694 0.4345403455167162
Ni 6.434491627323272 1.8898137946612905 2.5019099028512373 -0.13442190125771689 0.33138794379624215 -0.29358604245712017
Ni 4.167018088926358 6.8278432294561044 10.542114228554302 -0.2530158343442417 0.4567706176698263 -1.4861253951373887
Ni 8.174348972887541 7.294351357633863 0.23310436015244626 -0.340009366916666 -0.666910221475832 0.8418755913735502
Ni 7.33769335272409 3.6640850089863393 8.148372634423561 0.8410898622474613 0.5921284004782512 0.7710280724333689
Ni 3.329316344869759 8.569459145357992 12.211787482859695 -0.9986542630599123 -0.9029801719943545 0.1207911978481597
Ni 0.04894957988987298 4.827365759856785 10.080089101991058 -0.42488353915324245 0.19468778802730988 0.6334156892628123
Ni 8.668362944807537 2.345734427575644 5.667462766896315 -0.08833796241546077 -0.08544161470427221 0.28444319961558756
Ni 3.5923714124492023 2.70763918474809 11.349022053252792 -0.6167770522648668 -0.5100947830142635 -0.07890381358575443
Ni 1.0450326777070988 3.3572550674643327 12.52413392425617 -0.11018154065311347 0.2390837976441818 0.5468543591318
Ni 2.942286577642929 8.305980217235636 7.880283546523817 1.1259390390522157 0.06489104424643019 1.1790341191049825
Ni 5.4581604308057985 7.747232820272435 3.451302507289223 0.34579434902955924 0.47278781903368894 0.9126341501443508
Ni 2.966491720136097 8.293760407966543 3.607171360044411 1.3003529073218378 0.45442680002799807 -0.08529968980976922
Ni 3.3657412966320193 4.196553052288924 9.130829066701601 -0.5001358720293386 -0.6810608019446013 1.349955915060946
Ni 7.348064408561326 6.178200291811591 11.377030216829926 0.0829702703456442 -0.37829412142947755 -0.43179209334761764
Ni 0.6409267415865226 0.045381034850921154 0.3418002399742269 -0.48556568752464757 0.5487502906029322 0.30235916066405993
Ni 4.6103491618852495 0.17452502945996332 1.500631356975027 -0.42297809460041347 0.009568617525041585 0.42968250320378254
Ni 6.0046790001904835 5.498309944360041 0.21948581109174078 0.3644834407986304 0.44481961595553715 1.2657635993827427
Ni 7.93088167337634 8.856448806147895 11.430051563424595 -0.08557428362739455 0.5777294514441018 -0.0530166614063474
Ni 0.19102853570530537 5.009932415829848 6.001415274010052 -0.7338208672554524 -1.036025504619519 -0.8708951185343518
Ni 7.851349202568868 8.708972392142387 2.4701654536798694 0.7351501275898371 -0.13206239988660484 0.20377535215087486
P 8.44343728947143 1.4532915453172814 3.602961613205435 0.4179037654012996 0.8716713345787439 -0.037869264241947684
P 1.8240252274155144 3.174255532638933 1.5006043020467559 -0.09902629536724236 -0.07591439194012733 0.6833521690819393
P 4.671610537800335 0.8911000559851759 8.22127123681897 0.0852374691132661 0.2908089939326153 -1.5610522263532662
P 8.30841516078003 1.7564871081415436 12.567361386816714 0.3905315440359338 -0.18560973698544164 -1.2812712081000386
P 6.322096436975896 7.593894505141534 1.4085273628309405 -0.4661165776611005 -0.3586177260464727 -0.5542681350973679
P 1.7589671432330567 3.167076958337681 6.050173665740143 -0.17759380865950058 -0.31934386814751453 -0.0036483953858646844
P 6.9908672089080435 3.830680238970057 6.0083719978994825 -0.6728165596579381 0.5602636905591707 -0.7818429036606858
P 2.4635676585055015 8.672240817859722 10.108929655528001 -0.08138749923955661 -0.12532868070719708 0.7852910101102863
