# total energy = -381174.64765139093 ev
CRYSTAL
PRIMVEC
9.17304708184562 0.00000000000000 0.00000000000000

0.00000000000000 9.17304708184562 0.00000000000000

0.00000000000000 0.00000000000000 13.42568163008918

PRIMCOORD
 96 1
Ni 8.489545097346753 6.294985287722817 1.1130887343384097 1.7823630162847433 1.0437740382166862 1.1417130140570209
Ni 2.835407232379108 5.172818905885646 8.729136834194891 -2.2024992705609874 0.7318837981337396 -0.4665320679319643
Ni 6.804694827856422 0.6046579169830256 8.93303257520968 1.0719903527499024 -0.2927121244925991 0.20841850734984102
Ni 7.919880520782359 3.412740476393952 11.285628393729052 0.7142000077007312 1.0337009702514006 0.45366678193352195
Ni 2.8110894842796554 2.1166989850791778 6.790521552643875 0.4311140934439865 -0.07569276284762448 1.2423547335404992
Ni 4.590889965228846 5.561132339512967 0.3781304339422209 -0.6111545638717668 -1.493451239374841 2.6322164836574475
Ni 1.63534333380842 5.976845665095425 0.781313377063776 1.6144499252481164 -0.19755276827993073 0.32071092369837023
Ni 3.220675214339505 4.1276327360630365 1.9422267102295363 0.3637342213374316 -0.08419128723693887 1.0331877780604077
Ni 6.552692875465565 5.151564955547498 1.9729976970268257 -0.5426878864589363 -0.8728203605815227 0.6433090371171243
Ni 5.01982165181142 3.109791419912427 5.902010111513775 -0.5525359828976096 -0.2638574050444359 -1.78451168719663
Ni 7.722623314018636 8.0413133194774 12.466926989664112 -0.3319795546336541 -0.7347912015885216 -0.4858207409582471
Ni 6.529063105905327 5.762847647210804 8.388392988683051 1.5341032085682482 -0.3190350786578441 -0.5263374701253709
Ni 9.214142440942364 8.199254845986784 4.704425687598417 -0.40014078499092376 1.09062519424227 -0.34313042904415103
Ni 2.086648082486267 5.8960861576387735 10.972017504499131 -0.9973100903271922 -1.4530813201982267 -0.28178519316745015
Ni 3.2723928543940937 2.220482840981557 0.355901388687825 -0.545532297886267 -0.8479035427351849 -0.325661068614794
Ni 0.7188797832823748 1.5804334733318741 11.078953219415835 -0.8481256860483201 -1.8513194888497986 -0.363341099664071
Ni 1.0382054809113739 4.901278362981083 2.9781380120388077 -0.3241366615504676 1.4119195012479362 -2.1324382520778435
Ni 2.850093280929551 2.967976110362243 4.516036982857535 1.2499014355395053 -0.41655265069004394 -0.6875502663236869
Ni 6.083950164080416 5.112762965935771 10.705974368775255 -0.20019663366068102 -0.272059481239254 -0.30758287095684445
Ni 0.8102901158307927 3.919404564860632 4.868756241475311 -0.4073524722480145 -0.6323705358277496 1.9570044271841394
Ni 2.4294632020535034 8.147161110997425 10.63069667431907 -1.3131570010650417 0.2529163326518999 -1.983963472271486
Ni 3.906204549954894 0.6259916728317232 5.463084390018203 -0.476286833325883 0.5800640131145494 -0.5537176619105367
Ni 4.43239805588809 0.35673154945847774 9.962124633738252 0.25025035578396254 0.09213985266005423 -0.18137178764469408
Ni 8.579688632078296 7.741473925993128 7.963536886966786 -0.14396326508924884 -0.31713143387722803 -0.160127276443621
P 3.9105892665114905 2.3046455489455244 9.086904020681068 -0.862261868339386 -0.6308461287634233 -0.2264637948873261
Ni 5.075089261128358 1.343732163653158 7.409217901045762 0.06441590438222455 -0.6434360496132919 0.893901349621538
P 6.177074939148557 5.092637300401935 5.978818787545894 -1.9616879487027374 0.6558138544523545 -0.20822696016432526
Ni 4.479666768055755 7.562608678844418 5.33845386707289 -0.19714370576697016 -1.3387173660326492 1.2449381779969593
P 1.0455072264742422 4.579919000790164 7.229810526808151 -0.11267319672671561 0.5370350590485332 0.6110023545646187
P 2.2496531310442727 7.905653124591393 4.868689278230827 0.40399821106380096 -0.14145721083794346 -0.08145820457649197
P 1.4976650685407156 0.7068374069319555 13.047184601122979 1.3072730314804388 -0.7594480809052534 -0.3525967166633734
Ni 6.964397579426196 3.247854953162092 4.669331443660701 -0.4882992844057268 0.5443285073861529 -0.5468726139642454
Ni 8.113019029357982 4.479685114150134 6.311385778792984 1.078194424678085 -0.05578471106978779 1.3153694353353282
Ni 1.0950141621561533 3.6432958444556816 11.75331161816381 0.5306420110379958 1.5899249435235587 0.8545585861578573
Ni 3.7081217689441126 4.010483750405508 10.364921391573128 0.658304482084692 0.7095931050563392 1.4386139798199868
Ni 8.058191726306141 0.17112961645377556 6.402801615169715 -0.49115500868696704 0.4594183397053185 -0.3031358909290844
Ni 3.686124801783612 8.692682227358967 7.971283525318347 -1.3959110416348217 -0.8810905710101149 -1.0294542791599046
Ni 0.09183871385216905 8.540886642466571 0.7917633124220924 0.8281988652174059 0.7475212475606804 0.09028814416329611
Ni 5.9746808259586945 2.695325628747746 10.196630833224512 -1.7385753296758315 -1.0784587340830654 0.5290278724733405
Ni 0.5617950193804937 6.176368614514963 5.498299718178822 -0.004668866230579056 -0.9149473716585598 0.3033089261718389
Ni 1.872108854817463 1.2668345090633006 8.958984043013588 0.06393947896643827 -0.3407583292675486 -0.08972378701939386
Ni 4.149822337214518 6.4409101224139125 11.917668773877553 -0.04650431420912636 0.5259412631282168 -1.5698369145244317
Ni 1.7391638818995576 0.7571240516249769 4.094349251640534 0.8538859855708648 -0.6155287816800625 0.35065373400438965
Ni 6.854605377614672 5.885995805730287 13.03230958780043 -0.9862144946346628 -0.7516882344541764 -1.7279178499619856
Ni 7.058338755694206 2.055945893542899 2.3159302315980885 2.494302510086072 1.237476065291959 -0.0512899085232278
Ni 6.805502056009101 9.182495428138475 3.300408257815647 -0.667813964237024 -1.3463175469774105 0.8916668038640644
Ni 5.07525437597777 3.645130453893588 12.526617842335844 0.11981572130876786 0.8745358006107325 -0.970588872282264
Ni 7.066787132155767 0.493708993920902 0.7040497178910564 1.190574258534098 -1.0664172295374987 -0.6516424966834842
Ni 7.992255863107777 6.0144092933365645 3.763554493110462 1.4105768711771127 -0.7597172754062399 -0.50684079485334
Ni 0.5038874070824081 2.4646051458366056 6.961202607090082 -0.7497174838810508 -0.17306069667583743 0.5364953844949792
Ni 7.548069399049007 3.6433233635972497 8.908530448861717 0.8191904910712086 0.206514862569225 -0.4976804685103106
Ni 3.4523405211111675 8.838203447973724 12.36857082578378 0.5364830431998051 0.8445816774508036 1.488781087592681
Ni 5.880858899304148 6.905635039130046 3.5962564584677548 -0.8213661585662886 -0.11060294446124823 0.12506257153000397
Ni 4.9211563562408 0.6730778413603163 1.3519530485444176 -1.3066024877759754 -0.05007300539699118 0.8567743628622535
Ni 7.493058635053377 0.8642294679146861 11.304800062355175 -0.6762584954599514 0.6390163232790415 -0.2307919899490348
Ni 5.4091257745352115 7.709542548726361 0.012659722426274845 -0.3709752191705611 1.6772568332720081 0.32229909412109653
P 6.010492402186633 0.11692608061082355 5.565898654832649 0.3248218605429503 -0.4384641060511545 -0.40503025187274116
Ni 9.105781234492408 2.0888129216229965 13.420794557410197 -1.1754088636475692 -2.3597160582260326 -0.13067940349614915
P 2.9330634927588792 4.3948436006941405 12.55491852752499 0.9171364088900786 0.4405137894913317 0.7210782228778033
Ni -0.3304654461359682 8.417022986266304 10.219803785034713 2.492692999507107 0.9954717515668726 -0.04937649355059884
P 1.423858730853731 7.6195274366554715 8.793177545843898 0.16440430655242008 -0.02668522260067017 -0.06616631141442798
P 8.742702853683491 1.582946888261806 8.802749620586177 0.23489598481507934 0.4963344960053775 0.4929635226506155
P 6.739208443970344 7.3281822848687055 1.6682351291159294 -0.015649533611798855 1.1577620971000835 0.4188206207886142
Ni 9.000153596104933 5.968626614813603 9.490896026564739 0.5180567181738175 -0.858952858570811 0.36838997494188813
Ni 1.4074389763844666 3.588743732819527 0.7223728796521491 0.17749713518063623 1.4336607495797695 -1.2043695125459772
Ni 5.3479598958754035 3.135641066892532 1.4183429775786647 -0.8039502770826865 0.5035014460674619 -0.4284064647048364
Ni 5.2267013850769635 1.8800343675892197 3.5665192740887255 -1.9334050425976446 -0.14841924397807343 1.3335162814476842
Ni 0.8557838433672827 7.291921229328481 12.489535799072152 0.44720997056458467 0.5468073079439486 -1.4011234390736966
Ni 4.492518207168291 6.0904079893018475 7.557302988349992 0.6663288950510654 0.6292006227402003 -2.499938882436243
Ni 2.3274680903530833 6.8939944422465285 6.872955141212615 0.1592901252543063 0.24320347623951016 0.48897394187524823
Ni 2.8005496530588823 8.251385273164901 1.114065663864095 -0.2399795699855738 0.16393430889453703 -0.34685312931137685
Ni 8.821829558740406 1.90577393800305 4.7582760611245725 0.08599440188394866 -1.288814567664935 -0.31958658028593995
Ni 3.7134237902196627 6.3471157149009345 2.450951982399704 -0.04051467228459474 0.6852195613079812 0.32785241983915797
Ni 1.3663070327865994 0.2097353028556452 6.728629168646656 0.3068490781146135 -1.3492493759122248 -0.39392437176756673
Ni 5.046845448831785 3.711928583527769 8.005035752452235 0.5322625773605544 1.2343292921328612 1.5108653210862302
Ni 4.369489298262271 6.873593585297007 9.66296037652713 0.606836139002071 0.6331015004565033 0.33475531760657834
Ni 0.7789632423738176 3.668246532811212 9.519144425384907 0.016077622288152953 -0.33767043437084426 -1.6817220681322131
Ni 6.070649245655592 8.00533662840005 7.496927826357922 -0.6425377061687386 0.34824409612163254 0.06853455453628843
Ni 2.6866020608704995 5.571773074252826 4.5801575000170915 0.7635520757712979 0.8713116372464801 -0.5798045888055756
Ni 5.183322044917661 1.3415856706108071 12.546608664075992 -1.0346175685283987 -2.1906734815706526 -1.2592013727841926
Ni 7.159728446280118 2.21432772631738 6.983006022954883 0.3244282246489574 0.7075578197938653 -0.10586003045962414
Ni 7.065264406322304 7.178689134820883 10.148499854621031 -2.0009075563249925 0.49442365213590983 0.22606938766238488
Ni 4.826866604179589 4.370058027188022 3.8338649825135156 0.5869016048616732 1.0196876866914437 -0.11505660935722765
Ni 7.540730961297381 6.977606767379124 5.916576910450754 -1.1804744510959349 -0.5919152560261806 -0.14288211620992813
Ni 8.248541628536145 4.113992414892201 0.4552032937333983 -0.8553263175618173 -0.7669132789340469 0.26206920279576157
Ni 4.137346993036753 8.753004185677337 3.2672871363283993 -0.7439433004014349 -0.20153977795213682 -0.16979668121258498
Ni 3.1174142221269294 1.8559000804335577 11.157399284371285 -0.723205039412819 0.3163426194273455 0.7464943489580628
Ni 9.011876750413157 0.353954868074206 2.743940944242834 -0.12404518600908314 0.7464632386098112 0.04870337874297419
P 8.902589066197057 5.465466630373324 12.228969889825148 0.013577481574118552 -0.07594087430268856 -0.37420683873398136
Ni 1.107049200068821 2.550143810879003 2.662057738505466 -1.0107294490568914 -0.5544931066239805 0.7164240119352436
P 5.589220210007318 8.446376737272809 11.271665181297145 1.1296221443307577 -1.1270412709774589 1.1317507606379862
Ni 1.3633166194028115 7.408042833700782 2.7998323207686604 -0.12621596840815683 -0.2875138681211113 0.6359410267878274
P 6.90380042969214 2.3105621643827736 -0.5992164653901945 1.7454090647682132 1.668068739014837 1.3957328641857447
P 3.1743238068907935 1.7868086890019932 2.613926759901985 0.9267016839810105 -0.5279544369035036 -0.3023355065149761
P 8.290783510843946 3.6399293361371226 3.0804560150002995 0.9878551155618794 1.2875935507736405 -0.5887797957209924
Ni 3.0626052651694677 4.350189206975493 6.55887550927131 -0.07450517029742652 0.8061146317238569 -0.5207656324645483
