# total energy = -340862.22814041673 ev
CRYSTAL
PRIMVEC
9.35892017444259 0.00000000000000 0.00000000000000

0.00000000000000 9.35892017444259 0.00000000000000

0.00000000000000 0.00000000000000 13.69772568944879

PRIMCOORD
 96 1
Ni 5.303877871202563 8.345863842634959 7.69490321537651 -0.026191313683387153 -1.1133779145577536 1.461367985687051
Ni 7.808689902510466 3.202051582839774 3.9631217775033614 -1.7264286670109688 0.5259037250220621 0.9084229402764806
Ni -0.024551255242061205 6.181276635714147 10.520674733932866 -0.6516926331951293 0.5332264839357205 -0.4547535872397975
Ni 8.93904156096572 6.950926152483631 8.10168400044439 -0.5963840904308116 -0.3098968638020018 0.15106516624135272
Ni 8.166855776834288 1.8429304801208275 0.33964644312152314 1.7796571873178062 -3.516958535377221 0.9699067586135748
Ni 2.542210276246444 3.4115603694249077 3.8560051927637256 0.2870209876450928 -0.5359847634071478 0.933389123303515
Ni 7.565161441162668 1.4331314433030276 6.019739802058437 -0.3491936045190954 -0.6798878646824227 -2.2519459552278893
Ni 4.669970132358157 4.415922244756376 11.595371701903627 -0.4492506551436973 -0.6295070982370256 0.6813824469500782
Ni 3.6390008470266197 7.054763371601029 9.179051068335315 -0.28746038917535655 0.24795590332283102 -0.036653389556975585
Ni 6.4489791878217675 5.493920103865734 13.039043161084981 0.6101346072476846 0.019062930168722004 -0.3972698912010319
Ni -0.042181589029655034 8.17610238994722 11.919555337145407 2.7875928756796444 0.8228869660861892 -1.1479348265970166
Ni 1.7934217925019869 6.220696407406123 12.099611602003417 0.3392028118549707 -0.17752233199161685 1.2640391604924681
Ni 5.124851087561582 6.828633142820988 5.701322197524024 0.09475055081002391 0.13579358479426293 -0.9095799366990592
Ni 1.2471416230668813 4.544204963318085 9.155641601352137 1.1314910792186965 -0.0967074174260786 -1.6595522169033934
Ni 1.2642403701896832 1.0913156024896242 0.3295827962790772 0.1442550852980548 0.3657242551842669 0.514872664018881
Ni 1.966851941890405 3.780526437607358 6.679613864872309 0.36480457158347496 -0.015873476697146855 -0.3486693565845092
Ni 5.9797884437016675 2.3913725601116895 1.0637124033850858 -1.1112570115600087 0.5205661148592324 -0.1846895391640174
Ni 3.0138436985269426 3.102023444225376 10.359261438023198 -1.1300993410774924 0.3609222058099333 1.4129978219137795
Ni 8.113294676788422 1.5207122181115544 11.483940654972633 1.970920265934283 1.3468459086770546 0.3614066016455195
Ni 4.892937046125879 4.212843036317583 3.9389177381990432 0.26885922913440147 -0.8364600767849336 0.15538127711820338
Ni 1.4154243663701647 7.565058493040966 3.532931525452305 0.2851947330696314 -0.3348548192989201 -0.002278254511215431
Ni 7.144983361893207 4.184260894164853 11.087048504940306 0.666082326257898 -1.2337777905047653 1.669480274650383
Ni 3.5425384569911973 3.2876014719747113 1.450451996833498 0.5337597307313711 0.6113581952421406 0.7994495609988554
Ni 4.669296290107012 5.236128648202037 7.428591398803892 0.4420554229468387 0.34548478820894046 -0.89375376830008
P 1.0874222917052314 4.404541797848151 11.167947946650328 0.01452750419221369 -1.4975454640488723 2.6209614795689187
P 1.7759112528923746 7.8704587755320805 5.561837787429046 0.2616352005821365 -1.0396893266243514 0.5038539443108743
P 1.2926353339393166 0.5518992650960417 11.932513697991729 0.21419860436672788 0.28195848552052083 -0.6403718088656714
P 4.792487756104515 0.38104375464220674 9.423021270714417 -1.9783119304126642 2.8468537182234908 -2.333352737741156
P 8.248184792979414 8.35207816561774 5.689884661202856 -0.6548329785963238 0.11723947594115937 -0.8400231115458435
P 5.621248212571655 4.628734730156151 1.9058196158849712 0.39695878771851634 -0.39274140720305906 -0.6429871350013313
P 7.228549159955328 7.563579783656509 9.684716331974679 1.0115745706660062 -0.6347053546085134 -0.2875100114663694
P 1.5654478564514518 1.1529160149484534 7.844358619004401 2.279925471159951 1.959156954750768 -0.9424905713841509
Ni 9.164058078247342 0.08451198488977123 9.645034510518368 0.7044133606276126 -1.8793681674568987 0.07144658597676083
Ni 9.028063609478084 6.100696333181403 0.3108031870964751 0.5121439522338084 0.21449119590648222 -0.06198209812975132
Ni 3.7975128776883023 3.11029672964221 8.238181979117973 -0.6491336142187014 -2.0115542374055613 -1.7673917396868914
Ni 8.455672052811114 6.122483899301755 5.469460566041189 -0.7839260114419595 0.3977586579119924 0.793226462907279
Ni 0.5676035331157796 8.854427563846262 7.0504657554659484 -0.865279057899155 -0.5757661570701439 -0.20918289631969134
Ni 2.474957076014121 3.4599927812259472 13.039303339065285 0.4622756066484555 0.4621159411421396 -1.248992550571991
Ni 9.23593458503613 0.3306104057120732 4.09508535936195 -0.47943746313972274 0.7963637229846801 0.2541046965330463
Ni 7.484010244500483 9.036327535974763 7.608456741690744 0.5601515904613386 -0.44785840278186095 0.5250493474415666
Ni 9.157619141180845 4.542941509097189 7.327995173736099 -0.18291162132798822 -0.19849584891949038 -1.12453213140236
Ni 2.1175305563825275 6.212469916590063 7.374499647985251 -0.14010146814099744 0.3201275403910745 -0.48825686120356554
Ni 0.469098090810566 2.6930947869819715 2.932436067452515 -1.1929083059839132 0.21059803149966314 -0.37099347400300625
Ni 6.267060497852954 0.6726218479567119 12.493243104253816 -1.2539231551043888 -0.9376265584236304 1.346680586743784
Ni 1.1446708062920832 7.955578154339897 1.2978454447894885 -1.975048943390676 -0.06596345137500254 -1.6116353386174567
Ni 8.464759564281415 8.008970793822977 2.8314982417990717 0.09310427345585257 -3.611449404767954 -0.13665644701519045
Ni 8.02615377122717 8.717983866909574 0.13074130688637306 -0.09695090089545239 1.166267049247301 1.2263858689160687
Ni 0.11961729439038939 3.7238581760701033 13.53654463867332 1.6200495308230807 0.6603585364002433 -0.5307453693850794
Ni 6.874538646180233 0.3014657924580409 10.061636546396683 0.03261007272553739 0.8466568148122774 -0.6620490367287888
Ni 4.2208168362894645 5.563756366060778 0.26721776004360154 0.36013699090447654 -0.37113205646339953 0.3423832664654813
Ni 6.873537241723671 3.7133574676564285 6.706912899071816 -0.37295214039127383 0.43103233236345767 -0.39310650385196166
Ni 6.590139780516468 8.42751106206535 4.160190687418749 -0.5407862985608494 -0.5539966266035362 0.6569315129965654
Ni 4.307171592557713 1.4765474739010995 3.188803095468653 0.21782463115508938 0.13291857723931302 1.6442161007669553
Ni 3.2188134088370033 1.9269735831108437 5.74886738369439 1.4219074656985835 0.9631750963166962 1.3566996615426827
Ni 6.783073919507469 1.3469357886774096 3.2404166042303055 -0.49503146092323774 -0.7086237991645344 -0.00384071390232887
Ni 5.205337800892776 8.182354148610619 10.529592848948365 0.8695866841355733 -0.8524654510742544 1.4629420150423902
P 8.200828656996176 0.434147203492502 1.9823755827511553 0.4297665782771566 1.4208761962205916 -0.035087587731752475
P 9.242392239942935 3.995472756802425 5.133852496966458 0.69547440626677 -1.256048428977508 1.9192575474526687
P 4.146104576693774 8.172611512729484 3.6507865351775473 0.36168865166231257 2.052997849262329 1.8259298451321004
P 7.42789415925236 3.440872507349711 13.220770929082635 -2.0360815331229642 2.744851885167692 -2.2692242826923628
P 7.608530677159966 2.442125984111117 9.376846230454712 0.032379187661653916 0.8898120100435127 1.571103182831365
P 5.836194531766721 2.2964543919018072 4.992656340375169 -1.2472884233966908 0.26092326211677647 0.5261721481921003
P 3.6127022813916594 4.933526682837205 9.25581386733692 -0.1975121448499824 -0.07671940433992594 1.2902366448234426
P 2.1498188309165536 1.5696125759203334 2.6061288932276145 1.5954106492284783 -0.40902806017822463 -1.4512802624337457
Ni 2.543660908870436 0.0959130214223367 9.43608913092655 0.43793137347613614 -0.17856182899972473 1.4343929997601037
Ni 5.159479092134305 2.127488447427224 10.84224255099138 1.4640175074947561 0.17769562434468752 -1.5764341081259754
Ni 2.8000859621915333 8.244179175153164 13.051001053366756 -0.7539451488091532 0.7093041130610107 -0.5377418553075707
Ni 6.10819282822539 1.721769899796913 7.950392376682128 -1.0904223342028445 -0.5584307511154898 0.23451186200278323
Ni 7.585489015738873 5.044486040192397 9.003309265668664 1.7188732232612138 0.5892384805249659 -0.8932387763368747
Ni 1.3429956832922427 5.386957005416636 4.831695080308978 1.1287849931414429 1.6468828489658411 0.2682066831520671
Ni 0.8723543065481519 2.084802412601226 9.622706934705084 0.9134787575328333 1.3860997119713547 2.211311726646295
Ni 7.911413410129443 3.9868719091801728 1.7269547415626667 -0.5401455796530569 1.0165131456182042 -0.1954894579929988
Ni 3.896558329686447 0.9208625256024452 0.9606950256732478 -1.3962779380559371 0.6417005549794239 -2.0090381558519272
Ni 6.813715024094252 5.747677864942716 3.7318909372389597 0.7146797755506272 -0.1164465477262188 -0.44050633329216393
Ni 6.992395527689507 6.727425780267086 1.4663144306038518 -0.5065775138896244 -0.1999536644119395 -0.6340682352451467
Ni 4.27834611848096 6.764926973327331 11.864791615859653 -0.6247446438513756 -0.6222843552363412 1.5979141323766222
Ni 0.7168914120729005 1.7219664371201635 5.750058774230094 0.14548690082262686 1.7235567447798121 0.18382744827403824
Ni 5.545740444762807 8.995082774852603 1.8715612886583615 1.7530758372848518 -0.02124142587727955 1.2299669013991077
Ni 4.839862609928064 6.612647983488738 2.4936028526385097 0.9007564248701584 -1.5761520581091824 0.3925190067796079
Ni 2.2383729334211786 0.4426104749884788 4.490497864117806 0.6908127391250426 -1.7590677932022287 -1.1143657323923195
Ni 5.763288543760906 3.828350519598336 9.271264508620463 -0.9178776579314771 -1.731689915409908 -1.1547045412206824
Ni 2.6670676300315 5.518552781713141 2.8706456689145434 0.4469775428388044 0.256177519901675 -1.1098781289346111
Ni 4.86656360912968 0.1360843144027428 5.8464500364723415 0.6572297609632745 0.8181538222765781 -2.0616992336910682
Ni 3.5722343106423464 0.7921380660094295 11.826096224587655 -2.2190060099667592 -2.8622165738328063 -1.5964714863928247
Ni 5.690298325473697 5.906901173536163 10.111688051384503 -0.06673761053686571 1.252597751424746 -0.15398054011593482
Ni 2.9877510291353873 8.736842091021476 7.169074158263651 -0.16367359903398265 0.04878282583065792 -0.43925549160419836
Ni 8.893341953849879 1.7247086007255172 7.8267301570008385 -1.3425030583273267 1.219858609320512 -0.5128800590688846
Ni 3.3209660223265387 8.016064855300307 1.5626635777054017 0.270239911532012 -0.12414134526731524 1.2484274220971403
P 1.5050079500918168 7.398057921798889 9.19666642785066 -1.1077034898807956 0.12502786163732663 0.3129533912401385
P 6.778853046517658 6.147547087476283 7.3213250713417795 -0.28652682161749365 -0.18171400147546124 -1.319064624798728
P 5.059432235679597 7.934258534227285 13.85566041865128 -0.5491223292303704 -0.9420660822522227 -1.6862127569137153
P 3.5601051501217382 5.124748139439879 5.34764673309047 -0.8559778351028872 -0.15305699986040092 0.839462096836051
P 7.651413249309215 7.275062993124636 12.455711962649076 -2.1538969361722518 -3.231470696547202 0.1354184608430313
P 9.141540516354915 5.597336171576166 2.616758754739425 -0.3125569271326682 1.1708585252727255 0.20883374051038875
P 4.425234370310392 2.232701427807376 12.832824034934255 1.037881326881335 3.0936132872453754 2.884244757277439
P 2.2284431191369465 5.969512349371709 0.7500247970969044 -1.7756807191685615 0.3717558060903275 -0.6289298855773169
