# total energy = -381166.23406184296 ev
CRYSTAL
PRIMVEC
9.22763163645335 0.00000000000000 0.00000000000000

0.00000000000000 9.22763163645335 0.00000000000000

0.00000000000000 0.00000000000000 13.50557164324543

PRIMCOORD
 96 1
Ni 0.10334486255212984 5.06650507104311 4.966674090687493 -0.41072113160993134 -0.7934185243134271 0.4594828743946668
Ni 0.7221397019107637 4.704837269545884 11.378079739155623 0.27076030281185626 -1.7187919764013175 1.30277282961724
Ni 8.459708298633117 1.3529461496076365 2.2198572443568403 -0.24566273641328018 0.3561255557522383 -0.3361555403882146
Ni 3.5596420227016434 6.054996674344311 4.31390957031514 2.003448063358659 1.6602602987140116 0.3134156755885376
Ni 2.9811617839951814 8.743744033640672 4.570488486846524 1.1253515419798619 -0.9198329818856351 0.16057104884925893
Ni 6.501549460940607 6.9898480538841365 1.598384546244456 1.4415496654095432 0.2283144749428197 0.4389950388539601
Ni 2.7019797833241976 3.9410108181315264 13.106401337326979 -1.2438845399214642 0.9176537148461293 1.8259367871106362
Ni 2.2796403026198417 2.7011400688287073 3.4308335101461562 0.06953522788666089 -2.9654939311669186 0.38285114467254067
Ni 2.1869026028431637 1.8767803526844977 12.319283420439357 -0.556713511314067 0.6138858467600008 -0.048748887268928946
Ni 7.6187019346881995 0.9911768441604066 4.614948139711601 -0.3391012532800999 1.0421547574457084 0.5805368389859098
Ni 2.699534460892275 4.459474539489976 5.776157941576979 -0.2634928226161656 0.4547882971324749 0.5736323985565928
Ni 7.280407724587423 1.4517740863845738 13.642653164542095 1.085382200675776 2.72393338984747 -1.4587958540845003
Ni 0.42186333490251715 4.258819685595065 7.205681439357422 -0.32588115504540005 -0.5934363206563973 0.5697047813674123
Ni 3.9565040119549137 0.8104232238086156 10.423290215545403 1.7072153273073114 0.5740049514046631 1.6166484755613317
Ni 3.9698840780918476 3.171398641566922 11.411668318975236 1.0896175789133622 -0.3980545918858564 -0.9608762729801904
Ni 6.731326720854941 2.6686311219318677 9.73355980210784 -0.47231987825833494 1.5220691602218497 -0.5864123239300804
Ni 1.3681071486855552 7.271180092768849 5.164341960162732 -0.43715412899047945 -1.5627344991516958 0.367557965958896
Ni 1.0788670293323241 1.758638982511283 8.00545505328422 1.2804055176656335 0.11699265003767595 0.14976315960047756
Ni 2.4889783580560323 8.864404547300357 11.89807155634323 -0.09208894481746076 -0.8753295001566216 0.27788714366462464
Ni 1.8695274340750978 8.951910179835904 6.623348664366705 0.8583265378407217 1.1979836636242918 1.4777914213503969
Ni 3.637800064204973 2.734590234171041 1.439612990410874 1.1658973246127082 1.895210276695478 1.0409568804828655
Ni 8.996747242842359 3.3675042729752764 9.407697980356229 -0.29758385076260363 0.4657226846567915 -0.6873111537296872
Ni 2.2915808581930777 6.893557715857307 2.4075574259416546 -0.5552446400780244 0.5806918765065354 -0.09212545448235102
Ni 4.2707048753773895 5.178740756852436 8.122562005930574 0.866758727768475 2.2912151851411573 -0.7547270212805002
P 2.2696375497285066 0.2628112590616505 2.7537993953277686 -0.6439587548859813 0.09735533542272265 -0.26456394419315726
Ni 6.294988922681808 0.28367308907708466 1.7253909023057756 -1.5166780711132652 -1.7061056391829004 1.038554698799276
P 7.795171165586625 1.8991204493172675 7.635955760662569 -0.8547020537142571 1.787876747014121 -1.8945901266129754
Ni 2.9203978284698655 6.868633882315336 7.253585767180371 -0.12577116756125437 1.6048663953247393 -2.5888162622949413
P 0.19045370691947713 3.451198893569751 13.372636970556503 -0.34126740769348324 0.8649622979896845 -0.7228425138670777
P 2.6259533247709586 3.347997059310809 7.5121633887636605 0.11576957626385223 -0.9862970270461402 0.2531040231826738
P 1.7495128546427126 1.3910839519138067 10.28366876402491 -0.6480164698951227 -0.8733700624374056 -0.6075686462927214
Ni 4.47823431497714 5.388817022834114 12.283169237791 -0.7195874972648897 0.30184879668654463 -0.04033572350456924
Ni 0.8286201137548452 0.575798688899984 4.55187727623164 0.03142350861660395 -1.0577420703610043 -1.4285918196972947
Ni 0.3038557653906717 8.069397927971036 8.656180267024668 1.3315416742198165 -0.07180756886060535 -1.4729857724316373
Ni 8.885572734692168 5.6310423580717055 9.763501621832752 -0.8736893934500373 1.2398695052248003 -1.7956000838003077
Ni 0.44618091303400764 8.563186961846617 1.812002377318102 0.7954653795401267 -0.3294367336071423 1.4162142719685482
Ni 9.350636150716527 3.0634076663941396 3.385144736722846 -2.339263703908952 0.82677935916206 0.22617017490630725
Ni 4.459492994753614 3.280090916757916 8.975154584386894 1.2315856679494532 -1.7646362884289415 1.4464805270522574
Ni 2.2756262827787617 3.479915283789156 9.64788124067237 -1.8015185061672718 -1.3741589946697108 1.0576752216788108
Ni 2.1873824396977297 6.054304601957917 12.439968848704952 -0.46856632475317367 0.11053481022747415 -1.046786856901081
Ni 9.373520677626592 6.687910713148547 3.3818495494004326 -1.7423335111666831 0.0014493308520168587 -2.0943758979884834
Ni 5.274717355397434 8.474657062179208 13.328406162960526 -0.34202202647132063 1.7110948648673756 -0.4978370486928329
Ni 6.203847603209743 6.138396010720591 4.212752579267194 0.17639284637286395 -0.05059288245620319 -0.06331778622203935
Ni 9.328489834351947 9.196857666459975 11.080984136835239 -0.022095032126826463 1.9069159951681804 0.5347884291062015
Ni 4.303333781487871 3.5358993260324505 4.155583709098394 0.6975888815066115 1.5129160329676719 0.3284795119001956
Ni 4.057389710627393 1.3280038608020284 3.6110925294324714 2.232269816955201 -0.9972447843068954 -0.6904702681839593
Ni 6.488796873767337 1.1300619306617778 11.398054793753294 -0.2645251205354219 -1.309392906036919 0.022264467825155204
Ni 7.075148282415044 4.9694580672071575 8.23680562442362 -0.38232586829668996 -0.7200585233640374 0.730565079322316
Ni 3.749998839487026 7.174280731041994 10.346632586975774 -0.6651356460739125 1.1029204666698553 0.6962115415431106
Ni 1.8538312323517019 4.722397452896632 3.611322297464754 1.3225404991624707 2.019791280603373 1.7656863269600105
Ni 4.451178898485078 7.599351590764647 2.065366386923895 0.09255997091660834 0.7356424938452234 1.4076830945690855
Ni 5.645502057131412 3.578650944247908 13.060671039560486 0.1461147642146129 -0.9961764909433812 0.21802954807704386
Ni 5.40612806012576 4.808306705127565 2.3302104932751777 -1.9977409856715531 1.2294776204675149 0.42305394214367137
Ni 7.814779883201098 8.571953212074263 13.177440260882276 -1.568883292361911 -0.6284568025956403 0.522668505914216
Ni 0.5329640219981592 2.500854320206538 5.605825085837903 0.4899846425279497 0.37230242262241686 0.8184147892474486
Ni 2.549788451740441 8.842811888844892 9.106915016361143 -1.364909708157301 -0.5267064234290155 -0.5526198008606676
P 5.1253312238865245 1.6526596310749502 0.36025966488171096 -0.1505602015804762 -0.8859980356140612 -0.5340134986133901
Ni 5.4128365484578636 8.4260182148635 4.423912169224371 0.6533882757299974 -0.26868696522259533 -0.49805533535122604
P 5.740029917480894 8.376650384634125 10.451489858382969 0.09960453646821554 0.3968585146952262 -0.15726795261795495
Ni 8.446983394355303 1.0504090128038392 9.316468075618706 0.35751857944502297 -1.5442719215711338 1.4156797396213168
P 0.8092909933844764 6.356970925607175 7.124161771582585 -1.8157891571536726 1.596734253135908 -1.122272645944222
P 3.5185144676862548 5.111452865631388 10.359489446388595 0.4282182599534302 -0.8297171016341452 -0.010650023514678432
P 3.1239409311239914 4.964678153925136 1.785018013591043 0.6953067703406541 -0.003761009704329006 -0.3931782376301616
Ni 8.349502691823877 7.194849122365597 11.525493002983723 -1.4092046734199344 -2.3137151660158866 0.2690669742698334
Ni 5.895118725455681 6.137805442284203 10.446600136282306 0.25528303311186357 0.11634344648945126 -1.1025749104049785
Ni 6.209430320459981 2.669443153531902 2.0926072788155103 0.029517549843142716 -0.2860385691271654 0.6769740334697373
Ni 0.8621551733099102 4.87425658973492 1.7831005116991432 -1.9035223961055991 -0.42131664773759053 -3.651517990654066
Ni 7.523823424329612 7.526628624402458 9.214810946926194 -2.274978925787953 0.24923322737335787 -0.058240885919764215
Ni 1.9523823401740819 5.514109807666723 8.628966135265328 -0.6086353969943389 -0.6633523289212447 2.8605114182162414
Ni 3.0609992544894915 1.919734978799964 5.794930635748687 -1.1854071125108616 0.942274598718603 0.20282275842961842
Ni 6.707620934713023 8.2092242329179 6.758944100124753 -0.9067391248161545 -0.04718771342939615 0.7378592989908841
Ni 8.865521090750406 0.20977083136848185 6.726787648763384 -1.2051783816005182 0.3340251243087731 -0.32610689790296093
Ni 7.604020772464846 3.534902741796044 5.746810381341182 0.3664601049090269 -0.872845043171871 0.005663883153996697
Ni 7.9185999687918835 6.121777045815337 6.390269757787685 -0.14587153785555523 -0.07603780489186904 1.1029382072816682
Ni 4.6163258251421135 0.4159862561972668 6.286735728783274 1.375671060438863 -1.607807223120618 -1.1955861099263925
Ni 3.246428515883755 7.477592988918551 0.15963618493498244 0.06319308771871697 0.18338727541282612 0.8964318293528755
Ni 4.05598711059097 1.1915733243643982 8.204607648719067 -2.4104940601098486 0.686446748846863 -0.40149087126091504
Ni 1.2576339405535761 2.313238110071273 1.2528577183242817 0.16242455711822995 0.20162899523183336 0.44748636415442283
Ni 7.927227804542252 7.851339760466291 4.900442763309672 0.8534596966667237 0.21874302920430067 -0.5825212164057904
Ni 6.124905213001835 0.5474606315851405 8.59882223040359 1.025208102289041 -0.3106887635756779 0.43694792651694425
Ni 0.4531477750570317 0.5323817584304071 13.410357683904472 0.7941811135110646 1.5576586272906852 -0.9966099789363739
Ni 5.63398597262183 2.6040561544654803 6.991808002882402 0.8015049008659874 -0.7420296283184898 0.9700561397072455
Ni 1.1494122745853295 7.300662376429196 10.677586215964872 1.9959504694300336 -1.6232680377603785 -0.8353961542967935
Ni 4.676942138558332 7.808864971205391 8.243976417109835 1.504904475517105 0.8228507135316151 0.6169140920633635
Ni 7.251543692258921 4.72105021865112 11.579177519377827 0.9865158279251656 -0.9540782762217505 0.03918206951610026
Ni 8.745321958681648 2.5186728772482065 11.488731040581701 -0.37596675884788155 -0.8980971328704404 1.2348507118539702
Ni 6.309171792786957 6.569612473234415 12.772030716275461 1.4511162260520558 -0.1469010075613341 0.3383188665881206
Ni 8.740366720395073 6.6800579984709385 0.7167018584800775 -1.1250604931020043 -1.9978240323036627 0.4993812532515013
P 0.9778336885507474 7.658159288344425 13.252058582820002 1.0704494906253437 1.0317258488029004 -1.4090930875427345
Ni 7.131446064140168 4.651104769466322 0.948115177515845 2.447411501961488 0.4038868822969173 -0.2777735009048958
P 7.583572340354884 4.64788432596164 3.393086036665912 0.45247379006668526 0.1154157924688593 -0.6325669681092718
Ni 3.000281437123269 0.6863964700615137 0.7820925485992268 0.6385733222043518 -1.8648823151358978 -0.7717790916667805
P 7.737913710152369 8.775284079196561 3.022722114942861 0.4814251829937128 -2.008381753214851 0.023990963597958683
P 5.856390354713123 2.2828330632290688 4.888490211815072 -0.48716157125685783 -0.3622054433977311 -0.37664115920708685
P 4.823043233141829 7.028917847003982 6.1666168771113385 0.733896200578078 -0.43293366315122855 -0.9472810507942588
Ni 5.7380367490080815 4.7976395627452915 6.188671839920915 -1.4237326918327804 1.4564780045846013 -0.2525527786648941
