# total energy = -340869.78181907756 ev
CRYSTAL
PRIMVEC
9.24957575377010 0.00000000000000 0.00000000000000

0.00000000000000 9.24957575377010 0.00000000000000

0.00000000000000 0.00000000000000 13.53768907708846

PRIMCOORD
 96 1
Ni 7.228571188795515 7.354309921392174 10.287547404208464 -0.08146000434870486 1.2344820156606418 -0.5208041990119676
Ni 3.8041655099568645 0.6806781285519053 2.672082186527205 0.6770362541662405 0.3665984302591041 -1.3750316270826515
Ni 3.233503685160379 1.6365274355102803 7.1095883463186595 -1.064316124034096 0.41696788385059164 -1.1312853909657936e-05
Ni 5.372125840513561 7.270943495256108 11.81118654269635 1.5807471336790324 0.40910596460401155 0.6190625058649338
Ni 7.118473488773592 5.256977872138115 6.550549538395866 -1.2384068046363446 0.8811396790804953 0.07895806386245756
Ni 5.882212193795001 0.540633077159657 8.806578408519968 0.9432233357851175 -0.028216828753848178 0.6049998571242806
Ni 2.6859842988629983 7.158709143238464 9.534336877583643 -0.06302905133702694 0.6805270409283182 0.6977950839801466
Ni 4.113998548487853 7.298932711442475 2.4406966497542544 -0.35850588305895675 1.0948227772633854 -0.845124437328151
Ni 5.541393076538192 3.76902637172421 7.740674874545644 -0.04148886327240597 1.0147521970630395 -1.0282767139120355
Ni 8.928772703693422 4.402076584880595 4.599863037781442 -0.6005369362569206 0.7609909999123411 1.1440843425026748
Ni 7.456517733308686 4.380229086984956 0.2658818294917406 0.42410937999137927 -0.8719806382890466 0.05071835229047394
Ni 2.2121192841756803 3.6083149932582006 4.2268045242861705 0.4648071148210575 -3.6381485113256953 -1.1923429203987466
Ni 3.9670135404185953 5.262250130309375 3.638714648882165 -0.5861428723187776 -0.2996067947299033 0.27218392263226027
Ni 6.377748964438916 6.941732595551808 0.9423717501490038 0.6083775153472619 1.231823494991872 -0.40558046794925634
Ni 6.065927267124032 1.5553346596728912 3.553846091646077 -0.6414385595672889 1.026754106619922 -0.8087628679799812
Ni 7.51565027100844 0.31932402819682904 6.805409573436952 0.29663048571039885 -1.1271765110037426 0.7205259499187591
Ni 1.4623764234954293 7.659703163568418 1.226851701579254 2.032607201421119 -0.9966973964438576 0.021799612373594714
Ni 8.981874518011313 3.8139885593917366 7.006742313676153 0.337150043091 -1.9852731922218458 1.5506426009841683
Ni 1.9366299203637876 2.930533831827766 12.35136824055994 -0.14016805971287472 1.8613835579540199 -0.07458975959143282
Ni 5.94187195731188 0.12159399770798957 11.257725228944203 1.1725449118362128 2.5111926009731915 0.531136434175911
Ni 3.5747205341739674 9.164424144797222 11.71760118528378 0.41813902134055725 1.6034900838025028 -0.16135189287934149
Ni 5.5684110872719605 5.759849556343097 9.18520054182228 0.30797624974052124 0.41246922464928965 0.7609660602116766
Ni 1.1305756425841946 5.465241319478586 8.482770186004847 1.603570302221135 0.6003430750785596 0.8225642926394479
Ni 4.857414699362594 6.99335447775145 5.589969073446966 0.3384692761230558 0.005029592004107466 -0.2058183507228326
P 7.619208520982854 5.526140526144497 2.2563803540021867 0.9309630303605257 -0.8201687958240779 -0.7441561877431895
P 6.636635339799213 8.87587438004179 2.1960842196744617 -1.1406683748425903 -0.11885490005739532 -0.659040074699136
P 2.428633353075384 8.760809657847997 7.728382188388445 -1.5086477446096211 -0.14885298908138236 -0.7272496417958378
P 2.801252511723051 5.803026575892987 1.6612367521395808 -0.9086409698245577 -0.23792371589780958 0.6976284764952954
P 7.899896146360093 7.258114333706044 5.980991187985048 -1.8936156785148486 2.3922225154941708 -0.7450452752163621
P 7.857616335656891 2.8987430400126475 3.510078949164036 0.6406062934739806 -1.440255372078152 -0.9539489497327378
P 8.761392381119556 3.707942173543518 9.416870965527993 -0.0655009099162872 -0.4098852659721974 -0.027910353257022902
P 9.267334924469903 7.633795101923336 13.143687823324617 -0.6859397273034574 0.462286662392049 -1.0669738733719174
Ni 8.259195915943526 0.5532346991465401 3.2369019792869063 1.051725431853279 0.12094854936163041 0.14028658756861
Ni 4.585736160755189 8.984270158127728 7.138856778829739 -1.0332636256036656 -2.3176391836606407 -0.991239715763396
Ni 2.5919623614755456 4.208769701510169 6.57750280209946 1.461940056140437 -0.2471472913786066 1.926880096994933
Ni 6.416587932967191 7.429481223423441 7.675991666444887 0.3875971439979583 0.13093651381227772 0.043712096175969876
Ni 5.521617483608102 2.5920918555358923 1.035762866471053 0.84935364491815 -0.905198519801912 -0.22515896003297348
Ni 7.400853786511078 2.1290858427662203 10.67146214474866 1.2676559313094493 -1.5669038000380369 -1.0468711890847713
Ni 4.586855359419615 2.5303601870534664 12.192949831919643 0.5012247342181432 -0.09381055549425778 -0.4142342869695124
Ni 4.8725192565444635 9.217775697660068 0.010426121773058204 1.1165534840722577 0.23437096554954473 1.652329216792393
Ni 0.3991672909338905 8.792979682268417 5.897883749969676 0.38771155808863556 -1.2123381325737506 -1.3863344536899802
Ni 1.7373663102174135 3.2776334110113905 8.821632093035273 1.448639482376789 -0.38871146010805957 -0.8870946111123496
Ni 8.996775584526924 4.1614118737262284 11.670950025086304 -0.033540812069922876 0.00813497040230857 -0.5730569856690969
Ni 3.5388044315792326 4.535002237826495 0.19471559375548272 0.44138719323522047 -0.5451797996428547 -1.9909321902798356
Ni 2.4848707735688143 0.9006478389477188 4.614646634685167 -0.08460214952211237 0.061105866172385094 1.5503844622267748
Ni 0.40740403812951537 1.1144166337680728 7.642106770682448 1.2473185053036777 0.45597691812393726 0.9367061034918899
Ni 0.048100568715786524 5.996379707142107 6.6813644381581145 1.5064821044168701 0.3309158892558301 -1.7860234958554662
Ni 8.813615485742238 1.6414019619247602 5.179655118789945 0.6438931917553684 1.0171919168527837 0.29081387902862177
Ni 0.6266726306843088 4.03031763677666 2.537449986857449 -1.291025459273325 0.2391357339280398 0.01912437953427674
Ni 8.607044710762013 7.967973023799508 1.7175944171176183 -1.6550718125345367 0.25826397011705843 -0.6264893944566243
Ni 8.159272749234558 1.7985707528827135 1.1183551031177605 0.14920908686922046 0.9877301599482409 0.0456368240025085
Ni 3.914235461251571 6.502423995825583 7.775168392391713 0.7083486911262767 0.23931442559774913 -2.00604539177219
Ni 6.128297156332452 4.139212891952506 3.931331452090059 -1.0459242517904697 1.0482513572617493 -1.8250741820000245
Ni 1.5689500351607741 6.568854448783447 3.4584061942978277 0.9166908367122277 0.5836722992910981 -0.7100075668859385
Ni 7.370681670450294 2.2185292401628427 8.226786327511466 0.8339799906755573 1.2079947680033907 0.030487369955579754
Ni 6.441275050614717 8.91096727039575 4.754503919689913 -0.18836698801560461 -1.9505645850960665 0.2832162691870219
P 6.990107876667044 2.1629392899711464 12.665699347772831 -0.9435583505270331 -0.172365984601658 2.2198009950642286
P 2.8235624884056416 -0.1864436981720495 0.5468376925654125 1.0423537608303919 1.5681980933694282 -0.3461692158704747
P 8.426899973668258 0.2661574668487643 9.245159066635528 -1.5582834053588777 0.9635497060472954 0.5974775806053065
P 1.6295255066758187 5.373938757358414 11.629443478914885 -0.0649982592482558 -0.2820245628717659 0.5235817617571047
P 4.03440594925332 8.4249205644601 4.242224492000743 0.3500778068962616 0.5913508988822782 0.8209984908142247
P 5.6969894396205065 5.163520158870744 12.418826321382413 0.002892233946130503 -0.7249397627157386 0.8567154845998599
P 5.077573101103484 8.018299965395682 9.860784929014688 -0.7125563014497213 -0.6874816178692805 -1.6835380382950293
P 5.710632563835607 1.2127858717528794 6.281975157406487 -0.4123697229569479 2.2917317197662594 -0.9461631351397317
Ni 4.279047977975479 2.685207334500918 5.110220403632038 1.1524712810147895 0.017085751837693154 1.7397238414579776
Ni 7.021473187998166 3.108791655470755 5.659105952266076 -0.565748882043458 -1.7452046620668913 1.9460960078017517
Ni 2.2580249285685903 7.4481746159920625 12.123190456653294 -1.6378695897236375 -1.7451637815266265 1.1317294204817476
Ni 8.719565799627567 0.024223713903000467 11.346695048062985 -2.375702149241644 -1.6374394441647542 -0.5607815107358535
Ni 0.9962163053987408 5.026524692599662 0.4439870351350357 0.15929321057809986 0.6880637156249957 -1.7345680082886514
Ni 1.5652779535923709 9.068848278685609 10.620628326401983 -0.13173895510891506 0.011232635491025817 -0.9149553420783598
Ni 6.183877856948408 3.9412719711368167 10.528707892622444 -0.7008523827492317 1.1572280789734846 0.4501297153145409
Ni 6.165434202924741 6.566653049757553 3.289631035702514 -0.7617265925267849 1.302064490696306 1.5942055731767835
Ni 3.454207811869873 0.3570484228485482 9.337295940487364 1.177139730295747 -0.3708579768664065 0.08163972445967875
Ni 1.4182189489172001 1.4207625822454393 2.4719139678735513 -0.5720092611308729 -0.19733910960722786 -0.4103555207403965
Ni 0.8023960705747982 0.9322739883146819 12.812569661102925 0.9521486632992054 -0.20395044427615844 2.204685222468713
Ni 8.10682765479414 5.696489962530598 8.96682360836873 -1.157527098271142 -1.1203849420032062 -0.7725383384303083
Ni 9.193366067284712 7.932260411871032 8.127270142135016 0.42014833846110217 -0.7730911256099847 -0.1745845895195316
Ni 7.315766939287549 9.128017814688318 13.274557295583726 0.3338783143182637 -0.2402865597030313 0.8089418167600068
Ni 4.343813507300313 2.5888175057242684 9.15693383836374 -0.4579612955438177 0.11842526871914442 1.4445252030980993
Ni 3.903885185999573 5.723896455445407 11.199216112649262 -1.8751286754542547 -2.100349856183731 -0.68704864409692
Ni 7.674715224992897 6.275041675432494 12.413397745381165 0.46675421124509936 0.61598386693961 -0.6428189848545832
Ni 4.191916974513618 6.744124659462723 0.04932891237393249 -1.2530762337230612 0.37685044700441556 0.9479503089471415
Ni 8.516380369367837 6.959158796244179 3.764195318315704 0.09318989119112338 -0.1463677607656834 1.7521047316208338
Ni 3.2641105312808985 2.3664484553817453 0.7161733754505134 -1.0833425445379277 -2.219440012180384 1.4208322303565337
Ni 2.1645857144526977 7.087579905805162 6.403218596193967 0.1534159258617164 -0.16810618088403953 -1.052127295277388
Ni 5.522283453061313 4.802425971593936 1.5831925318837647 -0.8542120014517159 0.5043563378685895 0.6964596529981747
Ni 0.6413720564488086 1.9035164392179853 10.235522240506597 -0.937597762068224 0.1357154232581598 1.144760799744409
Ni 0.3530165327838959 6.845574006168634 10.251510132171546 0.8570350727228078 0.21606959613719562 1.9980024668630558
P 1.6101661446539852 5.245055169010478 5.101474929770765 -1.290705871150377 3.7532264608391617 0.9678668453654106
P 1.0274058747908206 8.814235207316754 3.7490324888066775 -1.1752473983690406 -0.671336889788618 -0.7160347469166248
P 0.9161566025893856 2.8511909711381866 0.844559336623688 0.24075604314028215 -1.0508224604230354 -1.518937042350771
P 3.413019451103879 4.945664901488879 9.034309437918418 -0.3760688316433846 -1.7856619987509892 0.7128512069823207
P 5.047733969769306 4.869559392307967 5.858962460217323 -0.2032189654267726 -0.6682703350481524 -0.13369839282813104
P 2.8803363842919363 1.955813540446579 10.71244146510295 -0.12943061869071257 -0.19559693010514057 -0.08153070968564023
P 1.265610198798599 2.4564838256256665 6.2259421525368905 1.857955763219394 0.08298338297176677 -0.6157285563956943
P 4.110696449949012 2.9728598904096626 3.073488799747519 0.6250539475616783 -0.027425443200804377 -2.5515630343704383
