# total energy = -381166.2997690355 ev
CRYSTAL
PRIMVEC
9.29729637341628 0.00000000000000 0.00000000000000

0.00000000000000 9.29729637341628 0.00000000000000

0.00000000000000 0.00000000000000 13.60753302761327

PRIMCOORD
 96 1
Ni 0.25321279747023606 7.650066513581442 0.8152120519749686 -1.4491853275779298 0.664280754272785 -0.7079635398727163
Ni 3.079301760350873 4.384707257463182 12.92048908115987 0.7602073276687811 1.2082562491948934 1.5652017297452658
Ni 0.22061275733637806 4.606001506626451 5.763988142123865 0.0027582794714275075 1.3499983382631073 1.0590548756351565
Ni 4.852649483101217 6.391305552560727 4.740470164071128 -2.8436580941043283 -0.33777842070361824 0.49680963586958315
Ni 8.703180575297797 0.2613442129108795 1.9544367433159473 -1.971629890406798 -1.1076780359594989 0.9886213043039426
Ni 8.291040722715723 0.12101825872757316 12.636690037958296 -0.6965018190900198 0.06584980861527369 1.4200457298994962
Ni 8.37404698506887 0.48111184600354107 6.282611789954944 -0.6294597899388579 -1.3860536892247677 0.557449361038827
Ni 5.74219620906724 2.191679574741828 5.762531255776336 -0.666252019066543 -0.7388980246680437 -1.635951032544686
Ni 6.707952873710322 0.2607324508070671 3.914302178005999 1.14511869730446 -0.4522025386831696 1.562409511712109
Ni 5.638484867607856 8.12213673882575 12.946615413803082 -1.530715780153254 0.14824955116942856 0.11934340965803963
Ni 6.920079988612814 8.177223220058098 8.141591331564769 0.14395015246312629 0.9879592452399114 -0.35597617465856757
Ni 1.957294732232542 9.039352218909489 6.318181386562323 -1.3298475743468452 0.02851096295549928 -0.24075630025059824
Ni 3.1199402429612695 4.4557386020395775 5.324559794847263 1.7990646453101404 0.9849181444207424 0.06190496503491273
Ni 8.2051430011789 5.695626051346931 1.2532551020864027 0.4028936651457126 0.8459662165031558 1.8551656020687664
Ni 0.2978621337521319 8.383195524736825 8.446549161937412 -0.3711775649893543 -0.3961105807856081 0.17749816362190077
Ni 5.967274457869593 0.8351194230491805 1.8437524295486705 -0.2340158962029712 -0.18383079070814792 -0.8065496623787465
Ni 3.0450040338924538 7.922616757855924 4.429320334289076 -1.3538308246353201 -1.1967546763131969 -1.3539005015309908
Ni 3.6883211617221847 1.0410461709754966 7.070637617495902 0.8714959853431442 1.4586079064434105 -1.7399282441593003
Ni 2.3346626962392616 3.4559724271268037 1.7391513368227989 -0.44161782118878784 0.3681817155858239 -1.5494115567905444
Ni 6.622650179143772 3.6415092742952018 1.2474759026376216 -0.3607010909380627 -0.19524700296488953 0.29958776856650987
Ni 2.3993997711457338 5.312261331155423 9.84626085546022 -0.18590284274582822 -0.7904753825247032 0.7203081774809982
Ni 4.477568654011486 6.565983157521634 9.435109305486582 -0.27379497587312196 -0.4162145506243348 -0.8482647827293456
Ni 4.84488624059843 4.18417387118461 8.855551176980937 -0.6614872506880478 0.20290709061330864 0.36730728340067065
Ni 8.62572479890173 7.3182460046898745 6.5911760416052285 0.9864533501183463 -1.0796699807823469 -0.028897913981272814
P 6.003264292274728 2.303507455967599 3.4301463971576527 -2.8696863998472897 0.09378895822770299 1.1670131833847062
Ni 4.920826557679582 8.162682248472041 2.8822111629331184 0.01758968805730519 -1.069410764948184 0.30818039533152736
P 3.9729485940339373 3.975179945172463 10.929394027826874 0.08392672072164256 0.2866546054446096 -0.21603951423020856
Ni 0.05516736771112057 1.92934705922251 4.645516875830456 1.0311859171390305 -0.3278138532917387 0.010578289736478556
P 0.9655149349364073 5.935598568998941 7.875033194826868 -0.4763835068047473 0.1486473008284795 0.07774733138380804
P 2.4832985739542934 2.2117245458029156 13.322005842863282 0.7117286633421033 -1.5780382193883018 2.502848342773554
P 6.164972168742955 0.5645885515550632 9.541303025087577 1.4823373888498665 1.132759918628791 0.038718499616120415
Ni 1.6033001714018773 3.736629913871263 3.84606002235276 -2.319917438171856 -2.203012205641664 0.5490487956799577
Ni 2.3398133984506915 8.749211489826298 13.339164933118544 -0.34078352607852924 -0.4661672283933778 0.9863533342053723
Ni 4.170599818425247 0.48080038657378854 4.528097600543397 1.3093715658806806 1.1258835032239318 1.4866964371495106
Ni 5.906888517683245 5.7891382586439715 0.3270193850251732 -1.0539784895535138 0.2964186268099089 0.04212418286355971
Ni 7.889955355565757 2.6337288298765564 2.8686854561150894 1.8917945661457094 -2.8031961294345398 -0.41066353889911855
Ni 6.355669015419193 3.0883387324619016 10.206711458918353 -0.5772103457158382 -0.7789637823406778 0.2473396098950708
Ni 8.1440039799833 8.526504051608628 10.458069445754688 0.08863749593375057 0.06215179093839619 -0.6586109575815172
Ni 1.8595894442543555 5.799978906258642 3.4584910647244143 0.29938336586518766 1.4742350714577062 0.36193033535947344
Ni 7.97033978033114 4.494229409179144 4.099119414432223 0.20675706048701809 0.8730718144706964 -1.4789764427974337
Ni 3.658792948322364 8.889470503475447 11.262002947454052 -0.08830736628784146 -1.132815711567391 0.0707583016604846
Ni 3.7429427781340077 2.7977331385581827 3.8117418418422373 0.5721290745381888 -0.7750513346601491 -0.8737449292783211
Ni 8.243661700207696 4.275305970600557 10.690350310086274 0.7919797349843716 0.3447656506547288 -0.24871232187288134
Ni 4.367879150960135 4.776225706606717 2.322207108238084 -0.8322887190160633 0.7386943932976698 -0.1966549390560097
Ni 6.001079427618254 5.276671280495941 11.057331334543157 0.36418699260413406 0.8766286785840194 -0.24524698903210018
Ni 2.5982131575883587 0.5020158872529611 8.914947884829203 -2.4141751085058614 0.7051091011430566 2.4433728131157406
Ni 1.8432540944610665 6.489726732362524 5.813328894174511 -0.7742159832430473 0.14357657117379144 0.6344996663556105
Ni 1.221013937593991 0.36460370576471257 11.422162824069927 0.9759989875542417 1.018324230685014 -0.1810390868956237
Ni 7.39458610551668 7.02291738420961 12.354715124312467 2.266207607353226 -1.1457082512593428 -0.30661947860231065
Ni 3.3487653022170623 0.32764137415503725 2.336005225840941 -0.19502794497554798 0.07095036306663265 -1.3696667632263122
Ni 8.922466608436393 2.1791096299948007 0.5662062811304942 -0.8023644206528052 1.3971809094861807 -0.33362480354656093
Ni 6.11441347086253 6.1792156268438765 2.9346144444213906 1.929270965824613 -0.9015426682168797 -1.1517588283287972
Ni 0.3193044884637212 3.593823441005629 8.54557187681697 -0.5239805398574202 2.92993788843918 -0.38396520367232584
Ni 1.8778772262938541 7.336663948879121 10.684947651142117 0.6872178226849326 1.386857930293618 0.4184249280120923
Ni 6.568558508627349 7.834422604105703 1.3160174312352795 1.8733533287213868 0.16821699543029092 0.5355003675715616
Ni 0.8393431848084812 5.489477098036403 11.957157151420654 -0.22682400644022227 0.2619126226132392 1.0637250274173164
P 8.082344310188711 7.495080582418023 3.040548769452531 -0.034441469507321326 0.7752989318945809 -0.13817854008667171
Ni 5.708288969058063 1.3202160902942717 11.488744482584247 1.4988484991310123 -1.2974087370918495 1.9068697153112775
P 0.8447328275376614 1.8583993903138085 10.10113043115081 -0.522546635624371 1.1559350711936738 -1.112281081949149
Ni 8.14509176366333 2.680271095707635 6.6287873245043585 -0.05936085845682035 1.4415442660929043 0.19071286253996186
P 0.5487022611784025 7.895124652370008 12.259516387446556 -1.4269607118517746 -2.049384420879458 0.6948609410524872
P 6.575373426896262 1.4541529423842665 13.54487040539029 0.6302272642325017 0.7500028763319535 -0.7362464459778094
P -0.00048810806155245965 4.009579941891398 2.138696141957539 1.5493171973045254 0.6522323077486831 -0.7432570729676877
Ni 5.571451360487985 4.208356139148381 4.3814894631755 0.4554626974916801 0.34491734574124466 0.5353808112745618
Ni 3.814597041569909 6.644219906816186 0.5397452458165046 -0.27074204797941115 0.049627690329456464 0.6900236675648439
Ni 4.078073124547721 6.433422305300397 11.938691791019714 -0.33803784501259204 0.08894294298931134 -0.9289411148344905
Ni 3.9572919468786165 7.553839495732529 6.617166633720846 0.4381874553510002 0.1628269347629712 -0.2612708752641823
Ni 7.595798194433219 4.652209069786751 13.06229237574281 1.5877161087976979 -1.2841300177050725 -2.865011105858808
Ni 2.1603755777275966 7.313216167331781 1.849290829020419 1.6349827550941454 2.9527649136360243 1.927159833018881
Ni 7.980585400975536 2.3855560967904648 11.971145863599927 0.07626894706606865 -0.18356468153095482 0.04591758846772092
Ni 5.794075123037959 6.037366775508525 7.113310348560921 -0.07366441956368602 0.27247728550296296 0.36608112430305345
Ni 6.861785940118835 7.170288829612811 5.033657617188049 1.5344569923632412 0.7969471062919758 -0.18394083392345095
Ni 4.515362163920262 8.900311151090117 8.590885040062577 2.12710089902533 -1.2516186753409284 0.5699096982893668
Ni 1.3400844127235594 1.2350714497667017 1.6983696758476805 1.2626469081306317 0.3228842772006052 -0.08924813293455597
Ni 1.6377001681208125 3.207297640034544 11.737735377754465 -1.7796301907346126 -1.0544541436383517 -2.4051482224169027
Ni 7.159466776590962 4.365099259333388 8.28969540392512 0.9587756816974197 0.4957688533098945 -0.03475077321762402
Ni 3.0641843563873628 5.084310217762219 7.605263771908772 -0.5371337894099265 1.6661170146051045 -0.4442197775880091
Ni 1.4632735901629899 5.62487362566285 0.7516204039862731 -0.6093671329540409 -2.2431630668289366 -0.26821671045439616
Ni 0.7115899645611251 1.3015564163983522 7.976681466212757 0.09112323847008177 0.07512943414498674 -2.0126878367893726
Ni 5.3862957024724185 3.653856083928376 12.740678438850715 0.22501883491068345 -0.9673405405482953 -0.44499059431576266
Ni 1.6258089260117536 3.1011225150263706 6.553605666810305 0.9855994867584833 -1.6653770511152868 0.2836317594578857
Ni 4.472166924796972 2.662345908228146 1.3033080270420947 -0.5988590343338653 -0.84554224159186 -0.6014831022202738
Ni 2.4063634461572154 3.037185007611204 9.079068409715962 1.8672567289053454 -0.4829673306698521 -0.15285696803445287
Ni 2.476232628682296 7.629835596592144 8.355134424710585 -0.20232293597506446 -2.1374272206520026 0.09156983908919714
Ni 6.016559426141775 2.222453625860659 7.91456343970513 -0.22579350829317887 -0.8071500149669067 1.5941194412208803
Ni 3.773874883291818 1.6865016769796481 10.606337150531864 -1.2135640345610519 2.012117308997883 -0.6002302036497792
Ni 5.735371993501917 8.03701999018741 10.707740903022158 1.166726762492539 -0.2937071414160168 -0.910011367809523
Ni 8.193447002294462 1.9803892165162813 9.121047562468755 -2.319979915978675 -0.9705163671731157 1.1161212816308455
P 3.9118281674311586 3.20900834257408 7.124346239400211 0.40149678479818596 -0.8423718142836784 -1.0029246083004921
Ni 4.349693639181152 0.5050765572313053 13.41659188789574 -0.5079193726294994 2.389282201918924 0.8249407632914244
P 5.586791899565348 9.025192436476262 6.47040880988074 0.33473809121539766 0.5491670664253767 -0.9398701030421683
Ni 9.194756528411382 6.270924158637275 9.996869619473564 0.2890362183029087 0.3119961695331917 -1.5980285464672994
P 7.147473264221388 6.480550300805338 9.405853502871588 -1.1722091257633491 -0.9746766691983924 0.45666006023389094
P 2.122693635375747 1.2001786963380088 3.9250247499562554 -0.7809304191487453 -0.08071669842477712 0.1781820770628028
P 7.298452060631871 4.963482553611062 6.003412119287654 -0.48175942640468006 0.03524005414921672 1.0696750743531642
Ni 0.19347673830298445 8.482760271997117 4.587616102974642 -0.15984136977208604 -0.25652359038718403 -0.9406666308015348
