# total energy = -340886.23698114033 ev
CRYSTAL
PRIMVEC
9.10308229386602 0.00000000000000 0.00000000000000
0.00000000000000 9.10308229386602 0.00000000000000
0.00000000000000 0.00000000000000 13.32328109073624
PRIMCOORD
 96 1
Ni 6.558898042110983 2.6262937826846824 11.360575363073833 0.6330989293533419 -0.0849667319503827 0.26219518685066456
Ni 4.639622434138626 0.6315918576701531 6.046651231020483 -0.17800415672404182 0.21568675887648014 -1.0353824717188813
Ni 2.8488368289481656 1.8457773237030668 4.582781879666755 0.17480107640571185 -1.3603143754771347 0.18754732032778668
Ni 3.4149939124067115 4.212706093333422 4.208011633933165 0.12758559506217382 0.29113063893809216 1.827540127042014
Ni 3.6122303906408866 2.620704490321375 2.2021384066576397 0.8422314320510721 -0.15256720470817595 1.4441559926841385
Ni 5.317647292601546 4.2354182829856235 2.889792505286532 0.68798041188257 1.3396943852339378 -0.7354802572357463
Ni 5.363581444499347 3.0545118642194518 0.6255173710349168 -0.7009395431463993 -0.4041715034168717 -1.0408416950612398
Ni 5.915128081307878 8.192591760797212 12.603796929841668 -1.2857621539918564 0.36899726950858386 0.91062920389918
Ni 2.2609415856140855 6.73553424572274 0.4283500762241308 -1.414674181174938 0.8747031794265323 -0.36852675763006854
Ni 1.3223592103515713 0.2927168849772695 0.052060526100579194 -1.8414353969668673 -0.31990976795331355 1.4569238338727681
Ni 8.059750484807399 8.844299609126058 6.835309486565197 0.26575565050841327 1.412237032488355 0.4185136310711567
Ni 8.82964364706592 2.6600571139151508 1.281540080243579 0.06621696214670532 0.41864887109744037 -0.25332848048865403
Ni 7.056062866902578 1.349996167379261 4.792690758387837 -0.6839527787804156 -1.3330719948214138 0.31701033491833147
Ni 1.1296469638837865 7.5908962451133375 2.730939172410477 0.506450758503773 0.13672792368307418 -0.16768246308305962
Ni 7.955511092539916 3.9009801524716914 3.907118360681102 -0.1758192332575811 0.82887866489325 0.45538916394126727
Ni 7.519846689908752 4.583729510505551 12.588981663846093 0.7344947533940254 0.3099351732391049 -0.1602206074883757
Ni 8.726460212313329 7.438883878379018 8.97361617175582 -1.3798825274170492 -1.300711061992205 0.29139237723991107
Ni 7.290895073899718 0.8420915264146527 0.19542496491121422 0.43052453948910374 0.43878343706378625 0.24726093413833541
Ni 2.074601496563752 6.448186358523775 9.054262196031086 -0.46871570584684435 0.21288425643067854 -0.31853808441676756
Ni 0.5741969255029644 5.3205693819315485 1.2276853366758862 -0.5982172869848085 -1.5177849310241989 0.7677668851835938
Ni 6.524870721501792 1.811030859613906 7.205496330499235 1.6529658219351273 0.7674784074088976 -1.7682772276156384
Ni 3.55659235330451 4.191350262902934 12.88867515088727 -1.4300776602142016 0.16907600099647654 0.9667748978528123
Ni 6.277576395212522 5.806628446652728 4.688036265580017 -0.7577069298444306 -0.43856463618476077 -0.35633047267419277
Ni 5.606870414697647 3.129184446069959 9.04255017069781 0.7397853123690034 0.03453197233859859 0.3049189509714362
P 0.18895267359148843 6.071500824332139 12.577403453818583 -0.2829596730915256 -0.43671575590148015 -1.3127088577840296
P 3.889592196858503 6.593872083250767 12.373184001363084 0.44515128826334305 0.6203336592678735 -0.7471350678658553
P 2.652273978783835 8.741134380537517 1.6450388898139003 0.5528388588500092 0.07224157107423043 -0.6527285306588113
P 6.4997553181950085 8.210816131011123 5.507830702882805 0.024926073817718365 0.11498898934408583 1.0635113687446136
P 5.267462001398102 1.366873281453483 12.536767295659292 -1.1938403308798795 -1.2168733014399429 -0.019694393105133826
P 4.387667329852591 6.372712705455075 7.801260277935666 -1.104051237840189 1.7775691944405256 2.8601329518308996
P 4.9248766124718575 1.3709605652826766 3.890784700603769 0.7728640972008431 0.5447031171167521 -1.4765254101537795
P 0.32853842305357467 5.696217164772342 3.418767139906045 0.202256087292871 -0.6628000559622005 -0.15405895876235404
Ni 0.5656937365834765 0.2838504830849869 4.788053648404338 -0.12113135479639785 0.024998321816550494 0.07578995054712108
Ni 2.2326947220907254 6.428551010595999 4.649584847106709 0.5872667015105757 0.8861903541305255 -0.46626055943813244
Ni 6.580217460213372 6.045110989541865 8.91673920495585 -0.6648050022073712 0.5467769689266454 0.16417650681233018
Ni 9.166257414183809 2.630326448021727 9.971116424808294 -0.46307881927604116 -0.32636837909446376 1.4449399220380146
Ni 3.0090237633408727 5.135185116493833 6.703608826753106 -1.098921115702475 0.8433233795636701 -0.42992932910726606
Ni 0.7398648255828824 0.1706855188920598 9.159409165576454 1.022909021842219 1.5699127620676898 0.09782301908776057
Ni 1.8618260573130196 1.25414071365674 11.372206370977086 -0.7054574856214109 1.5150184240226552 -1.7586463893940936
Ni 4.314451241126073 7.278897211790859 1.2560705670460253 0.882498764211551 1.624148383482803 1.620955587577118
Ni 5.723380761534736 8.225472093071263 7.739480391157067 0.4769550630375012 0.3275078920155456 1.1343421755142464
Ni 5.321261216165443 3.201144309477037 5.149834706396554 1.725747581783544 -0.2954161536873235 -0.5381195503619636
Ni 0.9676212069220433 7.591314986886484 6.567844551125086 0.2931214441158759 -0.5097188877320835 0.5281974061522452
Ni 5.355042753559961 4.838051416118067 6.999451710097737 1.6803902366946675 -2.1453716723100604 -0.5142949371385401
Ni 1.150638671033277 7.687097615952807 11.406900037190502 -0.6958736985877177 0.8362572167455082 -0.17593673267205184
Ni 4.7852353342094185 0.2984026700100413 10.110291625271056 -0.09543163603744856 0.4055614417858628 0.3537524275343714
Ni 8.525354924218558 7.250459183544975 4.5673403216278645 -0.5994722424378321 0.9659022654398721 -0.6884252127294724
Ni 7.550797168793517 6.40100508438856 6.531205556282942 -0.11983320481026459 0.09302611191974947 2.2533083827930547
Ni 3.0041445113755096 5.1062464187365775 2.121119156019351 0.4114528675696333 1.2726497849796146 -0.7934228951888013
Ni 2.103977142258204 5.5480098863244445 11.563128951518769 1.6164487008457 -0.474349507093854 -0.526033822842023
Ni 1.3413755487016519 3.649006842021607 3.358133331154386 -1.461673689852928 0.4654149236083856 0.29386449292948746
Ni 1.5631721422390905 1.4008186743244497 2.550289419933928 0.0017928302343646542 -1.303394008141007 -1.0591042408158535
Ni 1.5625167203332953 3.931311621778761 8.241941389070767 -0.9607608304482487 0.37682370753153815 -0.24497933719301035
Ni 3.8312778534067964 2.8492646738033374 6.853415516712784 -0.11701167620106946 0.009818528752318575 1.1650822849105806
Ni 4.3428073416337325 7.376809962051015 5.958797386397876 -0.46735816337768543 -0.6298228297052314 -2.1565940233884406
Ni 8.892454913037941 7.670320635780858 0.6327160883002321 0.20505524730456298 -0.1446042411073574 -0.8542770503616964
P 0.32202880909754666 5.781558558756069 7.772348889424486 0.4773479276005456 0.013566940051157281 0.7723089960283215
P 8.669984691430658 1.770249052142216 8.109534330093542 1.086254318868084 -0.28847391804153544 -2.568669355033421
P 1.9007599391336487 3.586541493166532 10.423348436724831 2.09849969034887 0.4318573993679143 0.19633406538148124
P 4.277383491120554 6.198570746318148 3.8106584623121256 0.30737024072540614 0.40471683439738043 -0.7876111736030307
P 7.1385094808023775 4.514136448424955 10.355719819745214 -0.5917105962145421 -0.09798474147660545 0.10348201714575081
P 6.686987509283785 8.214939827168418 9.839256461060767 -0.0095750452829448 -0.5139038723477085 0.04144026942265766
P 2.424250877141344 8.981046107304568 5.716420545018474 1.3327349231969694 -0.5052901625367685 -0.12425910179210213
P 6.973142892737484 4.1347108865438145 1.2779771339390211 1.3646726524458304 0.44584060102088374 1.4610028890381483
Ni 3.098388719579618 1.8679160191876985 0.019150153655846904 0.6366876751458648 0.14400748806362296 0.24690072258543927
Ni 1.5831898196119132 1.6147046895822237 6.992510610053727 0.35993747329916076 -0.8569561398557564 0.005335810390616617
Ni 7.156879500328687 1.277271645082089 9.431736967434285 -0.7234315536013283 -1.638998818232074 1.017454426485551
Ni 2.8122697484540184 2.0177527493180594 9.036381922317718 0.5624288165312894 -0.9094225851855886 0.774529400718408
Ni 6.700778678551555 2.337580433181978 2.6124288784525103 0.30861414043483626 -1.074515433164601 -0.43988926853345534
Ni 4.3106643590037015 6.859545532148373 9.972808687756729 -0.014710309626981116 1.7000707458427302 0.25082654000240673
Ni 7.191826232222397 6.786274824929706 11.361614024732875 0.830536512211647 -2.2004480444589136 -0.5764989214711104
Ni 7.852801018052621 3.9561630357068216 8.285188311154808 0.6341458825606177 0.012634658044875013 -0.4618320913531337
Ni 3.300358800466758 8.78884363343018 12.359380998088682 1.9691737155568212 -1.230541542955655 -0.420737892415985
Ni 0.1548643623327301 5.139308812651126 10.411957750187034 -1.1276040854594644 0.3924205335285306 -0.7953049427028626
Ni 8.873119966816988 2.5442750136400565 5.904757850265077 -0.608891478869203 1.2012859885246472 0.16171776085919243
Ni 4.105380756259487 2.8872973505034984 11.006961590274383 -0.6133973371593565 -1.2456179776728031 0.4633652401682084
Ni 0.7335372732673531 3.570920604411751 12.396899350654433 0.9830646361517715 0.9181537944109994 0.5502119627501233
Ni 2.9797209423026203 8.554175281909489 7.841709822913446 0.6573398041785776 0.3177526124009947 0.6592262225680131
Ni 6.338903858814482 7.906754985214386 3.422537636480772 -0.9542867926881305 0.6761093714765969 -0.44563825520209055
Ni 3.8656419880509096 8.458620229893791 3.4948561613196314 -0.6229651833534497 0.16749862920702766 0.9579881527991179
Ni 3.9538326467084395 4.556802593875805 9.279198442558924 -2.250807470748072 0.8990132169268065 -1.2936153314876881
Ni 5.1000472198776 5.067940649575669 11.219028809743575 1.4419566710399745 -0.579931087081111 0.05417057250513251
Ni 8.443654763044805 0.0039407242085925396 2.472480826325832 -0.6812808883752074 0.9220582716717283 0.488367675749817
Ni 5.191078040126907 0.7431810783645646 1.555066758004092 -0.6538927261702416 -1.1511173380900563 0.12865311709473973
Ni 5.313823998151075 5.586861840406849 0.17713596281492577 2.5647689915377505 -1.0529171381685352 1.37001489059435
Ni 8.141132038110278 8.955785054685386 11.373032020516746 0.4850339833908937 0.8774223781299082 -0.2949978352029823
Ni 0.37874920288668795 5.302973124377358 5.600348056426784 0.3018541960031834 -2.123111318249963 0.5490408252601577
Ni 7.429498600811314 6.0303913059075525 2.3695459057125223 0.19709228370374443 -1.0537458047174173 0.13529736188413471
P 8.838036688692906 1.8788397176176155 3.608037511060204 -0.6253678792576715 0.9165645955470084 -0.6223092949370056
P 1.8989666319747374 3.427783742651739 1.1999182055752398 -0.11386927391734583 -0.35599288682911595 -1.2219689707952954
P 4.799190358953638 1.3072845065182859 8.171514484676688 -1.6328124869157041 -0.4131446534497594 0.5848218395145091
P 8.928994684286014 1.706727745772249 12.248158631599873 -0.9464858085864731 -0.8661650600485342 0.4608054498608322
P 6.9364210598489136 7.864207179829859 1.3299721178490207 -1.980194235037041 1.2030795900899605 -1.2771746694331618
P 2.005973361177799 3.4722340921794763 5.720456851588328 -1.2108494638433662 -0.06640182446400177 0.7083319789557284
P 7.296748355641749 4.223966605798261 6.186971599201981 -0.37866821693944464 -0.5862140918763452 -1.9410427616485604
P 2.6434348861376273 8.692851633477284 10.164064441100523 0.44456867628699565 -0.4882236939727849 -1.010490336462892
