# total energy = -340890.6302306295 ev
CRYSTAL
PRIMVEC
9.10114600950952 0.00000000000000 0.00000000000000

0.00000000000000 9.10114600950952 0.00000000000000

0.00000000000000 0.00000000000000 13.32044714285290

PRIMCOORD
 96 1
Ni 6.232255293879204 1.6460696277359905 11.682777683488945 -0.04902733774129621 0.5621981885777222 -0.8774334338735018
Ni 4.599700867605019 9.34614860953337 6.074842786833253 -0.47899960427135574 -0.3245362109817314 -1.222558010529546
Ni 2.372495779302933 1.6444587249354923 4.784477789624175 1.8901773422572608 -1.9057116904474338 0.41756412267369375
Ni 3.451928071677311 4.345642383560376 4.850734130797201 0.7757884699364898 0.2480911433491147 -0.8924988128470565
Ni 5.318227224647485 4.972583910764361 2.5917059762113785 -0.7342584690135032 -1.0864247830076774 0.45849377100852
Ni 7.393124638563503 6.080684812300143 2.6219700162254806 0.8577495822913291 1.1958763874733018 -0.18898148167115197
Ni 5.098470958993108 4.4874291334414975 12.040471824480202 0.825075746207392 0.22065747261819416 -1.7035898147395823
Ni 5.50650262709891 8.026910227383162 12.631020600111578 -0.12207700653911881 -0.9067743489294642 -0.6702778523964844
Ni 1.894640120884021 6.289110151476441 0.5048578477906498 0.1290963752797454 0.6756833396827717 -1.0715375814831998
Ni 2.4837390839949505 1.5802865461427729 0.10509457061282829 0.826997388710137 0.0888364993184341 0.9802994147018086
Ni 0.28967217753971974 0.009215820202171045 4.8418359405822455 0.7664049718390608 0.41689717851365615 -0.6989945036048865
Ni 8.68299362332836 2.4393800995337798 1.5347152890656337 -0.09249800733042134 -0.5184552391638168 -0.08746661555410097
Ni 6.860288958575051 0.8026236742596513 4.951529320150394 -0.1708750018784283 0.8101854593591209 -0.47823572952213766
Ni 0.8350920117781633 7.276338736100281 2.5774927168693575 0.03408357194727033 0.17475916742418288 -0.03502948080030741
Ni 7.715459918141117 3.963667295781274 3.8099544044890092 0.361003709780146 -1.2310531924847508 -0.5331809754097655
Ni 7.7894067274860115 3.820287845391187 12.865140294013107 -0.35460012024664733 0.24869920924675878 -1.0006316985012573
Ni 8.19445321978072 8.603467811629198 6.921650703555377 -1.0152486770834839 0.6350275138346225 0.4051076420778959
Ni 6.838400703008963 0.7374166951933914 0.4259545544618506 0.6706306077502128 -0.6157799784589201 0.8333145891774164
Ni 1.9603048875822868 6.295999718820944 9.093283285698588 0.04125720687757411 0.44646075110338596 0.4297151562139309
Ni 0.22769064453276197 4.7370917640813905 1.6168895341825629 -0.45334770803120633 0.5222000509182297 -0.6152307908236694
Ni 6.5210528513108565 2.1701955112268343 7.078192230951568 -0.42684786196846486 -0.6098708120633367 -0.8066561060496237
Ni 3.8728469621870962 4.537740267233321 0.7169263756168874 -1.2591337527710507 -0.344595957846084 0.06689830448444609
Ni 6.056275539357004 5.865379006925108 4.763605221925519 -0.2939930480875517 -0.7528249191617808 1.037585135797155
Ni 5.721699218724758 2.5344597693462236 9.265982077172314 -0.7333292723310145 1.2196914876150284 1.269185737690414
P 0.0964685046562633 5.689171723758771 12.616873779133645 1.068049108713967 -0.7661627739212676 0.0703690366418659
P 3.9024074836335227 6.246471283564955 12.677562039327322 0.4011185755231608 0.033049474255801146 -0.16892507724090908
P 2.2570841498503054 8.574507965803296 1.3307713540642807 0.47319148223001084 -0.9194640285819907 -0.2677379710457647
P 6.421722946425912 8.013176598422984 5.7858559255696775 -0.1865456185361497 -2.1293267030320555 1.2456961392089063
P 4.424822351720447 0.763391365208201 12.596214178245901 0.034205185126799154 2.143402207288515 -0.2483701080421142
P 4.0122401107318835 5.942684139057482 8.242026728926275 0.9182337557193153 1.114341049801971 0.19554627937286323
P 4.610877074605084 1.13776153558563 3.7911186732126776 0.12910460280986152 -0.23400149802526798 0.6192337413354755
P 0.22274326169462239 5.446152929527711 3.758070592708902 0.7782780691275628 0.3899944405855413 -0.9717247856589201
Ni 1.3060053162071328 0.8763793595434693 2.6835374471001066 -0.3980774747039918 0.887901166174045 -0.20128909539391138
Ni 1.9706710926092204 6.431452071249258 4.679659893842619 -0.2571576244267571 0.8990769802852064 0.7401334397370415
Ni 6.096220468121896 5.63226225928694 9.553410822280835 -0.33605989535061476 2.1385471931890585 -1.449478947558949
Ni 8.102595355569273 2.350298084780817 10.18149727362212 0.9374992888171468 0.19842771468571632 0.4242397349216564
Ni 2.526077614096175 5.122443376939502 6.931787559709019 -1.2675667140297524 -0.09509610707490074 0.9902027898584495
Ni 0.46596410136167693 0.1962334443087999 9.542248266999417 -0.09670767453639473 0.4829380200938134 -0.7189390650476135
Ni 1.4364975441932366 1.6418284938092556 11.291595876653437 -1.017380892935138 -0.4695500288226816 -0.4070179717267313
Ni 4.11724002942875 6.934217565628415 1.6172890744816693 0.0538278444537331 0.5817403723757077 0.004990511236055922
Ni 5.512773316531357 7.725571291086616 8.14274961068677 -0.45115532836557787 0.3202694652855774 -1.0107808711201174
Ni 5.533887974707376 3.0538712593305255 4.752029474626347 -0.06284264635783371 0.11323523987777273 0.054694820439718704
Ni 0.9762526028306158 7.240826065323201 6.870966422787165 0.5126995676269622 0.23923086474500735 0.0014182205037652994
Ni 5.428915359447806 4.303995540537333 7.549256614400245 -1.5328672792786182 1.0293990004419369 -1.1465024650258642
Ni 8.32660185629615 7.318731873076098 9.134070070446791 -0.7077866479752198 -0.28871688729027695 0.31284206247325475
Ni 4.630180604773763 0.3073284003248391 10.17374400754447 -0.9364237963647809 0.29193822244105205 0.5369790089996171
Ni 8.342319535033212 7.064809906217939 4.86328188046413 -0.5256059912759851 0.008786745053694544 -0.21416132337088925
Ni 7.235328973280823 6.1125661259167785 7.042120749824483 -0.30954847932364754 1.075239198704503 -0.5067160963500176
Ni 2.4016467491899114 5.180790822442287 2.6028949248155153 0.5508264564056706 -0.15170562803882906 0.7599720717295234
Ni 2.3945660577843326 5.275351726946096 11.293488004858089 0.4774561710436358 1.5172452564706451 0.20442095615467373
Ni 1.1606509171859265 3.215716934478864 3.750584900316757 -1.2334101227527015 1.1649830403285548 -0.7283932684819778
Ni 3.834512936222703 2.9251810582059963 2.8596200445694566 -0.6616250618174928 -0.010354860871762812 -0.8919629949482445
Ni 0.9391381303988031 3.1616925332147052 7.901595641223066 -0.25242293795524917 0.9021594758652721 1.5967769334483854
Ni 3.9578698659286347 2.6978981450035295 6.6079269281011035 -0.2088756494919177 -0.9300114650805338 0.8305041163118149
Ni 3.879509000887461 6.8280527002735605 6.250872597657162 0.9709999916777536 1.2793259114482096 -0.8859898080839451
Ni 0.6804571744198505 7.3104134258464075 11.224794376849056 0.7944515935636317 -0.5174877330442249 -0.010221677728008203
P 0.11555451744114667 5.652202869659207 8.055739926824618 0.16011056427307263 -0.8686921973457619 0.7043925346920062
P 8.339925933696879 1.4349958551419248 8.03787710803062 1.2968199544679149 0.6428536947472606 0.0524276216720968
P 2.025605608449932 3.5196132927355235 10.09207669624668 -0.732108769660352 -0.8211221608762825 -0.04085560056378125
P 3.998160638232616 6.267221895910352 3.8837756180223395 0.4249082217435908 0.4373806431789886 -0.47819562031282165
P 6.890368245330113 4.158641141516125 10.61209341242439 0.28065416488680056 -2.1344316283587883 1.6318807191300537
P 6.324804845168831 7.7240422985980075 10.19820060644559 1.4112759541266662 0.3791320439497406 1.2595857527068048
P 2.3700202676547106 8.557907475926978 5.675096801832386 -0.1372485720732346 0.12597145649751854 0.38011831912240984
P 7.033929718635512 3.982506667515912 1.6260534778538704 -0.3975295726203218 0.2551835314195218 -0.1802844681177863
Ni 5.501333176304091 2.8877480456723896 0.38510770215159595 -0.058434232877492914 -0.7268986862143223 0.4660481863170102
Ni 1.1655382324620136 0.9606259355512087 6.8897211538661844 1.0961967747927768 -0.7503666874292755 1.1756328067329171
Ni 6.850441518856752 0.4917440068571043 9.310525814892527 0.6815272000580584 -0.8019201340265351 -0.6420736220481265
Ni 2.724391580326974 1.6387978122693356 9.072343369521267 0.15731371825422583 0.5391014546592586 -0.00033501474191555207
Ni 6.269988644223072 1.9550171218925165 2.6075710935098426 0.8339229121853767 -0.05721655842030791 -0.08194002930891695
Ni 4.326784809534208 7.059249106155203 10.421265138585735 -2.0349983273611145 -1.063668206037452 0.4618526601784239
Ni 8.274142852103662 7.376897295663571 0.2097768593224783 0.07441800990025894 0.8936146716190545 2.0611245921345214
Ni 7.537223079469067 4.168707008732797 8.324599604227734 2.0430880463477847 -1.3809986432993635 0.553086456084441
Ni 2.8250866570767474 8.246839414807084 12.324370235146272 0.46030485607532984 0.03107640968983035 0.9408823463567667
Ni 8.992232354149383 4.862769485957531 10.36116299217936 1.0807932957535127 -0.10131663406331583 -0.26472566658200214
Ni 8.671362359040018 2.394393136014788 5.9878867997311165 -0.06381555179406428 0.5320381200545741 -1.537145337828682
Ni 3.6635570141630738 2.541294729816133 11.369054818149246 0.9077714227354109 0.26255668395514137 0.2987408471851823
Ni 1.28109548024689 3.8039148841590067 12.58289374130348 -0.7219531692835889 -1.2386261197360022 1.2324801547392645
Ni 2.867497996344096 8.553857466061318 8.121729604426713 0.7527254174694391 -0.5655311096056971 -0.4977079793141364
Ni 5.766631575369157 7.958160172270383 3.6756706391769876 -1.1682367713791622 0.6069592948434966 -0.7002319755564135
Ni 3.122220864029621 8.553493420230698 3.5062209567415525 0.37508229936039916 -0.4903281419102975 0.6482342423328836
Ni 4.039616357194584 4.434205633004704 9.694954571570015 -0.5058455208196062 -1.0972797234443101 0.15902581584932612
Ni 7.3599236588108665 6.357423351592475 11.72079407946612 -1.074375050931995 -0.9911394427401059 -2.4263958189417694
Ni 0.42764008665762593 0.36662600544554347 0.42075142942769966 -0.4155157247850973 -1.360205617813412 0.06618096670244732
Ni 4.404754325307464 0.4416385589595806 1.5137089345242245 0.19641942600643592 -0.11895825840447899 0.09491175897823655
Ni 6.324550013087397 5.781930601401006 0.39516810868080776 -0.9055559031413307 0.22731251604086658 0.9788040611032045
Ni 8.018409757238162 -0.343537308752982 11.513008550837139 -0.9860905674622888 1.698031089704882 0.0508096264526996
Ni 0.06290620941673519 4.918541307208671 5.925786951829207 1.0658330748992548 -0.5136300498610316 0.08659372603084442
Ni 8.006578267742979 8.645114654652243 2.582288110573213 -0.6195404739426169 0.4550788317897001 -0.32994092693707044
P 8.3708607281539 1.4938347625160469 3.508046646582117 0.5489346386995966 0.6351735524941835 0.6264354012902373
P 1.9929233940059299 3.3038615312179775 1.4585623619871764 0.12026437881041224 -0.17068911111986734 0.26424512740115785
P 4.719408237858975 1.014759550564554 8.050491296061638 -0.4793757566638519 0.3293953388462456 0.4995763999814428
P 8.645660723398175 1.830467942091301 12.524216834323985 -0.5100672722104376 -0.27472083012150106 -1.1633922988026673
P 6.174672344620725 7.887389662797657 1.4382486046385234 1.3679716349120763 -0.4500692943902507 0.15676067396423327
P 1.9562275742793314 3.3530441229348775 6.007720926697926 -1.5987944780990466 -1.4419163047203425 -0.39358164371616733
P 7.14669291467037 4.133285349413372 5.897148376448829 -1.7505551277455271 -0.31595258307777846 1.142427266515226
P 2.3260435313156917 8.506777239016255 10.272435922111251 0.17179262859669123 0.21622849031256305 -1.03112086822905
