# total energy = -340893.92736829707 ev
CRYSTAL
PRIMVEC
9.09704311002173 0.00000000000000 0.00000000000000
0.00000000000000 9.09704311002173 0.00000000000000
0.00000000000000 0.00000000000000 13.31444213473279
PRIMCOORD
 96 1
Ni 6.502038746951683 1.9522345365664506 11.435295148245501 0.24166287122526767 0.29731877002667506 0.8021962705060571
Ni 4.671449870111732 0.32936754083589975 6.122380022996878 0.016958739341525635 0.006170390476770019 -0.6641866518970819
Ni 2.904431130137529 1.6492939058042484 4.724203622785526 -0.39008880007156044 -0.8276303943084456 0.5914221184398459
Ni 3.539759520029768 4.353644670998266 4.8979171181395005 0.44755012751282275 -0.47769296964479024 -0.5350285701414657
Ni 4.8354968475158575 4.682693815327254 2.4447047817374057 1.1131737689667474 0.1412859753674018 -0.8214970277171981
Ni 7.301177591128628 6.087468300866128 2.618498331070261 -0.5018788228623743 -0.25145388917376055 -1.600102912497825
Ni 5.083864316993341 4.69479288258991 11.654744027556623 -1.424779902150372 -0.31786754071230416 0.020798939023222246
Ni 5.727025260955616 7.928982726414689 12.371620130799169 -0.5070853067639783 0.15561756149872555 1.1889979151859136
Ni 1.8927125838600127 6.336045002333867 0.4570026937095673 0.9793972146025132 0.2863162482685843 -0.9062727267026972
Ni 2.5880268756544758 1.5339070116993334 0.314131813128007 0.27252459380113064 -0.22531039800917327 0.3286774868436146
Ni 0.2946577730609626 0.08097005111633686 4.922868487829738 1.0912232328375853 -0.009334390027048441 0.3547050212556278
Ni 8.641035577429669 2.3145697614323266 1.4656136900796222 0.009526451433196496 -0.07069710940524598 -0.48065333782469477
Ni 6.953515896709869 0.5422574521046344 4.959216633058814 -0.4623203438434619 0.007525618953083814 -0.8284827150064118
Ni 0.5789722081688119 7.381640936946821 2.073257958548014 0.5928010010652436 -1.1398443362793984 1.9936282490547603
Ni 7.728238277328189 4.184521543569657 4.064419652049528 0.011493345351580206 -0.8132440436797864 -0.5392649768203165
Ni 7.632491899178218 3.8684811708087894 12.757419358815849 0.4773371289672682 -0.794837773258457 0.39687059888008425
Ni 7.7868232346 8.928520332042057 7.269525339524351 1.5791777323093836 -1.3075645945789287 -0.5607239180250407
Ni 6.795391094334307 0.6982262552762497 0.42580074573649507 0.13364439966174402 0.08039171098519057 -0.17409350881572597
Ni 1.9298467136090087 6.636247423136626 9.169709324845131 1.3269589399451405 0.6504268791088282 0.22709757181658308
Ni 0.27312598185496106 4.652646282117813 1.2702283090566049 -0.6105837789699613 0.4254083013084609 0.13941832603104376
Ni 6.594855877238063 1.8497836376852184 7.0660272155052155 -0.38291979312694696 0.3237173146248618 1.905625558491531
Ni 3.2710328681960252 4.139054522382621 0.36774523637046336 0.1212326562609525 0.36136289289177764 0.19101650982330973
Ni 5.889116374102996 5.509005527108375 4.698839247340609 -0.6846760300996854 0.5927166688815534 1.0724544368705142
Ni 5.427132139616713 2.7408662960152985 9.294306065338553 -0.9606320181798683 -0.3581107045030671 -0.15087901837247564
P 0.2843444553499296 5.533349214322563 12.434663548872052 -0.3858457085244903 -0.1284343162157143 -0.09458805709023065
P 3.89078712037874 6.25441723500468 12.750162647571171 1.1114310752440277 0.06342860076829075 0.6493339031549655
P 2.2968760126910728 8.4386809517225 1.3620675072146124 1.5355777362312457 0.38528726491785903 0.37466115266258054
P 6.385605692895486 7.796930049433692 6.071917815468544 -0.2015392637315045 -0.9117900569765007 -1.2110284126233917
P 4.566624642993242 1.0597600306490123 12.757392067686686 0.8239706860686712 -0.058912458065492085 -0.1561289539175053
P 4.03829567350955 6.27992534372986 8.189273690223873 -0.07829266236431677 0.49861583584038643 0.8032082567103392
P 4.858184872894102 0.8915866345153067 3.889574484539558 0.5784974399583779 0.4762307832769669 0.1106602800617449
P 0.18801677614876794 5.637037311059225 3.462473771350556 0.4534744634170577 -0.0602561165775801 0.661575696636796
Ni 1.4413536956615374 1.0138017691370262 2.665058816832464 0.2902022135865518 -0.36269472432932376 -0.18263831306194353
Ni 1.9357143063792446 6.494633753905215 4.601737409775499 -0.7832618954953994 0.8578472842114581 0.7632641122172339
Ni 5.983325351976735 5.787875381948029 9.342983433019567 -0.29548403081078145 0.16612591722921713 -0.18209555318459605
Ni 8.994828678867247 2.4880321783979933 10.234878457294425 -0.8759470791359625 0.017079066969473814 0.26991132454799965
Ni 2.612798123892231 5.224131623852666 6.924641882054477 -1.6482563322746 -0.31774695597403985 0.5025506521184183
Ni 0.535586590432675 9.235954902073244 9.227813958243658 -0.35929444039852315 -1.1026355884395849 -0.3986120070512232
Ni 1.4213947831996814 0.9273980542041594 11.446199773755085 -0.53050625679108 1.6020003866308539 0.8362032235791211
Ni 4.391115391340283 7.141888367242073 1.570545352601852 -1.048160597320156 -0.7870810121311734 -0.9374545516221404
Ni 5.498607606896933 8.041913418894854 8.105406230894637 -0.08697347796776633 0.08187369484735578 0.6292139924766389
Ni 5.459444836546756 2.6945805409533463 5.297377375711318 -1.131274078111884 0.6229183892759144 -1.5455721284397963
Ni 0.7798431061537707 7.42386941080641 6.776704858195793 0.16830878381314884 0.7859029326626723 -0.22837772408058732
Ni 5.05925681553057 4.596089965447185 7.190543902019757 0.8135949992613021 -0.1564310585389564 -0.3384235104867849
Ni 8.313451057032475 7.1256319513034505 9.562259468512652 -0.487003962633071 0.17115370946111166 -0.7681659203942255
Ni 4.759327306019449 0.4855810544656845 10.682336533431076 -0.6155930592590947 -0.17811214305681583 -1.2386243199637894
Ni 8.11585418484288 7.220577789664614 4.53330126457983 -0.2874920137442403 -0.04409699031921438 1.1775032842827529
Ni 7.4708556381835685 6.162937370047331 7.288631859051989 -0.7511022800437194 0.05254589241751595 -0.9097506579489686
Ni 2.186237775060674 5.09860152674184 2.6943767671889223 1.0458612597630181 -0.17914469808638825 -1.1882546092619857
Ni 2.4795719283571884 5.282289020100909 11.459486914840678 -0.22502911932332856 0.013068146037867817 -0.04748107630009887
Ni 1.0243452420373413 3.3086855293991353 3.760304593028973 -0.8121009312142787 -0.35558562408836825 0.4466592402674372
Ni 3.9069070806715422 2.611442664477091 2.7418032914499255 -0.5872461326852854 0.09932917131964183 -0.18919102657879677
Ni 1.0730053253365521 3.3996650569884808 8.022311110520738 -0.55027726877042 0.9692377575710082 0.2635648135046815
Ni 3.5765388650996335 2.6852287806931874 7.165672586308401 -0.018507314775568127 0.2673996138697395 -0.5111232242787779
Ni 3.9009758085999238 7.00608770852257 6.028553120931434 1.3053647587141326 0.16760198755411135 -0.7164546080628629
Ni 0.7602471657097942 7.5284490177624255 11.313720445454827 0.8503805435207678 -1.289090447034141 0.606902216353316
P 0.3565367696228549 5.739761121232095 8.014855174033165 -0.18851636910927533 -1.0645444379948183 0.34012738055176905
P 8.569623789450832 1.737325991443894 8.165361202850475 0.37217798122941065 0.6343471999381461 -0.8194409165191177
P 1.906858485809961 3.3765767617158318 10.305670736641245 -0.09421653268342484 -0.8546357192526958 0.48476478888990704
P 3.8840007262599863 6.144706895765854 3.6296765129903323 0.6618302358497633 1.075459028024793 0.7226404251586007
P 6.718120810628288 3.9746436632563107 10.603102198129562 1.4236709853569096 -0.04471456929855525 -0.3313156957974101
P 6.329886304185884 7.91422732258008 10.332752633814875 0.5735385532912057 -1.3294184572292267 -0.5239414590893686
P 2.374146296397092 8.644510647876537 5.6201595670799716 -0.627404707182042 0.0414765219772318 0.49680963586958315
P 6.938842366262753 3.9291129627678916 1.7798346542295647 -0.09788061179857337 0.7080005637582387 -0.819787244114943
Ni 5.318822745008299 2.729494992197012 0.5800847765343929 0.19539381295539895 0.9376286153061594 0.015479583692837856
Ni 1.4937799547853647 1.2300566766316683 7.084415068631538 -0.7690858611053335 -0.24795538910219878 -1.5018219799370391
Ni 7.173982735138805 0.5832059720064362 9.418064058462338 -1.0703165645919053 0.6850292996740461 0.043970749153995244
Ni 2.5065355639711084 1.507853080390876 9.26510728624611 1.4156992800053423 0.8230348045179632 0.09239259210080862
Ni 6.501975067650301 2.0200257014095464 2.8202389063712427 0.17803680973419014 -0.11384613398889426 0.036469298570627515
Ni 4.196311311368457 7.022398706719521 10.58140029221844 -0.5513103380206247 0.2704821094498051 -0.6607758264433201
Ni 8.333710171915135 7.283856821152614 13.46276495998665 -1.0699951766967442 -0.8327072946107207 -0.39889302862675174
Ni 7.410496757516105 3.9204980629951582 8.53262702505196 1.158238779626186 -0.15592172300270565 -0.6457598126504621
Ni 2.9459136464666376 8.397307599910047 12.434357888225419 1.0093461955561196 -0.5515196258179534 0.8477803868937593
Ni 0.5091760550364759 4.961527281994689 10.172580087047717 -1.8450369982751966 0.41698845267588186 -0.16491235653709016
Ni 8.487668528571678 2.5160328769201414 5.725369599119673 1.3858842535264388 -0.6179224787232197 0.1157906593097748
Ni 3.5351109310288527 2.7670202947973572 11.568359416414172 0.4594378800893442 -0.5105197863668239 -0.1280008282227215
Ni 1.1051087902763381 3.28196751394769 12.5512712661549 -0.3413651096136121 0.2909267504574022 -0.18267199451335636
Ni 2.9614786871331082 8.535000443584913 7.845481877920554 0.18154790821124217 -0.49665742656243506 0.529410709734056
Ni 5.589186864591876 7.8111760188572426 3.5797210107601427 0.7656619230254491 0.21256158298393715 0.6073596156057088
Ni 3.179489323937293 8.373164047643062 3.5328676002115813 -0.08359376286225603 0.09385606402021256 0.06614702814071835
Ni 3.39060440210607 4.283488274960967 9.116345160582373 0.7460066106883667 0.3506141390157058 0.40663821978980935
Ni 7.298284731437256 5.933646399855405 11.517405058856584 0.7344009081286385 0.7016157432778174 -0.7810268355172936
Ni 0.5756690718356761 9.161904971608566 0.3132412126129588 -0.48655453380047814 0.35092961337359563 -0.13887685170527694
Ni 4.466566266435377 0.5235557509929281 1.7103068638673402 0.13513846770876725 -0.6918686911933827 -0.6288617513435428
Ni 6.122519207755614 5.701917422124839 0.2195562244191669 -0.5397169767560704 0.12751129018081267 2.068502629766147
Ni 8.077728477400928 8.983075299240667 11.540492444424927 -0.9481973919609412 -1.299323437616059 -0.35789987404384166
Ni 0.32471713242637334 4.962082201621021 5.8723214132155395 -0.4941868535347554 -0.2714007646093326 -0.20056481563337716
Ni 8.055649953907343 8.815689707035492 2.4714137001457965 -1.170367701679236 0.9845167952172657 0.5653858422770844
P 8.611361022985468 1.5695947116026434 3.5765516009599096 -0.9936912626276823 0.43959307744927517 0.7786974160531686
P 1.9101243242665729 3.010193352690647 1.7774776103741101 -0.019493589948237394 0.7334547421652852 -1.0179557916020017
P 4.528635391197111 1.054838530356458 8.201229933910572 0.4986906549423799 -0.06987821304837644 0.574988398363855
P 8.598152116470148 1.6359030584278345 12.443251157515624 -0.47436081994776363 2.1395663784821926 1.061082704698463
P 6.464440668006902 7.789716094291372 1.2964241542367148 0.058528849473828234 -0.26563300888762 0.23309132750617276
P 1.8365929252560063 3.2389112091701304 5.800237353754964 -0.34013123720651095 0.14490480306691175 1.3501214941045327
P 6.981380139586197 4.0032174754909 6.235512669832856 -0.3097503109218085 1.1045662298033943 -0.2428424933556656
P 2.4389263399891052 8.664806150931415 10.270534317547044 0.8547704450583473 -1.9489003100197664 -1.0952727203166104
