# total energy = -381163.9907062405 ev
CRYSTAL
PRIMVEC
9.26928412340998 0.00000000000000 0.00000000000000

0.00000000000000 9.26928412340998 0.00000000000000

0.00000000000000 0.00000000000000 13.56653426821696

PRIMCOORD
 96 1
Ni 8.91759798590968 7.915041510103096 4.34329908109556 0.20991951737539974 2.2608517423579517 -0.7146669200348208
Ni 6.317044776039103 0.9385613398588699 7.692794671157917 0.659898051824057 0.7534216722055153 -1.3189252710073867
Ni 2.6424040266150604 2.4674555625540626 5.33821395926667 -0.8753384990176859 1.8207616706675995 -0.26540906580227197
Ni 3.1739696496152736 0.7159502180569776 4.022789490605173 0.3200370375597972 -0.4074226633643177 0.025824417262271655
Ni 2.211957021525275 1.4741776399171875 7.835609308771937 1.6502090851255968 -2.6818020078950586 -0.5073622145744489
Ni 5.879061843150146 8.950911792195322 12.928255837765088 3.66296659881064 0.03306824330887853 1.095457582633907
Ni 6.702164982927221 2.354963533315731 0.49147040862370345 -1.9208711717966918 -0.8747368608779451 0.8509101907719927
Ni 8.03318780251178 1.4187009758605449 5.659808982900087 -0.9182579240890314 -1.9155919256756235 0.7167271449979592
Ni 7.003166438551507 7.12599371932253 0.9544711387204943 -0.7700574809899835 0.23144813547579496 -0.8651078224286132
Ni 4.330257198668209 6.882776979442456 0.8014741927578994 0.08251827040989014 0.30497628657193276 0.8738176914977853
Ni 5.368027683957027 2.3941818734366427 2.618137968330368 -1.3787409576134384 -0.13709893386924776 -2.143805613374521
Ni 7.18997031670247 8.678849040862572 9.110321228750129 -0.8023237972228568 2.792560504097565 0.49729351748453715
Ni 0.4629015487592125 0.7679008465234535 3.797245567381806 0.06721172195980683 -0.024271470952854972 -1.2743605970231342
Ni 3.566579437883135 3.0754000847734466 12.94810322842141 2.2202625080816794 -2.3345881528101535 0.1951945524603993
Ni 1.4110260088030846 2.244010205202446 9.6000731121414 -1.0776938308925827 0.8383140992745368 1.5868766436155382
Ni 1.746212583398281 2.5652001611300514 2.982100107820709 0.512093301501531 0.45011968801221186 0.1325838196077136
Ni 4.3888019956910576 4.598000463710166 11.393432981096526 1.0506342556716293 0.8187531464234739 0.23911233688927208
Ni 5.288367458242275 4.279211252308988 0.651757646362497 -1.9666712608499421 -0.4126497160912119 1.6134047718130535
Ni 4.2521078662268454 7.085857720096922 12.124370704268488 0.432288573368062 0.4880069499762885 -0.376939407173796
Ni 5.506955710837722 6.187599226573604 2.663734502693113 0.20124615797111792 0.3053809782095192 -0.04159736382581223
Ni 4.418880821900549 0.4179733297646351 8.856667275214619 -0.26400447214526146 0.39015564875375386 -1.5486075728320103
Ni 7.048891815960266 5.79597198239764 7.14609045371538 -0.6904831236997656 -0.043703868645853766 1.880072392612775
Ni 2.8831087905620767 4.700314819241865 8.9588370299177 -0.4331671193182734 -0.566656995680024 0.5783627141527264
Ni 6.704389611059819 4.370921547075308 2.853299700513663 -1.5617950180565616 0.6807720670595889 -0.28337696313460226
P 4.152444525886492 2.825129419856262 9.017580189615705 -0.4571832797272127 0.7908391936220251 -2.140564994950036
Ni 0.14107201224348526 6.351850937030364 0.5458050969056126 -0.6346611316341393 1.5289779715265408 -0.8252130431162047
P 6.094860041295959 6.918157836034637 9.616515894826458 2.143907686170024 -0.2311329182282213 -0.5333426977986104
Ni 7.3128624824606945 0.653163796727976 3.1381429404681844 0.682661827883134 1.3794860633095791 -0.5801084931992396
P 9.157533399294172 1.2916839787731311 1.7311305315876606 -0.007459284491522637 -0.45376654073617984 1.9761609455079319
P 7.151169094356422 6.710748339805492 4.3372212116516256 0.6210250289079434 -0.7556621315002598 -0.5286118679818443
P 0.8246362793317905 5.02308055343006 10.226480194004564 -0.6892518223958258 0.5795438789450212 -0.6812904014569041
Ni 0.5111175827480909 4.615741873067629 1.7708531207519607 1.0243305847800939 -2.1346118626903947 2.3422299856261275
Ni 2.0358406276946637 7.871661261517451 5.003419475379844 0.2722047485678667 -1.001492760949972 0.023970908993300656
Ni 4.449701190820906 8.453809366682593 5.501392286649452 -2.410854271662745 0.011815247467373198 1.5809916455896706
Ni 5.531185618915259 4.83562782540709 9.367854377591854 -0.714639152120679 -0.2986554865602276 -1.2432073113487816
Ni 2.622502874112201 8.876303326198343 10.05211013325804 -1.1954220735447023 -1.227840599084724 -0.907069768682696
Ni 8.312916251618104 6.926620692222392 8.920172066044772 0.3735239537343438 -2.6247713402333117 0.02907660565098218
Ni 1.9923213398507311 7.458121430235405 0.11171897096225387 1.7016656011336757 -0.7032450513511244 0.29596071333688384
Ni 3.908282319050064 0.20105540212541426 13.174556468393975 -2.5641534694409387 1.6341546027658955 0.08913037640976908
Ni 5.105363986484499 0.1456278652733666 1.656107728600986 0.9851482581536773 -0.5446884618287329 0.8437195865608244
Ni 4.136334510492934 1.5210338699600157 6.615829018957901 1.730878732362522 -0.8249032251852697 0.01379319712935044
Ni 0.13565689659738825 7.771154416343488 10.952276245405061 0.7251788753097381 0.9856938462445024 0.6721771263017263
Ni 0.3293358026064656 8.960968965211439 8.88228108737631 0.21352677511068388 1.6107367380625874 -0.9369004788908832
Ni 4.156634242202883 4.151591751768996 4.18387852140009 1.3249881893720148 -1.9576685431306993 0.9549660781433423
Ni 5.332554134525988 6.1292398152284715 5.114827925331923 -1.5313421008833432 0.006920638379233243 1.312245802104682
Ni 2.730397338543165 9.289120153337297 1.8296370652990643 -0.21690520466461352 -1.9778342194452971 1.9027155839335879
Ni 1.8171504129764737 5.429584998242769 6.79330614366295 -0.347633202010511 1.43747215290606 -1.1876617128729934
Ni 5.268225304358386 8.80942544296214 10.726176165148546 0.07989523096474628 0.2600997377742166 -0.0983261839764242
Ni 6.961019004722676 3.3041103953722093 11.893875129593315 -0.2668095456942244 0.6084788168118166 -0.2998932156220706
Ni 8.834600817996032 8.303702583435598 1.7963584822921874 0.775241082073452 2.0404580649241053 -0.3329928263895168
Ni 2.2749325362455473 3.791387379965967 11.26984191133331 -1.3711862851946321 0.4959228623892556 -0.3836337884748361
Ni 7.214320725470524 7.393894562190546 11.639014315295872 -2.5016638355471494 -2.407035155026971 -1.2716591389315712
Ni 3.9363033642369025 5.897359409540757 7.225807222061834 1.1303695640197433 0.04993339449533336 -0.2564693401104809
Ni 6.109931896894306 2.4831577294566443 4.606855410606292 0.3422498262114106 -0.08318650012150836 1.5942719076383447
Ni 1.249907316299733 3.3041196646560955 7.296339983934217 0.4336052352969565 -1.1757965860042912 -1.4282398356745143
Ni 9.000215113184007 6.004595754815828 5.490728902467203 0.549135441856493 -1.068358669534586 1.1212151512139852
P 3.0909817509855126 5.889647365347754 4.386006379671094 -1.1209140750337987 0.8346446208427497 0.3890870982799235
Ni 9.23127982188977 4.807134046742074 8.054274496423634 -1.3974156512048062 2.0289472360710286 1.7236071384017737
P 0.5755632058926544 4.312487981459088 13.310560963137082 -0.2654077802506913 -0.3493851517046112 -2.1861285425124484
Ni 0.06889302555298074 2.8999788872342718 11.453546140952856 -0.451747453423622 1.190769919484672 -1.0275148960453466
P 2.2493307741529076 8.892950960057279 12.072913201704736 -0.5740864553748758 -1.7666373780193703 -2.3005279779016505
P 8.177093434839161 3.2597939491140964 6.945807182937655 -0.6941459172633335 0.18619800538874381 -0.24869843791581042
P 8.10195661966069 8.90284128596345 12.552869305885473 1.381827566958562 2.1623635788823665 1.398780649873133
Ni 5.938338913599974 2.14455078910758 9.971687045479488 -1.782676947980736 0.27353812266730954 -0.7136940145985902
Ni 3.8035764882758225 7.621066171664264 3.354894947925849 -0.6038618868650955 0.412456112023167 -1.0023193706163254
Ni 7.467288751998482 4.773569969791514 0.33603656792752606 1.2625183529725674 -0.191302930715477 0.6399578612567043
Ni 1.4016825706461764 0.34124683239974646 0.17093949878037973 -3.133701413515513 2.434606893997652 0.2193624079558545
Ni 7.106611646717277 4.6086786787466325 5.330426833874191 0.9954354990122986 -1.9109726817360573 -1.9545035151391565
Ni 5.511256658560743 3.633086549763905 6.646366674719741 -0.6382215952918879 0.15700878541929733 1.1561425592187895
Ni 2.153486378773512 6.454211638981492 11.45958322554769 -0.7308111338948511 -0.37664938673720294 -0.8276087970418907
Ni 5.8453309190896405 8.41737181172743 3.8704645677243 1.8623127546365088 -1.0961949750205637 -2.0057759401608872
Ni 8.614214324326737 6.254254646996548 2.7461245325122383 -1.2540946476852466 -1.1898607774068413 0.8690508662367614
Ni 8.661821366364316 5.640989555826702 12.011076881974033 0.8937640527127252 -1.3194212368071985 -1.7505957511754753
Ni 5.4227257281672605 7.669627949942083 7.493936089313443 0.439322854507024 0.36740987041680595 0.9975432893839208
Ni 0.29653273386293144 2.821356821314733 5.134295275348926 0.7799562281609341 1.3895457615384263 -0.00483393105353361
Ni 1.815018477682735 2.8144419355359096 0.6495154065905167 -1.160004613277357 -0.7675835655281941 0.9015195282884281
Ni 1.230738437223854 4.696912992055768 4.1690226401162835 0.8256449884473006 0.6068651924677936 -0.40096868020885784
Ni 8.570936037863836 1.7841146852074057 8.525522108393641 -0.4907793705151031 -0.11090530619301546 -0.2412486665059845
Ni 8.276960699425002 3.0685871611173674 3.0869023391473625 2.559341392764276 -2.23755034862785 -0.036988661409207264
Ni 3.203510857359387 4.840586892286003 2.2686637195535657 -0.5746713813440683 0.5332064293310623 -0.43159231863198566
Ni 7.483982732276847 3.741314708414759 9.464774009902003 1.9400708846535941 0.30288263726769776 -0.1337636988484277
Ni 3.0165215935307073 8.400761255004037 7.404722939625964 -0.9703664718588128 -0.2917744431696781 0.3168802370983704
Ni 1.3796494828495784 7.015698510365138 8.97724675464333 1.8487897804494093 -2.531686350051169 -0.7525348987251879
Ni 7.684820306230945 7.965104912370419 6.47089727690436 -1.1582552346864181 1.1903701129430917 0.28486511764435457
Ni 3.4369392334560334 1.6727164314676013 10.622053372330722 0.5818038786237916 0.42654807133985895 1.917082908398853
Ni 1.650154994489511 7.129145275843709 2.630455919686236 -0.8243992889656576 -0.6797901627622938 -0.21981286522971177
Ni 1.1780147504813003 0.5381588646281984 5.9370134060043025 -0.21678487703666532 0.07345795997983477 1.4170789339616887
Ni 7.563605880856055 1.0621208940568725 10.870266256225253 2.2558049239626636 -1.1421698990887814 1.1778359850318232
P 3.6114613104582833 1.8080757840522546 1.3426427938638241 1.1994412220064246 1.3107059684213878 0.5909513494510146
Ni 4.12438640356411 6.836921832059296 9.75969666915397 -2.9853022241420972 0.03901366225903603 -0.8309139501557238
P 5.191160478131664 2.020277500050369 12.077362457969931 1.153244668845704 -1.0100949007966862 0.40898589408637953
Ni 8.815932480249987 2.2348984991426835 13.535290116306884 0.48450999256662364 0.30962844063196354 -0.9586880070796199
P 5.772650464140913 5.710527723538137 12.812601128864914 0.7422291459238056 0.9813075442513487 -0.2542437932140718
P 0.4920376887975157 7.748268554429393 6.641347357495568 1.756365306669401 0.08392980604543611 1.1098609025434303
P 6.099096104031779 0.45179045816527813 5.507687057336312 0.27475142624912036 1.3314748255376232 1.0422426891738246
Ni 2.7282375953977684 5.040692192813122 13.52187282788216 -0.8197381360445625 1.6251487997228593 -0.3407984384768647
