# total energy = -340876.3522810502 ev
CRYSTAL
PRIMVEC
9.14111209597780 0.00000000000000 0.00000000000000

0.00000000000000 9.14111209597780 0.00000000000000

0.00000000000000 0.00000000000000 13.37894155023313

PRIMCOORD
 96 1
Ni 8.834427570807375 4.785509182814653 2.539738185677119 0.816883954425219 -0.004686606842391929 0.21465009008184968
Ni 7.035630435093116 3.0032848829282943 2.511481180651634 -1.1387775855777809 0.7175956636458416 -0.19068046664012966
Ni 5.503113888273904 3.3750081972920816 8.567284975062591 1.184793647296579 0.023521737271024006 0.7723642747462892
Ni 8.194385199600596 9.272195418462157 11.91148579711629 -0.13894935681442522 -0.5299678677891067 -0.270383893309044
Ni 1.9203922058646858 6.239320756397122 12.62736557476488 0.505685083982342 -0.4277647173557794 2.561138336763699
Ni 7.8805068411766594 7.073803718279717 2.7993832414626945 0.15811744510244383 -1.3174959947600278 -0.65224182083038
Ni 8.91778536998808 7.435746042938125 0.05710178354447972 -0.27257601586435637 1.0356771201411648 -0.3184876907948063
Ni 7.0554757889719735 2.7692358545016282 6.7902537408319565 -0.44345513150784277 -1.1959177822341984 -0.7030915564923956
Ni 3.2647115414181496 8.761152418023897 7.494695245192377 -0.0017848598145646679 0.6937466249423859 -0.857909247797645
Ni 8.084664433774737 1.2711721583362245 8.894707718950508 -1.9039651400699724 0.5735182415762315 1.1502261937343545
Ni 4.630594759882818 6.539624563687891 4.518483593301861 -1.3099125259858149 0.3339037682395604 0.6396542139733564
Ni 2.2258790235881185 5.244456986681927 3.653454691980484 -0.8441304488459977 -1.0504144263513395 -0.26890936564604656
Ni 7.9606652512014 4.893886205195008 6.467661160458359 0.5538058507489688 0.8106012067403007 -0.33293806189218145
Ni 2.123736239505961 4.376508414227935 1.448805900720163 -0.009629038449331802 -0.8064005383953919 2.2149696351138566
Ni 3.4187392764981888 2.0775462012056973 4.047731871671451 0.6210517683808208 0.5316146593639103 0.048138250268123545
Ni 6.909775606809318 7.107260187739239 5.359269351821707 -1.2914790018709759 1.2799956838217246 1.3497908502379916
Ni -0.042678937229388536 1.7917584795711359 2.280093129891543 0.46479400219493505 0.06927940312211293 1.3306505298641147
Ni 3.7594833627203585 5.787813817595437 0.9103998959977129 1.8063776340317859 0.29981402564470305 -0.8393561673858062
Ni 1.6860232385224225 3.015223175035982 8.935513642356877 0.9561680688712436 -0.13512226975885117 -0.9267441071831716
Ni 8.69169825000383 7.198589036474234 7.059157828834896 -0.845152719462925 0.6841026740947186 0.9344121652513908
Ni 5.477829572829904 4.613875666264932 5.902842827086635 -0.4182765753596861 -0.8674611531521382 1.0435750348320028
Ni 3.8559860807761437 4.160522222864661 10.252135408931554 -0.9880536047259305 0.3709245684382838 -1.47281890783647
Ni 1.3763954971199834 4.7145467313353455 10.876490718051041 0.4876475097543408 -0.3904739513251211 -0.897402935016893
Ni 6.775401262258779 0.5993452270317132 4.9075558238916654 -0.6228129740463016 0.04166575516990244 -1.7275157294275605
P 3.2352497378476466 5.086334033482252 5.482796853022337 0.8377751960519313 0.9240837867421893 0.3702036311118592
P 9.145133963410968 2.6110306312950855 7.360250514080407 0.4308567260175419 1.5421170800116601 0.24399923266792817
P 5.333610250790866 6.031662117951231 2.4525072973953206 0.9068252567720575 -0.45358990594899945 -0.9403030768145291
P 3.67594274130217 1.9632091738833748 7.983254766864889 -0.3639381098181216 -0.18305791709786537 0.352181997723458
P 1.360042047977064 6.350083608976637 1.532611614382703 -0.5805702633270066 0.9207812047315175 0.28265679713912606
P 3.5769262174809833 9.118048848927753 2.882346144610435 -0.5873746878433497 -0.30070619844166924 -0.6771128730404469
P 4.539320757819068 5.654152479771084 12.047295296231075 0.14139884679618228 -0.1720209425574134 0.5408940277833071
P 6.027850274299695 2.5960940544926645 4.583826089200919 0.005216511203932952 1.6629100776320331 -0.23600130206411613
Ni 3.9276432567578903 6.48992433842794 7.351861715713466 -0.3914437714375581 -1.0621142312867708 -0.6831554796901008
Ni 1.5252402217673593 3.4272587927649307 13.033389997325363 0.019669196294153223 -1.3937492580968127 -1.8199882828366847
Ni 0.6388128916597001 1.1451893544861886 0.023909492218121754 0.5821700037139587 -0.7416815009504516 -0.3200457793105456
Ni 2.851505861369305 8.09388781565579 0.7998975651066115 -0.7208843616994424 0.4999494670501455 1.8376211654270997
Ni 1.5163367788019018 0.6681979098904595 3.703799365627565 -0.023903031869842703 0.273303123838368 0.6252825186327167
Ni 0.8261480960757124 1.297772793890107 10.803160718596319 -0.8649319589723813 -1.5138179759566508 -0.8353455035645162
Ni 3.916006621342051 3.4665564327120575 12.435324525956037 0.2801705403821626 -0.7522469351711238 2.06800100753938
Ni 5.838272755140945 1.2477252063789368 12.442294623760104 -0.8932169219600036 0.44668726529189523 -1.0899227688586068
Ni 1.2235378243598396 6.412133476378614 5.698198013225664 1.9641546650756752 -0.10438884523073634 -0.1255009446190032
Ni 3.676344950224634 4.069239079689036 7.2999246603779016 -2.1772343253466113 -0.861634262057716 0.8861880401376803
Ni 6.57855655916005 3.512545366551089 -0.01810397206682602 0.7486607604817623 -0.7107038216220147 1.8643462401267699
Ni 6.0077855337358566 7.563593633610495 7.979842389802255 0.7346942709993411 -0.49020730006171703 0.007402463111658219
Ni 5.548846870980458 0.7943553089772923 8.160003649619407 -0.3905749956793596 0.5386335138839047 1.7050599715272055
Ni 8.852508690094515 8.341081762957538 4.658386482313907 1.027147999624231 -0.9425304234831509 0.5863681009557062
Ni 1.5244358039224308 3.773350429433499 5.560676383856842 -0.8431570291891349 -0.40528633374760525 0.25837915553868407
Ni 3.070654877441048 6.5573857440594345 10.694992113566698 1.1021439935151471 0.459247618455409 -2.094679031051199
Ni 5.315922199314315 1.2066541907282176 2.673981812327857 1.2177667597884898 4.264681871646378 4.024325635047676
Ni 2.530040380089795 1.6033235993966588 1.4967958239484538 0.9829990730211587 0.21982880606931174 0.16264207244567472
Ni 1.637282830009261 7.264313630849634 8.466354302414949 -0.08701590116992756 0.995472522897821 -0.4271111429321805
Ni 8.300458661788653 3.5547224567385847 4.638158115847521 0.22063176158658135 -0.7634654295947626 -1.1325696569948558
Ni 2.2192060119199626 7.497640511438241 3.421477039504508 -0.24909258803043552 -0.06994686150278276 -0.9269482527741778
Ni 4.354862261309862 4.239702533918863 3.1137881279305835 0.5859973478798488 -0.9012948138721317 -0.23138000124202088
Ni 8.240428980110872 6.339662741440065 9.284958238860897 -1.955152975797697 -0.40235399059215865 0.15534990965963566
Ni 8.529900569830732 3.6144687639482664 9.478926234052818 -1.3610096017719462 0.11790179211550664 0.22373276910940826
P 1.4988589728984576 2.8979975563614166 3.3989469410682007 -0.19505571288968987 1.1785283831131572 0.12999240473145357
P 4.550216963173098 8.413762743469194 9.969599180790642 -0.3135637711306277 -0.6265467300571209 -0.7499085168459343
P 6.372817554207739 8.24400315485368 -0.30503707501922284 1.4962704539911909 -0.4991033169997663 -1.44657000144227
P 8.469340703664246 5.070446781044916 11.286368119266495 -0.7139120441466673 0.15634852612747913 -0.6136775874039366
P 1.0624165864654314 8.60866038973872 6.313414952804526 1.6628774246218847 0.5723874704058981 -0.19484565376141283
P 4.982682965940854 8.295860682515938 6.229302097783013 1.4304952073675945 -0.589788696601481 -0.5781932784543977
P 4.893931910754378 2.6430336639666114 1.0780679982164134 -0.12139386442916514 0.2663107516809349 -0.39132318669929383
P 8.761252970254512 3.143253587945836 0.733694890580192 -1.4263037949940662 -0.10051470698731077 -0.21602125939776345
Ni 7.12741633942182 6.713378818192424 11.591420734175905 0.28978260955062995 0.3414101039189346 0.4955698499252111
Ni 5.495837563222051 6.316298059489644 9.869872392576832 -0.6648847064053711 -0.780807777527952 0.3962684465197111
Ni 0.4513296012313259 8.552241447251243 2.007416505018127 0.618381163527193 -0.24835185320966904 -0.4003649851865879
Ni 0.5814003103114981 5.098967050092377 7.999803835801916 0.6465889934199768 -0.9800749573958283 -0.9489900630655655
Ni 7.291545003122835 0.0897108719332646 6.929903421045089 1.6173724982115498 -0.31244688391736514 0.3476154613986981
Ni 0.9127656157507523 0.712765400833055 8.074191461900483 0.61376037692573 -0.5429408830100069 -1.5319802486879746
Ni 4.580300362351045 1.4151995170259044 10.377255291820669 1.0365554089810598 1.3595921525991295 -0.13392233591347902
Ni 7.423533517474212 0.9183343811045066 0.6626117764241441 0.5100297341042829 -0.04868383835894841 1.7991008978647145
Ni 6.591610066916389 5.974246794269466 0.42856366210866487 -1.0910221725703726 0.5641560836350412 1.1143672750542162
Ni 9.087736921952951 1.5096454849099974 5.487385691183178 -0.09659660287982719 -0.35136515824911746 0.39536084710377717
Ni 6.778692062533486 8.696890401548368 10.166055386634717 -0.6879534152993765 0.21069033410315327 -0.7600054960706201
Ni 5.183549758264223 -0.04048598449077123 1.1296522066336343 -2.168632185499898 -2.051794315872531 -4.647313958329576
Ni 2.2669866036863344 1.6298054004961768 6.191131556929973 0.3267023653951147 -0.1859946311286861 0.7109637601516207
Ni 5.8078876992711495 8.01077682649569 2.955194407469388 -0.19986419002192676 0.6005384789188174 1.8227735588913059
Ni 3.2869792899436674 8.863669987692896 5.033332038613345 -0.2906822385467639 -0.851115107693947 0.22617326023010081
Ni 6.649409317296868 5.217243896632474 4.11694105789329 0.27908810595126127 -1.0057510220056938 -2.7330710904826807
Ni 2.6281610749473105 0.5095950483173897 9.478230595439191 1.2983001385578672 -0.1809678673380561 1.3416029151105604
Ni 4.063407050313305 8.075907248599266 12.210183511050763 2.2762899312898925 -0.9518362742651092 -0.1410350356988603
Ni -0.2789931331784786 5.168092138084974 13.477009070690812 0.021367409932182557 -0.6171820010127694 -0.4631315268908475
Ni 0.7586537824414702 7.023308216286712 10.795909074546527 -1.1059898496237985 1.6516938972012392 0.7488157980023877
Ni 2.9516193186153936 0.8860616856326918 12.073785324331281 -0.3555655694837102 1.8582799793280318 1.0318196940682876
Ni 8.615095732498148 2.864787896922498 11.852430557964295 -1.7615836176455466 0.6598029210070896 0.2245472945909036
Ni 6.005198599075461 4.091698791563912 11.320309981766538 1.2408323833587016 1.0058268695489516 -1.5127419692836528
Ni 4.763305422072256 1.3677205819513807 6.0265302977450625 0.0981408074384955 1.1381489508548464 -0.35941296825425845
P 9.010265998819222 8.392582787256703 9.286135614070291 -1.1173844646139852 0.3703067323486267 0.71400151853668
P 2.486035067527461 5.363583956626323 8.837232063930374 1.3012731051432622 -0.7431475439730169 0.3274348726857651
P 2.265487461338968 2.725842996434866 11.02816735915704 1.539381169137736 0.27396492579208304 0.6888167917409362
P 1.6352535031731916 8.443645038185908 12.420768219407583 -1.530379736970074 -0.4821744024549115 -0.7411204862406592
P 6.677856457449336 2.2972162606542685 10.260617446639612 0.04062137306578811 -0.9010775556550031 0.30185111067938986
P 6.543957450716255 5.360558248595968 7.929364255921811 -1.1104517420498938 0.13621293171986862 0.9597305894115212
P 7.826629127790206 0.14599818240975432 3.0841133364534126 -0.980594320234408 0.5144546026448559 -1.6061270072047178
P 8.635133049726365 6.016826093379427 4.609312423217338 -0.03744528933065164 -1.1880445501337087 -1.0627104701098729
