# total energy = -381169.8596206412 ev
CRYSTAL
PRIMVEC
9.25285953690530 0.00000000000000 0.00000000000000

0.00000000000000 9.25285953690530 0.00000000000000

0.00000000000000 0.00000000000000 13.54249522563461

PRIMCOORD
 96 1
Ni 9.11200300675408 1.7807867920086238 1.0765933097984153 0.4160811103702641 -0.37509541198652174 -0.0329977950822593
Ni 8.278949579730416 1.8902943816303703 5.368800421428841 -0.7581116214820169 -0.49133627145983766 -1.1915268522553544
Ni 5.6063444513878 1.9085965372933882 6.116169595628318 -1.0345149815122636 0.9918886622013046 -1.7713499530036911
Ni 4.029000276448322 0.8065809966132027 1.5646048382777784 0.1815365953573325 0.1435724574087334 1.110731735184158
Ni 3.1502377245635316 5.116368540882523 13.263072554587602 -1.396920713846259 -0.6166173867585509 -3.328018705577281
Ni 1.2893211711586823 5.774311605963513 0.8115257246143739 -1.4871294109218711 0.22224461459965594 0.21321258630437476
Ni 3.5850943523162324 6.132970937515532 11.059018341079025 0.0057826681200481055 -0.6350902487517578 0.48182858907971865
Ni 5.691026619551572 7.028805014778617 8.068699634086304 -0.718124539566118 0.9181314258134962 0.22403693061338834
Ni 5.237164618830296 4.692467298521638 3.7979249204145473 1.4885615153827074 -0.08572289339011689 0.12400481968945096
Ni 4.715340366670769 0.6508155875748111 12.843743149998758 0.6193093317684173 -0.20608471701034187 0.8885997349029664
Ni 3.051148854495151 2.2928492776239233 6.159804229438055 -0.16463879116072935 1.0532927763403988 2.103352647565797
Ni 1.246609972705452 7.310628602839381 10.33091917162363 1.030701007082812 -0.45631270419680126 1.6519741474458194
Ni 0.4011049729438082 2.0652104335280885 3.454175646312169 -0.37521342562162474 0.8701045043122563 -2.3236473375279334
Ni 4.198022256982369 8.140304736224522 2.7255083512967624 -0.9463878495560283 -1.5323008652521868 1.5918077623685682
Ni 3.10153067329451 3.413342778293515 8.380190664868168 0.6372669446881025 -0.30898695039322266 -1.5118875917031573
Ni 2.713382479205567 7.933086952567655 0.6220012584796627 1.6941266124441534 -0.9914600593043182 0.8882091843327672
Ni 7.616676176504686 0.18113767448003007 0.08464238086885081 0.8684803384452721 -0.33317666026554876 -1.4468517943487467
Ni 5.03818187993586 8.752002010605935 6.1275589401205375 -1.1069103045555386 -0.4875243539129152 1.8187952909698484
Ni 2.13510653255662 3.5180758925249096 1.8063653962122872 -1.0204001393774362 1.1092960311788962 1.9179755954164517
Ni 2.663102441858328 9.304952881395591 6.612908420984001 0.17986846362629022 -1.7631728165095375 -1.0620772074012483
Ni 1.7214944697191308 7.461302163413993 7.857680775835724 0.5370062626931268 -2.1704676960467393 -1.4027141805995842
Ni 4.290264011180864 0.942385212319022 10.639675057201254 0.4543270412253401 0.23041300934306125 -0.5588092175008311
Ni 8.260582654052412 7.440168632810185 1.3420060266337361 0.9219443718016832 0.6916270074962217 -1.1706114422589258
Ni 4.119900366050691 3.858044448323997 10.398496504115686 0.46097257156631577 -0.2991475957052977 0.448694268419595
P 4.628002627892597 6.955170760599499 0.06244199558964032 -1.7117183573839876 -0.3308027607167335 0.35822640414532503
Ni 1.2743685505563382 7.997736680382371 2.96450600544918 0.9532987177432485 -0.2252072967724057 0.04199357082296638
P 8.92882415151608 3.878456255903682 1.5001836560873698 -0.15029666350644438 1.1417901471518594 -0.006884642934975241
Ni 0.7052760667463932 1.687471706133228 7.177400383158125 -0.3526417109686959 0.2790667657950226 1.2368008936018053
P 1.3666565690512515 5.291303098498808 11.82737855184934 -0.10840130882423912 1.7216232752025251 3.0971899488530403
P 5.596591937702856 4.194089791786826 8.359985196050507 -1.6084104039222558 -0.027799024490139223 -0.682695766444863
P 7.107546847282298 7.154782693925223 3.094257000611649 -0.8110143830183193 0.8290013065140431 1.1971120596526157
Ni 7.676569934647616 8.476387091124485 8.880247565562959 0.23302756414777284 -0.861044450992517 0.8021643888268573
Ni 9.205864011327211 3.788028062124778 8.788130724964793 0.19008551336860813 0.019419027956560104 -2.3190347784565866
Ni 7.944403199471534 6.87365307031073 10.883439784456597 -0.29248766718661884 -0.9277414380994345 0.15082168277197897
Ni 5.552002408815048 8.03129680100409 11.013854209629702 0.2910581338289439 0.14914686617271733 -0.8934169537859515
Ni 3.7464179539263 5.541435643513145 1.7089004029481836 1.0580968825972616 0.7922756689582355 2.42522956654781
Ni 5.184395562335761 1.981925447116146 8.563975582389244 0.7201068601034695 0.5613019020156979 -0.04077898168957493
Ni 3.260198704290176 5.6852250767807355 4.680462638887058 -1.4164567269966573 0.7583440492077972 -1.2511576765441097
Ni 7.844934962172525 3.616803901081228 3.508996061709884 -0.024406453868822484 0.6749163796097603 -0.450931642390546
Ni 1.0973706053198038 4.186150838521473 4.695345863044775 -0.23472423512390542 -0.028984817268124272 0.23040632447484188
Ni 1.240003431176941 1.0732576540266672 5.130817805939838 0.9588870104643034 -1.2733491250394844 -0.5779904184149723
Ni 7.859785801322748 0.3585603259576832 2.588539200607134 -0.38912669326860727 -0.053215150570398675 0.5506382516542645
Ni 8.966908920327496 4.114820546303979 10.944989804411296 -0.7847881023319386 0.09894196318355218 2.376235910257927
Ni 2.2196591606904197 1.0673913412408467 0.030141189116420688 -0.10819639190228462 -0.26363629017256535 -0.4793852697455486
Ni 9.21356239025119 6.284329209677131 8.922973568591043 -0.9243326695282016 -0.9505841470255628 -1.1157255888543236
Ni 2.6777682238228797 2.4385077884668074 11.755630030392226 0.9709693955501342 1.1221302068290868 -0.10219080913815304
Ni 1.1167831040968568 9.185887088133855 8.903391742489099 -2.5910652062301183 1.6030385980873811 0.7921432571454293
Ni 3.838160053723479 0.905460752061773 4.549303358541621 0.13511172823588988 -0.5339741607350222 -1.381723180170214
Ni 7.404249033071138 7.269101770374456 6.483605264210858 0.18301703655760093 1.4084798794387678 -0.2121360654107443
Ni 3.0690901486461075 0.910052946124238 8.58966614619024 1.5571390073417892 0.8178620020677722 -0.2391308488320333
Ni 7.528237347471763 2.99619612320968 7.1653744419471925 -0.4754481394746715 1.5038459523456036 0.7837799727823985
Ni 1.7325238779852163 4.738426250583423 9.972233006779689 1.805348164326007 0.3161610995441587 -2.571845438768558
Ni 3.7075651977943425 6.693870014429823 6.698822144718421 0.15218873832283467 1.716976006238501 -0.8757161940720789
Ni 8.842032331435643 8.915018885464907 11.237223784452071 -0.4228899057619813 1.0770531119847901 -0.6619081402755503
Ni 7.149258736932896 0.7393376923412873 7.21591540992623 0.31327555046624755 -2.039593145820649 -0.3278902150556288
Ni 1.6202126720005305 2.2779614270365642 9.6603626087672 -1.2445946786146111 0.29690559374865644 -0.158963595152823
P 0.3295516868175787 1.7689801435627135 11.275698098639328 -0.9217471681892125 0.956562733206501 0.30829738052536587
Ni 6.910849564630918 0.9099974289685362 11.056498787496091 -0.8395065769207413 -0.4069076714011121 -0.3525013287360897
P -0.029197397469490554 8.5697484412963 6.954165900081298 -0.2173170953910515 0.3021143916431055 0.11226541976533569
Ni 3.728088039685431 2.750764030711427 0.45062072411421916 0.5823281265583776 0.5406310039299076 -2.493775948158641
P 5.35870092552076 9.053099304554499 8.7394865931389 -0.0003733241790187119 -0.02298643359284428 0.3708253238562581
P 6.9463157742650665 4.539674833171077 12.081326976032244 1.3461265140125267 -0.0510058016239057 -2.451559462691591
P 1.870733837104779 5.776226947835225 2.791975340674781 1.1013790903246645 -0.25138395516777345 2.222381354196895
Ni 1.934745117628923 5.176021724684078 7.1964409169919765 -0.33962807231784736 -0.8032113420341328 -0.2793578146728802
Ni 5.31066008012016 4.570403578852008 13.26420973099356 0.035977189425557395 0.7499481118346181 1.179823190665181
Ni 3.4383069926407455 8.02486606380197 9.671507677774327 0.635862351031092 0.21667200560788488 -2.0350813739932243
Ni 0.7489208787013416 7.60737705292464 12.677413751516248 0.08355262521167546 -0.5318951667188065 0.851670980197417
Ni 1.168395553180938 3.454499496387096 13.266119521149701 -0.9817510595466706 0.29389354639521 -0.957252560184674
Ni 8.478163640106942 5.629050968069825 13.164009592525217 0.25214397326224963 -0.7500915793910179 -0.2557702571609273
Ni 3.2884754422609452 8.243529634392685 11.918559928373933 1.1464261032619738 -1.1249301381717272 1.912147932991081
Ni 5.988404264068115 5.5654468133541615 10.070754676573983 -0.22134524271383815 1.1105826112008033 0.9669214507330058
Ni 6.339541021022543 2.0915810824864303 0.780461100141447 0.4568256392774777 -1.4943819787192263 -0.3364741000698979
Ni 9.027080264248935 5.9422417491020925 3.087024965795565 -0.7572287046564314 -0.8462719206690328 0.5437844619572247
Ni 8.968176562049354 8.325361921897098 4.700640349126868 -0.6464833210800479 1.7365976371241705 -0.3750049091552445
Ni 6.738320750428375 9.032141578277079 4.835252796556956 0.8122467127635237 0.9687860147455704 -1.587046336424183
Ni 8.084843097678451 2.39965503233485 12.61169254259649 -0.7761823629407987 0.6458588001221716 -0.3744153552003616
Ni 3.4180987479653004 3.4026187143837894 4.263637983306293 -0.39767098329419254 -0.8322789488240506 -1.3158281201393014
Ni 7.307001482000199 5.366316028711187 7.830514380978989 0.5422801094975565 -0.49692867794595064 0.08265865264249636
Ni 6.498347844907464 7.042193902162027 12.899795120967125 1.9049210762253388 -0.3767938827348672 -0.2512240325511415
Ni 7.423467221803235 5.226662623543378 5.2684365073511765 0.10504344809559975 -0.5084235659594276 0.029409563510368705
Ni 5.16557524655286 3.5282632905961844 1.8801449202821578 0.14859922119936342 0.3474560530026984 2.277156907275878
Ni 5.602893134875007 2.6520082635772573 11.865906532620443 -0.24638881594602724 0.167093423348809 0.651138303353556
Ni 5.551289938650209 6.7776731609616485 4.6607845830485655 0.09152715877671978 0.9480256422697674 0.13665387591202918
Ni 0.3528365072048304 6.431310879397573 5.5403697141236705 0.9712822988048626 -1.4237895132126446 1.1191965781220594
Ni 5.8661647400720955 8.481781508086842 1.252224607718758 0.4287890448552357 -0.17084209175796383 -0.11169129242942055
Ni 3.805238380392328 5.700834650392217 8.737319573494673 -0.1353701241035991 -0.6125468162336031 0.14459807045977033
Ni 4.590658087823871 4.5202715872533075 6.234029741325396 0.740364324800925 -0.7638585512681231 1.1159492748293556
Ni 1.84424290097575 0.34375945224759064 11.137388208639502 0.04357505637747334 -0.00031598857852203644 -0.6891613195645486
P 2.4107677163344885 1.653994861245059 2.7992203294938625 1.0192796526197478 -0.011222093968064544 1.1959707469593208
Ni 6.901846532547947 3.4456352571933797 9.912794489313516 -0.24622915043971144 -0.41609550854796723 0.5138794468676763
P 3.2350216741794218 7.957736569699242 4.727292285007432 0.47401989166857716 0.34022174003778827 0.6263094172353343
Ni 6.754587277048995 5.378353998639188 1.7336962152564521 0.4055210754662306 0.10175475004199896 0.04172540476324427
P 9.162199768367767 4.513683551443364 6.730131969962365 -0.4353844386845663 0.17389321987946182 -0.9198093277365513
P 6.467702374960085 2.0024205304293834 3.403689270202905 -0.2710822049276493 -0.8911433272604264 0.09725866194385831
P 0.999262538335488 8.965937370102717 1.0203109426338868 -3.7958214126915535 -0.3232935968238819 0.31183316159276614
Ni 8.08889585004468 1.701998695208525 9.134250581615637 1.5432154552821615 -1.339916271436757 0.6181315094102322
