# total energy = -340876.9151821315 ev
CRYSTAL
PRIMVEC
9.22244046953757 0.00000000000000 0.00000000000000

0.00000000000000 9.22244046953757 0.00000000000000

0.00000000000000 0.00000000000000 13.49797384573345

PRIMCOORD
 96 1
Ni 0.1614895459540137 0.5665926268293066 10.431693456051294 0.8892070294696621 -0.6519597708135868 -0.5807420130181805
Ni 6.697041238476014 8.622732945904577 5.89254100071856 -0.7666746805606796 -1.3861210521275935 -1.8711396088995196
Ni 5.092742363173971 7.080989885125596 1.2527090059511585 -0.4634521434550599 1.2626525645575868 -0.09396662145614784
Ni 3.703732141008647 1.9659661054857949 8.209332435230314 0.9584864325917749 1.1275734893318452 0.91089685573827
Ni 5.926174319306818 4.857145895857719 11.584932906773211 -0.5550191543307796 -0.908161716195294 -0.4822903592074856
Ni 5.141704300267136 0.8813803470051531 11.518657681960137 -1.331424946136294 2.4213981086168617 -1.754086023716921
Ni 2.9696443149130136 2.260696861866159 12.737970386046204 -0.8899637051300285 -1.6234675553656945 -0.16086646860249068
Ni 0.4413666395198649 8.999561868418553 7.894479235726278 -0.20752530611161035 -0.5433975109314512 0.28043510689745893
Ni 6.085611872229521 7.0281821903063335 7.5196137708139466 1.5818727626430433 -0.677911200572026 0.8317598430957869
Ni 5.035332670500219 5.180807448369418 2.9490100263365875 -0.421421548746571 1.0729120932332232 -0.3563279015710315
Ni 2.6484635989200673 9.017481070485236 9.025136618419129 -0.022812369908825226 0.21170720540344184 0.515780263434815
Ni 0.5910081160476987 4.767863448504371 2.8677658582016234 -0.16706565543466712 0.9765962548186082 -1.0095097177171775
Ni 5.748457889134416 3.310680945496576 3.9953733797913076 -0.13198732367429528 -1.189690056156932 1.1444545813579001
Ni 2.2866211423651017 0.9413529559189108 6.618056568285639 0.24107691681481058 -1.4434165434149526 -1.0941905429960253
Ni 6.8316243140082324 3.166838539611836 13.216189898164352 -0.05056151499763551 -1.037690808137084 0.4064160764766742
Ni 7.756902555978493 4.0232897074577245 6.5991597875164 -0.880237221870884 -0.2076960273615197 -0.7483560847571499
Ni 0.2922213302957816 2.2565559860411772 6.270240521624249 -1.0963548976371957 -0.04363290619860228 0.1168952052278632
Ni 3.2585003766374454 5.644465649039762 1.181069087446788 -0.48830442661204937 -0.8178460612281722 0.021679284745646534
Ni 4.394788059310589 8.125320612674244 10.665829088778064 -0.13155486412256698 -0.7587713665532029 -0.2609944816743441
Ni 1.9946386732806054 9.07903163898397 12.084533725155588 0.45143583572047413 0.11205278953389733 0.7933976983778207
Ni 3.8641196053121365 5.624296171469079 10.799634712568531 -0.0847402177618734 -0.05062656390761603 0.0484948622765939
Ni 6.677489664424873 5.592386527027122 5.029048499482083 -0.20545762494930422 -0.5468296765414518 -0.7293967700458277
Ni 1.326463630082853 6.60631086795001 8.276754931652805 -0.06854843849335936 0.1962150233051137 -0.217547980454935
Ni 8.245747241900565 1.7360783288948523 1.1063470292971858 -0.5356762310277936 0.13082081417001987 0.426464253376801
P 4.9510211186249675 1.823654624739021 5.543280719860752 0.12780979525783795 -0.5019125043137872 -0.017137173900918873
P 6.108280631200137 1.211847138428332 -0.14408587831632094 0.24713392164216788 0.035258823202294114 2.6914184479389
P 3.80646090674245 4.164383826046597 12.769299016730981 2.2594906003443667 0.9565925580031719 0.30801558761888886
P 4.1934714036679654 8.64767042526037 2.6715464454731817 0.5469723727669031 0.1855647426801191 0.07369784390478275
P 5.983159779713423 6.59711609468162 9.890599955209723 -0.8610297957044978 -0.9749409786033727 -0.6334195459175543
P 1.1557193649966127 0.9601944020446097 0.5471886118276079 0.9585792494158976 0.23554493125298787 -1.1472408858537855
P 8.846626136111913 4.541664648149492 4.777689036709129 -0.7686035221522763 0.3165678480642742 0.3509506964195182
P 2.654255291610689 1.356279780510843 10.588323698058351 -1.254969336980716 -0.38465631620207946 -0.18090101865586264
Ni 4.615886850019108 6.8681175114235 5.682458415294989 -0.9897615885559727 -0.24014951990453484 0.5641062042337123
Ni 4.463439907063747 2.9175098582568335 1.2314365244858931 -0.14724399272304964 0.46533213408659213 0.5421803506948986
Ni 4.029026065504804 6.876556044563497 8.51357706132349 0.03290626380971752 0.7312196821871794 1.163509541106822
Ni 7.775107653703471 4.643434280061919 9.105935342673588 -1.7865204900965423 0.8954573812547482 0.46180380921835956
Ni 2.412166226118963 8.154730975716266 1.2133623854172957 0.4763626808691409 0.40367836583053707 0.5818103063816948
Ni 0.7009497525670667 0.20932911202735574 2.538483228150221 -1.5995758363497612 -0.5256072768275658 -0.6473981195848334
Ni 5.567366045706016 4.870951889421191 0.5111168799473113 0.41318913353444975 1.1280072344351542 0.2532168946114542
Ni 8.417570532535855 7.167136702678288 4.564447765383426 0.5364506472999728 -0.36146033770159036 -0.9259874315228053
Ni 1.3126207467570212 2.5936269671709704 1.9393344637935872 1.1488820210016342 0.47477399622578237 -0.19964410359132068
Ni 4.076235738885839 2.8676717893076042 10.5164200177531 0.07477899278410347 0.9985385634176543 1.0868449012642316
Ni 8.68998298268803 2.493185366703527 3.4804254980228433 -0.6168505858152796 0.35795875230623514 0.7009616546335864
Ni 1.6640695127668754 8.02607792948352 5.243692504021549 0.45772449694266326 0.39221098862088577 1.1319312520799087
Ni 8.3577261155463 4.971365822566862 13.540897275438978 0.5050405084198075 0.9319855580877691 0.34407608078687196
Ni 7.641732717888562 1.1062225263492185 11.834011659988219 0.20202957310436173 0.4010985209185028 0.5574660732093755
Ni 2.040520315216656 7.089529865112085 10.445366646470266 -0.35793766926031256 0.2918425774034522 0.8060701516391666
Ni 8.179889793646227 6.986072526571658 8.968958121564162 0.40832383502234837 0.3148711770881416 -0.6055133064255895
Ni 1.6527259108409775 3.6196695950293294 4.741176472168622 0.930515658410462 0.08144200662657587 -0.3322767741590987
Ni 6.9517558251356695 8.741296642131685 1.5612697342405282 -0.07337645600962202 -0.6882982002333049 0.04467291742734242
Ni 5.878863199079293 1.2163845791986916 2.6955994927763807 0.6208383668184341 0.18585836266113798 0.3208219953549378
Ni 1.311809171985087 1.9617698950172717 8.503197204439264 -0.6099451169446979 -0.26742532490135235 1.6702449207305494
Ni 0.4978789887241942 4.239389935366376 7.749079159625859 2.0378720493644837 0.380942357685602 1.39396394521078
Ni 3.833325876181589 9.08244394200233 4.919700788136722 0.683285577510062 0.10037895274039488 -0.246906121902078
Ni 5.015292307097799 4.254560850137191 9.005430107366072 1.491122334131348 1.3001096809627803 -0.7520785279140596
Ni 0.12629763490601845 7.0496889217625895 1.6178134397428643 -0.04500767505894184 -1.4729515767595924 0.387262643476675
P 7.871832610613079 3.956611461990861 11.56680527754919 0.691137726564629 0.20626083757688993 -0.12678803886154294
P 2.241311291745641 3.160973067396493 6.889528329497618 0.8835716855607558 0.1220708358915317 -1.102111854725631
P 0.15360251476130807 7.788950537029303 11.547746181825563 0.05775880407702311 0.3121838600639656 -0.4718681354328971
P 1.321538846807707 4.816770050953994 0.5879573327004736 -1.1570403884427105 -0.8232165815114662 0.4561532958008015
P 7.079025505279891 3.732294039516375 2.4045558681439623 0.3821127238446193 -0.1977599991947304 -1.471249763577137
P 5.732189503933372 4.947073914052379 6.885451088512707 -0.8841463271173031 -0.5301234195303645 0.17117967760304068
P 7.113148535463486 6.847403909857999 0.2697462425775593 0.2397067759401614 -0.1758192332575811 1.8348063216861241
P 1.4338866180770478 7.508634455291359 3.281613657244507 -0.3242148230865707 -0.8013280089684909 -1.6391548841939643
Ni 0.07817493990655851 3.187367692365534 10.236823286381192 1.1203674585017092 -0.7395490279884812 -0.12682891940180738
Ni 1.9497069427253413 4.343372953020442 11.784730626450635 -0.26164008567814295 0.03433374028486345 -0.25787110555401394
Ni 8.943111309566177 0.04213087534803237 5.630598787368395 0.09993903698949885 0.6596491690380445 -0.7162031541736892
Ni 5.8889802164067 7.588731351816907 3.7849126743035386 -0.04722885107997673 0.5199765609043497 -0.8488551080151769
Ni 0.07081451007155104 5.564654648172508 10.936611933677957 0.7120109704692125 0.37574847218948837 -0.3011132040721008
Ni 7.296951776425394 5.944287192625894 2.4385977408503643 0.16707028342035743 -0.1722770244322775 -0.3936464355158317
Ni 1.49647009992188 1.2427330919647814 4.27075914478975 0.5484008776833135 0.4068678193021122 1.5609069590246538
Ni 1.7161394123389244 6.6668193006620555 13.007187260533888 -1.0962564243861184 -0.21167120995918387 -1.0546865713641318
Ni 4.153399899303715 0.6325478329539017 0.6664384576346254 0.40599081601379755 -1.0122109186984245 -0.029960036697200012
Ni 7.155092195267539 0.07041425614993804 7.984929244058341 0.9400817048323423 1.119507167383943 0.751225692995461
Ni 3.2529023551992178 4.934614396815071 7.6865288785671515 -1.2523067025468884 -0.882426516212719 -0.5623208301985154
Ni 7.174671436640451 1.5756263075072319 5.332024117750052 -0.6028488722195489 1.0346036845713278 -0.5279037861712264
Ni 0.39487078304050927 2.60905611027831 12.60629791276424 -0.3197860978912557 0.06515741053393939 0.7151173773086781
Ni 6.098108279229189 2.5532880120296064 7.4491672361219425 -0.47187353474953575 -0.6981234138538428 0.6788259990768115
Ni 7.006555567122406 8.515817192142839 10.289073945788807 -0.6781461994009675 1.626051771153103 0.09471301270386914
Ni 2.78208754063091 6.026560585130721 3.9699969122634204 0.34882619387734765 -0.7507652084192747 0.04263326128949432
Ni 0.9777631513688664 5.8627884851306415 6.053841486640476 -0.37318251123452506 -0.231532210549169 -0.8766777866543998
Ni 6.016941579595183 8.420816831623592 12.635547805339995 -0.24021971102083792 -1.5717927526992221 1.0013395232015592
Ni 3.582097372065014 1.4939523736407663 3.1530187123874795 -0.7624814684149385 0.7003921552833615 -0.29708248564615286
Ni 6.6073714486178785 2.700800949269231 10.170359001536019 -0.0012829804774816614 -0.6372882848443412 -0.45963096993675684
Ni 7.359987157859145 6.710450667094108 11.655217126510827 1.1844671171950958 -0.4337623297001111 0.053159100521482636
Ni 4.054304775162436 4.253657050959355 5.512072903147705 -0.030350330157083213 -0.30971174437438914 -0.04493851238390325
Ni 8.805899838465763 8.730755392537132 13.711917291498864 0.521467029406947 0.03447052297304386 -2.496351679305617
Ni 4.74369143171756 0.11989264991615167 7.205583213010552 0.04422117460190449 -0.752652912360291 0.09692698963605241
P 7.709259427889721 9.255918049503258 3.5747092749082356 0.01923210875673462 0.42533708175089324 0.7293625743737826
P 1.954963733861733 4.844704823501592 9.524979986989027 -0.5081877957995377 0.7098335032019195 1.0407326802872015
P 2.756495267993213 7.892868997599236 7.164319247077994 0.28994561749105546 0.4807371557877527 -1.5750953347098937
P 8.59316580137252 7.346716065849903 6.787564104088739 -0.20484364551438913 0.33493683748976516 0.6106228597380129
P 8.230889890109816 2.6053117993987045 8.420899833588903 0.23106889775950526 -1.0466179354233847 -1.0962769932114087
P 5.498446747175743 0.797618452589075 9.251066123508773 -0.1307755627543812 0.25045501559560096 0.3429401674102158
P 3.7528324147106638 7.381955011344909 12.711110027827361 0.23766043493409394 0.4377884201403686 0.461377006093586
P 3.459217573641709 3.716745004681364 3.296569689149571 -0.4500086163556443 0.34972428021158486 -0.04918957435077335
