# total energy = -340867.8179179927 ev
CRYSTAL
PRIMVEC
9.24173478668910 0.00000000000000 0.00000000000000

0.00000000000000 9.24173478668910 0.00000000000000

0.00000000000000 0.00000000000000 13.52621302918805

PRIMCOORD
 96 1
Ni 2.635373129888362 6.702217065060311 10.055414229682468 -1.5679620660992222 -1.303498394929355 -2.439195541809599
Ni 6.215658204973475 0.9329531402098123 0.43491604535189465 -0.2869001457965123 0.4179032511806674 0.47248237197812826
Ni 4.1174794008005735 7.205143037691096 5.152608238116336 -0.19242701701759118 -0.6345328335863911 -1.1103563541226102
Ni 6.628615888154606 3.585294095411945 10.019244851724675 0.6443871006726515 0.8235030024036334 -0.6662648745823493
Ni 6.082531013445765 5.72266709738207 8.52595053651788 -1.1041337702516663 -0.3206286483972091 -2.943101422404331
Ni 7.741357739504999 3.2807142376418135 0.5541713927641525 -0.07766839851675657 1.3257433223704844 -0.1525800602239824
Ni -0.20023789799885033 3.3678730396756795 11.532679679843397 0.3990462663751644 0.4616605987722759 0.8567777052963632
Ni 8.78864038241452 6.314517043416509 12.125952853055571 0.47581632144736774 -1.3785129007630326 -0.15864992056714614
Ni 2.917865241198845 5.248603062907553 5.2976360117009875 -0.028155379388293447 0.8896569725228871 1.8567877110532216
Ni 9.312341775146265 8.248904579595962 0.874562010636027 -1.9801556684896218 1.7984552938609155 -0.8713424904844155
Ni 0.38980251633818297 6.7146009898535866 2.6527743925698974 0.5810286910206638 1.565055948196021 -0.3355256201136996
Ni 5.314967961370621 5.379549204994059 1.6618977545732696 0.674775740266838 1.220734584167562 0.40218404067319763
Ni 7.632314509179734 3.7326720421868425 5.6347902125448925 1.2197994739478024 0.7321733043497003 -0.6708154700675092
Ni 8.553669272064502 1.5482863346768725 4.675579455079369 -2.3865583752298574 -0.4574074799228767 -2.6151854963170895
Ni 3.779121001896545 7.331486795787266 11.711698554465114 2.033873726838368 1.044909694483026 1.9066707119265935
Ni 4.228796097916247 1.8164999655354082 6.489241283820736 -1.774332946891415 -1.5448442491348362 0.7614435140687273
Ni 7.897820311706606 0.9821284117210201 8.681042559430798 -1.1145074001765063 0.9750373949719209 0.5888983235767277
Ni 5.608568638055371 1.920931570135417 4.747768494889244 1.65667412402465 0.5994689000037224 -1.4358898960206044
Ni 5.471282665813501 0.3753558363106844 2.8865884377078883 0.32512010850965944 -0.34925711076717914 -1.8292668799251335
Ni 0.3503116588500151 0.7828183839081733 12.595285119250866 0.9090289492915958 -0.11070038927106096 0.7676720114769423
Ni 2.251656295995232 2.856694197761017 12.357521156607916 -1.6697476693791566 -0.4741217073537641 0.25018145021924004
Ni 5.895746308970474 2.9295098271984923 1.8892472061344727 -1.1205158111541154 -0.29762241731002287 1.7064553092128352
Ni 7.527540960387673 5.831165065347035 0.7458283398894534 0.5237859073481108 0.21516045405936493 0.19915430843909573
Ni 8.477351025092212 1.2641399528156452 1.5013420179754384 -0.7224807596522849 -1.1060122182213017 0.5703326447593984
P 4.805267797043215 5.4689999572881725 12.676104091129368 0.11956118209580054 1.1770168315646374 0.360059857809638
P 5.499941285801521 1.7535729924627126 10.223085177995479 -1.8189937801338996 -0.39816206399799814 -1.1551573124873848
P 1.2161291399044025 2.335377172638726 4.706202867911457 0.9380695594983199 0.07832197294035544 0.062487577011260134
P 3.914364550721017 3.9651109171686847 2.7001567675065563 -0.4152958954648074 -0.44320547739088184 0.23565471735797477
P 3.1240760724767207 3.7948042260563875 7.013639503365473 -0.06385360412085132 0.366464218674085 1.3089455340868552
P 1.1188783633375092 4.889654078600975 10.496206170096725 0.29462862478902163 0.16457142825790366 -0.7948963944105342
P 4.5661841146536375 7.427868849271646 9.189141131096505 1.6319614517693182 -0.025197839421866278 1.031086929667321
P 3.6425651267133836 8.914494328559911 6.713587171532824 -0.2673240234367977 0.1534292955981551 0.015024241322974124
Ni 2.98806545965386 1.6648338537574663 10.272685569313024 1.24070897040696 -0.24196728983956395 0.1558345626055381
Ni 2.6859901120471443 8.502377643256532 0.16204273174651615 -0.1499307955265934 2.4819882114950933 -1.2964731126514577
Ni 3.5355181111309144 6.856008775869935 7.4328168741480045 -0.820697157523722 -0.7446598668524853 0.12197133419918996
Ni 6.890083052521283 7.854319465436497 9.510645378026283 -0.7749001537942655 0.8283839846450185 -0.6589889097462265
Ni 6.483733209808205 7.8814347156928175 4.387673535452541 0.13703645606242848 0.07587505406175965 -0.514866493371294
Ni 0.06874002433759865 7.088429167381936 9.552036336214078 1.6547514530806402 0.06320337213136212 0.750371829635598
Ni 3.5431795093798883 6.616555424083543 0.6839687872000588 0.7481959050302018 -2.5467946664475174 -0.2818304445830888
Ni 7.351236383312065 1.4907288095929032 11.086598694534223 0.09851541716909486 0.3676582389821862 1.4228009240471304
Ni 5.768977431067968 7.542355461465001 6.79351339181802 0.3879761246039318 -0.10057898456634291 0.20955287806460038
Ni 0.6177988893438109 1.8698802264353773 10.029673225408803 0.41959477995047734 -1.635777740191615 -0.22655584038050014
Ni 2.2283948492006993 1.72380536428425 7.969536174688559 -0.4665485229921965 0.8970679202749776 -0.33152524070505485
Ni 8.763743148539085 9.029211984126276 10.801317427624776 -0.559308782845069 -1.4512483807545458 -1.0943862039465992
Ni 5.591166451200342 0.31951172888094875 8.200320779119657 -1.18337234146902 -0.07346952994406057 0.5651577854266783
Ni 0.9286280082670864 3.734122994569338 6.4652192422422585 0.9461669917944737 -0.9997806633548718 -1.1265118808365502
Ni 1.756493380697545 0.9342562248335824 1.5378089797976664 -2.134814208509188 2.3900609890664772 -1.8090685506003876
Ni 2.2894642335544035 5.293379268596672 12.302064277871343 0.019731416990656343 0.3167388264244997 0.22743824298545345
Ni 1.0187441654754654 4.840321697596121 3.8867169765332834 -0.056635231995541165 -1.0009525721757857 0.3065703705319301
Ni 5.695588814065431 7.636981585314514 0.22616650949139763 -0.23524874016880776 0.34833896982828394 1.0308832982969474
Ni 2.3116628808330955 8.523587424898746 2.7704928394649 1.0953652800304166 -1.8518625058374623 1.3897995294204453
Ni 7.775413532686507 5.877355256478968 3.7628841978149743 -0.6111802749033797 -1.0380204235623607 -0.14852465920768615
Ni 0.11232404622199167 1.277411084161275 6.6923783140641016 0.6565764436499918 -0.481003779185578 1.4102531692891067
Ni 5.388559896541405 3.977356215938155 6.290000569019792 -1.8515326333018696 2.183435826171633 0.28613447127508146
Ni 3.9884093309028987 3.742144820480206 0.47067139358525517 -0.44978467327029636 0.17575084191349089 -0.6411346551736249
Ni 8.31367065791781 5.554033160290357 8.202579459134192 0.7520949829742918 0.41686272573129496 -2.341391805995548
P 3.8934597463311746 0.6904038072251018 1.1062966654169384 1.681748550494775 0.33453343140375935 1.7109930491821888
P 2.6298188472012285 0.11814079418086296 11.71061634730594 -1.0259454946756976 0.13657571437592608 -1.1915710752297286
P 0.4059977326126126 2.6130173731160236 0.13072064375444983 2.2063608103989227 0.4522246501703566 -0.18391280889899292
P 5.758811522655578 3.0006896695550647 13.206548253659003 1.508891228078995 -0.65945222253589 -0.9309766572072806
P 0.3803408281267238 9.090660279611715 8.504173312351558 1.7929868145471768 0.2917932122227555 0.4190756742222137
P 6.9946994918196985 5.894082796684811 5.827119957972395 -0.7176483712606478 0.48009258022521833 0.17513094894130485
P 4.746268561311671 7.459937669445277 3.017157517009645 0.13718403738388632 -0.1693796482798244 -0.7842330011594172
P 7.530840259754239 5.9086662543891295 10.133514283147402 -0.2248817951121869 -0.9255847967677479 2.0969601137758915
Ni 5.4663290958961905 4.775592586213956 4.11758198405819 0.27081352464729486 -0.04764331290957602 -0.4220362995124345
Ni 4.36773634070886 3.4461690179209246 11.338916541329748 2.8254096894171017 -0.5860282011177842 2.751167028752443
Ni 8.842418037916065 8.305066602706958 5.122011626315517 0.14935975351447178 -0.2056625418712587 -1.3946373171287207
Ni 0.22087838876997065 3.664819224401598 8.62653203435007 0.8474553994541727 -1.4681796092922454 1.712706946549502
Ni 1.8883821797459277 4.260643116451789 1.1772537819619302 -0.6469656600331052 0.26503882694704683 0.13947848984501784
Ni 3.2282026998243576 3.1168767609737644 4.821756900488112 0.41987297331252854 -0.32999543432408973 -0.280391141033401
Ni 1.2148815056901543 7.643515491903204 11.85116742449517 1.8793529979482473 1.3317303931918547 0.03800219027538616
Ni 6.6400479142510855 7.047137095757792 11.758161376777197 -0.7183932198464724 0.2818558985043855 0.40648318226918384
Ni 3.0441905158251745 5.9760385019585165 2.848566091898565 -0.04954901457272112 0.2703034177800958 1.0285685341208415
Ni 1.0606369498694337 7.388859486172829 7.231032833896979 1.0816983240662854 1.7662493985523322 -0.749106075549297
Ni 3.1491858662553245 4.053933231488214 9.821735113874313 -3.270355546537858 1.4193983261234846 -2.6544871221301896
Ni 1.647496359046881 5.455802759821906 8.08154692609675 0.6470188818685438 -1.492227908490701 0.5280133151658971
Ni 3.98452780223635 0.16950820521517873 4.634513805960773 0.7222866413636077 0.6270038721991975 -0.3867077994144695
Ni 0.47760269477552125 2.895925362497923 2.687929028033435 -0.35284791344223104 -1.7981313348625934 0.06985327334771196
Ni 5.04741049369143 5.545124127827135 10.415670919480275 -0.9921347167738397 0.7043763367420901 2.2769239653294657
Ni 1.8353715882427726 9.180600843856606 5.244153167543402 -0.9431870832305433 0.10260347119553942 0.5543175002780647
Ni 3.3521990572507576 1.7785903688921132 2.9860193395424934 0.39429229662994675 0.1786811281864084 -0.7151945104035167
Ni 3.0124081894340744 8.947496563960499 8.844858780108531 -0.5691224265013811 -0.5741538182777016 0.10825501305436194
Ni 6.488113792160453 2.1696636237818447 6.9922809297910415 1.0664419121278472 -3.510108345224606 -0.9443546211760833
Ni 8.054587861160584 7.968815319364771 7.35784052708615 -0.6258874992065673 0.010310123676756437 0.2415659406360872
Ni 4.1750923762940655 1.4320900015232523 12.640435615204261 0.028954478250821102 -0.6615674691066801 -0.2449060607529137
Ni 9.187578353721475 5.763312247561791 5.891463689008382 -0.3130757757506157 0.8555561741844362 -0.18054672064023744
Ni 4.772792340533089 2.963907564572053 8.39339448420825 -0.13585426282886925 0.24201871190278965 1.6402632867667946
Ni 7.169303589669961 4.6245179454709175 12.113792578247368 -2.0518339108612147 0.0037877491772063793 0.07144684308707694
P 9.115844007269681 4.739115458483316 1.8615451057107093 -1.2648536859739636 1.1801468925531868 0.16516638152942523
P 1.5619456188891567 6.859862579331723 4.638057087129236 -0.036170536383286093 1.3234558118878883 0.07246551415957843
P 7.360579777316543 8.906500227853805 12.744519730571263 1.07450951962733 -0.4268139234067359 -0.8170222797752961
P 8.388112832701268 8.7568488142885 2.7980590863853343 -0.24975798952857628 -0.6429315991730475 1.5936453297979392
P 7.214994727116195 3.08027949068916 3.582552996834568 0.21141512808431975 -0.15172054043716451 -0.14859536454462152
P 6.957898903366846 9.381007865604499 6.007410495319153 0.20537046455213664 0.584526162650961 0.18057294589248254
P 1.4116380421445072 6.84284854534335 0.4393030969185871 0.32866128889369844 -3.4183186768151197 -0.2552061571273411
P 7.4723585611782335 3.5796289119057674 7.965479053058523 0.009074451497442437 0.6808265744466082 0.7232477197252963
