# total energy = -381178.8228212306 ev
CRYSTAL
PRIMVEC
9.04880801228138 0.00000000000000 0.00000000000000

0.00000000000000 9.04880801228138 0.00000000000000

0.00000000000000 0.00000000000000 13.24384519351385

PRIMCOORD
 96 1
Ni 4.9012325727612955 -0.025086010481914577 8.387565471755446 -0.4345344319794452 0.40721440400825354 -1.8182841556613847
Ni 3.050751332076113 2.5965283157500783 11.526688367864104 -0.6987844444766095 -1.6994986753893442 1.4560350035099117
Ni 1.0849339843309145 0.4558807579558319 1.8350276863436559 -1.5832567874747636 0.8006392104315824 0.29643482475982497
Ni 4.693978673804555 3.789179310785718 10.340821264203239 1.3202208498903585 -0.587785035907891 2.029249083582163
Ni 9.039650629191241 1.342399719006785 7.749278841673784 -0.4361400859036682 0.7214168371641447 -0.5707144535788494
Ni 8.708826207873635 7.254194122958693 5.790089745805369 -1.3265573336313476 -0.044064337309066046 -0.8226905338046671
Ni 3.471783320574112 2.9302664532510603 4.207861323840167 1.6438813431353558 -0.5983419854881308 -0.5048209362098339
Ni 1.3501274010583502 8.746161589776165 5.3480762861446465 -0.14447568594929314 -0.42324009001254853 -1.0704978273647756
Ni 0.38972130297712454 8.131331279851493 11.909540720671036 -0.057322230760236764 -1.5044540182432478 0.04413272865315625
Ni 4.048120001169323 5.932950517109473 9.722637466025276 -0.5518320148520496 0.5116238180642801 1.0800461331748432
Ni 5.647704941803267 4.340532232429673 3.7009127129262382 1.2072416918874498 0.02178392864431087 1.1785620645645702
Ni 7.974823096287234 2.3716654363807543 0.40732394922409226 0.3144893682686906 -0.16824219224127154 -0.0027526230444726786
Ni 6.532624073595771 1.6293283726052514 6.806899778935802 0.4544717943333205 0.2156139966570158 0.6270383249815588
Ni 5.679801063860531 0.8217837884550516 0.6287591401143379 0.4598970791139499 -0.30273839838034955 0.14456438900835747
Ni 7.417136009027241 8.426123347621868 7.438299361231224 0.2581027619488458 0.6057151380237504 1.7266950332984778
Ni 5.082063952291137 2.8956185673313364 -0.10321613359413007 -0.5713446309636805 1.7489898401409363 0.749802073175057
Ni 2.0637073529370435 6.41223873165897 5.362088365368123 -0.3393380518812543 0.8254115322802559 1.1541625526742834
Ni 0.7256501569004535 8.084395112636656 7.553918695982357 2.3765634688006747 -0.8424759439617103 1.049089794002645
Ni 2.322367530271938 3.551575709720136 0.1926174519796828 -0.6236586098760485 1.516711238344046 0.6236161866738873
Ni 3.0153071510503726 7.170067354769695 11.752879612251192 -1.1285263401634176 -1.974575089078051 0.23397784387618414
Ni 7.2022720625232335 3.644868920436343 11.927870891083048 -1.435915349941901 1.5729152963394395 -0.19616411546252022
Ni 2.9354514202481883 3.4736654726428773 8.837180835036214 -0.44505975699080125 0.20691595466238558 -0.3305726469837984
Ni 4.213061673810934 5.093121595695133 12.657540528507276 0.43666587650015126 0.4991190007290501 0.08388018375442328
Ni 6.88165469665547 6.342219055177689 0.2370063797360699 -0.914170127172903 0.010436107731659447 -2.7737094328293326
P 7.851732160751583 0.7723863454579836 11.399573427400664 1.8880402413095998 0.6452224520897533 1.520642455077652
Ni 1.1873212471101457 5.0987771007094524 2.2117349936222306 1.5978403417158935 -0.4995242065872687 -1.4003971024306334
P 4.729278073901929 5.668236687207252 5.496407966779403 0.5277340933625815 -0.11811596500884174 0.5637709323814808
Ni 8.30468834395441 5.8670209018545485 11.225509651391159 0.5516137281936565 0.4740867403507706 1.1032233426222549
P 6.693982418260308 3.9711236937023786 1.140148001125109 -0.7175092745796224 0.402860497914932 -0.022546774952264398
P 7.858012033519484 4.705018219592505 4.486882224107413 -2.197903937880821 -1.8874787123791752 1.6251657690037238
P 1.2538209372705145 6.115202559498912 12.590671646979574 -0.24299367422154924 -0.15202701593398982 0.0991147413159906
Ni 3.038209684156359 4.420089352567102 6.181723966798536 0.35679275702259194 -1.1272963244110585 0.05043398828083573
Ni 2.3237791443235123 0.9343889652537536 8.127125393882444 -0.7076652919060071 0.7666230013871377 2.33462029159967
Ni 2.266997873979749 8.97246322962113 10.684392741382718 0.231200281131047 1.046449271056004 -1.0306277306427154
Ni 7.2555062001220145 5.8338027276024444 2.297012770191743 1.6440723761002394 -1.2569997371471835 2.517762283770909
Ni 0.6332663513905495 4.377288490618736 9.495943107912115 -0.6744073011838256 -0.37645064046283555 -0.6608146501010556
Ni 2.1052323329541793 7.317110485141989 3.177516083669065 -0.532383933429767 1.2733591523418133 -1.1490835954894791
Ni 3.3885161891472904 2.0365247336362207 1.5722430623119188 -0.7624115344089515 -1.49266962401381 -0.5415046647841125
Ni 8.731665399323463 3.012257702746652 5.800287752447188 0.5403654089733467 -0.1984374848777292 -1.069888218805235
Ni 4.765925746394716 8.228615014905802 10.519427541840248 -2.2005840558161456 0.43838543029441923 0.704342398180361
Ni 5.664852433006683 8.532564476395365 6.068038362321898 -0.8554535871683009 -0.4610440482341996 0.24789085441285047
Ni 6.260164464025937 3.893430628017669 6.097665064669709 -0.8055435897117353 0.7727303998364563 -1.4536292222818965
Ni 8.695994998097149 8.288898173954431 3.610855355959025 -0.3598186883331093 0.9297597540810438 -0.35655544420080526
Ni 3.3227404036287544 8.813059427489542 6.64917815021567 0.008866449251694407 -1.4662839349314296 -2.277750574995819
Ni 5.696197503998045 1.62179976433019 11.412260761129586 2.0055280858161395 0.17052096097311922 0.9843859260663563
Ni 7.946473180751456 9.012802815787266 0.41051546381377274 1.2211169072076453 0.025030974826698825 -1.3337713348812834
Ni 5.075937909259626 6.446126517704769 2.2997011710553497 -0.9523684926194954 1.0202332747822689 -0.6432879540712019
Ni 6.238040128409922 7.1612085717152665 9.139233666364172 1.1848787508112175 -0.7435118692909711 0.27786786039091504
Ni 4.032293635937253 1.489940533820339 9.951795814563077 -0.5274422731537756 -0.6303499058532951 -2.523222535554532
Ni 1.912239355441546 1.7865423631952972 5.794380690569832 0.7164263259280887 1.8741323729792563 1.0398150535689383
Ni 2.1136929684556005 5.7681083813561145 7.848753293150442 1.1564284658903246 0.48806659956963044 0.8972298997741387
Ni 2.873014644890106 6.395959926025754 1.0645850248489934 -0.11282540603386375 -0.3854741841176845 -0.3808312860290345
Ni 7.910676096212821 2.627149482099607 9.979753916711463 -0.21336453850120674 -0.4178091488049644 -0.2060464075732387
Ni 0.48625760648874217 1.662401765928989 3.946228613069747 -0.5701344127056632 -0.9105736680708962 -0.6268496060095204
Ni 3.455441173284736 5.500281761494011 3.779674442838453 -0.3485022348790256 -1.888634166139857 -0.950300811457189
Ni 2.3469350440541397 4.624221412755938 11.217881506227844 -0.8508538836127605 2.141699108554479 -0.6240283345106413
P 5.71975155128168 2.3953371181686873 8.739679928589354 -0.083125822086902 0.6171922854254145 -0.27678542596001365
Ni 4.52576133265865 6.787031311159897 7.444842554312591 -0.1466258995230765 -1.0005406814493478 -1.3058141875467253
P 5.947139048089396 5.474736976445334 11.37847613149525 0.6119850301928622 0.9143207938181545 -0.426562212407246
Ni 2.5478095333547284 8.722109858051269 0.3538463986894939 0.5527650681892803 -0.05408598321112621 -0.4149459683245563
P 4.387133593747662 1.0419159509899982 5.033270064789197 0.09034650820505731 -0.36660511512732347 -0.7540359087507464
P 1.3968644944966826 2.8991023584201567 2.025010125427067 -0.15888491939608768 -0.825985659616171 1.0555419773858918
P 3.069238046866919 7.650504767938101 8.77994079012569 -1.258700007667742 1.3065896322601693 0.5374410362377001
Ni 6.64523648944089 0.6178290849034643 9.671689057333081 -0.3777822147900655 -0.6733145823402791 -2.1899247763300864
Ni 4.757139353804469 7.845343702287408 12.955619123351573 0.8475513016020888 -0.8648465983474267 1.5589891731766505
Ni 8.366826508647737 3.433153959124308 2.7579907217068804 -0.1257997068063446 1.1199504255689487 -0.8051527820312199
Ni 4.404552549191765 4.112212708395598 1.8773019076650888 -0.45701641513204516 0.833781758621822 -1.1985410787896584
Ni 6.539283996300632 6.650077601733147 4.646430807167369 0.3576540765816228 -0.7699577221873255 -0.7671220525107433
Ni 0.8879794386658506 1.2235526744338792 12.675803737739917 0.46171047817360483 -1.1868546435906657 0.2874164233112986
Ni 5.417159410995556 4.620221839609812 8.370361877942287 -1.9460782671899386 -0.8293080391211846 -3.1650904693497552
Ni 5.380756056319387 1.965057247871274 2.73950219715447 -0.1767034356347473 0.7111645633085172 0.5418849309416667
Ni 7.664494225141521 1.2712036974825254 2.396619334265534 -0.03471503488368215 -2.040465521123273 -0.25852030910223867
Ni 4.2699696274670185 7.653545167433799 4.334127486111058 -1.1356038158354893 0.12284242395023362 1.1972174748822284
Ni 1.1173649122850253 2.0207979052924023 10.075215221829959 1.0126811734666237 -0.9898626329102113 -1.420274815191167
Ni 6.829443074363278 6.132395294742442 6.938622372444506 0.22151082175742495 -0.4200987161700895 0.5804324521975618
Ni 6.69750240458122 7.979266061026483 11.593768086618741 1.6625223552753112 -0.593309822380862 0.19209843003357885
Ni 0.16927605168458537 6.012552881287016 3.910152825244008 0.7677964528699487 1.309856475936899 0.20294514294009566
Ni 4.400580122469707 8.91779938035473 2.385441341714833 0.7349567806321085 -1.504638109229596 -1.8388218706034203
Ni 0.22996640709424557 5.258533806353936 6.68067252653941 -0.13156540564552827 -0.5542907608051874 0.035326186105119804
Ni 0.1162455122663188 7.1267959548041375 1.5393850306191263 0.5401383805642053 0.2427103386531755 -1.0168538167870746
Ni 1.4413212883132416 3.8614068964245893 4.213489682430418 -0.5740178069204694 0.6132281585713438 0.4400520193635647
Ni 7.194607722127828 4.917031791569297 9.431007956658908 1.0256832421532465 0.5499774781418141 2.5469533035125687
Ni 0.4654942115993719 3.1295935963797317 11.865730011747313 -0.37153263433592787 3.0663966176212676 -0.3045371421519852
Ni 7.006808760420345 2.2133746376359817 4.351887581617624 -0.00788711605756061 0.2656610339120779 1.5679481821421513
Ni 6.277854883710726 8.954338467151242 3.93506419373108 0.5527596688726415 0.491578983598263 -1.4208782531031205
Ni 8.8024180292546 4.783082286406154 0.34439310894795944 0.22426061658842023 -0.09993698010696982 -0.1565426444161562
Ni 7.833426422121235 3.7061474483674925 7.71648686627956 0.166179653285288 -1.0749136970442843 1.2793243687863127
Ni 8.719730021541244 8.79897043339787 9.524364509031274 1.0489185585321033 -0.7523124983017365 1.4391384848648892
P 6.628134242277589 8.044498918063644 1.6449122297823078 -1.1435703789807339 -0.5937901044513902 1.5561545319413328
Ni 4.113841493839721 2.1659588835959314 6.8825351456761 0.5845783560451352 0.4111651611258854 0.4960725005932424
P 1.196388152749102 3.2533631925171003 7.521140293800167 -0.02145045656429209 -0.05334190595625007 -0.16455677296988433
Ni 1.3404542252818588 6.583885571045558 9.978482559184245 -0.34293656786579 1.2468125122015365 0.05525326404635
P 4.023715365931533 0.7494249950998484 12.353978356001097 -1.2467220093702593 -0.3427866725514871 0.09928700522779674
P 8.460345939564515 6.456252133882407 8.54103506558561 0.531096324966595 0.5499070299151948 0.036708668274943235
P 7.929081371731422 0.3261181362648895 5.564599784040056 0.46242113108738425 0.672862325294209 -1.1763856257385417
Ni 2.69698818242043 0.6736964256369133 3.454524529032015 -0.49615503300471975 0.5696790703357996 2.2529515136742684
