# total energy = -340897.37004482665 ev
CRYSTAL
PRIMVEC
9.00913016011721 0.00000000000000 0.00000000000000
0.00000000000000 9.00913016011721 0.00000000000000
0.00000000000000 0.00000000000000 13.18577264616724
PRIMCOORD
 96 1
Ni 6.247354390120033 2.100001249228577 11.527398458229605 1.1768029157816184 -0.37077981533030335 -0.29723700894614613
Ni 4.62121537724338 0.18432049987062138 5.874552073085909 -0.4463422232476506 0.6451404338989083 0.134332169757388
Ni 2.779091474175066 1.5569308737904608 4.74534858021305 -0.43586729185825573 -0.07077989892703938 0.23558529757262006
Ni 3.613147749684114 4.225354191165895 4.989008617821904 -1.2169985141638975 -0.0518969459796074 0.15398311121909608
Ni 4.9453638860068745 4.469907033589048 2.7987854330454667 0.7647422394246572 -0.5667600969167917 -0.42855764557072
Ni 7.389477876778821 6.1581459817327024 2.6281092610381664 0.037518565770748295 -1.0578096903741459 -0.08669528460571521
Ni 5.037139896534216 4.462988021506492 11.406537371390645 -0.06377878501885789 0.0369071574389945 0.09747823415383212
Ni 5.6268955852689535 7.9170165115524505 12.349650070285822 -0.38216825967290313 -0.5643800267203893 -0.0835395125855529
Ni 1.9172510407720047 6.447411137913311 0.5403559244739575 1.5760474142105179 0.3134501283708989 -2.172182107634685
Ni 2.4694296469594232 1.5074707483565648 0.326697191729842 0.8480950899207007 -0.45735168698427686 0.3203995631055385
Ni 0.5135789873492533 0.10322391241966336 4.489307294811152 0.8121500392846595 0.11656301869942505 1.1167517161259928
Ni 8.631179280818458 2.4239065114735445 1.2529475014128848 -0.13641450620771345 0.3054534833186675 0.17745214087531375
Ni 6.740784457517937 0.7271034840516629 4.710116574286941 0.8827887846481441 0.030705399503656795 -0.6036070905418122
Ni 0.7664247342281262 7.312071429105227 2.320815033269523 -0.856091734972932 0.06403229579056069 1.454600327945914
Ni 7.691860326699275 3.7846906000277962 3.685119889951201 -0.17867521464913744 0.5858919326502361 0.3213891807123175
Ni 7.586138182443032 3.9278727081372518 12.539379651998068 0.8524410255942222 -0.3192875609882824 0.21532526177200334
Ni 7.8052492408542875 8.809037531513535 6.88098274166679 1.641080126241135 0.02718864459964995 0.6606799242954041
Ni 6.872705152732607 0.6329652795555123 0.4259165457241198 0.03462607471430165 0.5521130364275783 -0.751313624723577
Ni 1.7592849498142753 6.619701746073208 9.219980001739717 0.5175676943525409 -0.35649450905588276 -0.4701357261228225
Ni 0.26313237187348537 4.977094042979221 1.2753874432035492 -1.5666176362561859 -1.2260223149290628 0.620094546673874
Ni 6.507267799731673 1.8772144656484648 6.945658387291088 -0.19176187262976652 0.24463403803844966 0.8061192597095471
Ni 3.4650376472919002 4.35242797427065 0.5696635263043779 -0.10705225099551241 0.395680435226725 -0.7571436011417929
Ni 5.976521914565609 5.6418867781144915 4.849199528102694 0.41187478559840035 -0.2343910201542028 0.37705099305099576
Ni 5.205268286488199 2.7779833511462195 9.384630867391792 0.09019995532486401 -0.01453341772948465 -0.7316032907788432
P 0.3570660691114668 5.5007947882383075 12.392358753461037 -0.8006934607082855 0.2081086894189061 -0.8880240649051545
P 4.0423877635817425 6.11023542671313 12.511690089972369 -0.1796298652529229 0.7564164931677811 0.4722615142165738
P 2.3823203659356817 8.421311590111243 1.3940394912890681 0.3629009268028589 0.5290291580249211 -0.28326974813277667
P 6.395978012940248 7.828790098369546 5.731130322110052 -0.8168744413435222 -1.541826288244119 -0.7170297638400426
P 4.605332280496576 1.0803388709528396 12.709093648887636 0.4194546548281873 -0.18601905660871834 -0.007067191259426538
P 3.9689903788986913 6.351563000483217 8.134632955244308 -1.1900878058159827 -1.2860393189126431 0.22849008128873552
P 4.651026589458455 1.088131768676031 3.7335385599205875 0.7097890231172291 -0.9069736094244638 -0.44266246040321827
P 0.2726757436170421 5.47727194898368 3.6414886718316457 0.025798449120342664 0.38675793592611457 -0.40775125034833004
Ni 1.3090446531504512 1.0613656425077058 2.4408580910758064 0.5593054404109593 0.3482752064698841 0.2698653018014126
Ni 1.8321507958086927 6.40681599671019 4.848909434106525 0.1414664668093241 0.22779459788360765 -0.5531867291077311
Ni 5.7773480615432815 5.51974999842281 9.174739752945754 0.8418033433747181 0.5382208518265182 0.40589671363809454
Ni 8.507871314185719 2.3093644286381063 10.055048002583233 0.4964944186220095 0.6143954394065676 0.43933288180935304
Ni 2.2902380449776034 5.2557554527781 7.052331895708681 -0.03046757246123785 -0.5316920495690649 0.18003789932461897
Ni 0.5708049831153932 9.04669838924508 9.003944660418286 0.3256908934114649 -0.7553014057267314 0.5942824707067765
Ni 1.2893326760194195 1.1106455853352855 11.263576887886957 0.29342714828175276 -0.9683427565605647 -0.12935759936093208
Ni 4.094775856368282 6.68000886440736 1.8134784723161077 0.4413769088225754 0.4881038805654691 -0.8988278403888778
Ni 5.559471253985296 7.854691348027552 7.864205890554098 -0.4307235428737872 1.2254124492592058 0.560832675688763
Ni 5.304963322563153 2.681837912415702 5.071274590387857 -0.3072288300515354 0.4272854637265157 -0.4721265313006062
Ni 0.8129577932224098 7.354117040289196 6.967348769439476 -0.5154910143291702 0.7254784088280279 -0.0333448940090329
Ni 5.047977880304156 4.660287975423127 7.0496282557009025 0.3513281343635949 -0.46733322367702096 -0.28992659132766196
Ni 8.271156415137336 7.031193773248655 9.381980381252875 0.04991693943510113 0.11058237563595795 -0.6613252711888868
Ni 4.7516495659559395 0.5586985137969834 10.523592149309724 -0.08929518412240751 -1.7026397921214869 -0.5060926038334058
Ni 8.333941044308341 7.213998036487122 4.743581889758116 -0.9247365898348395 -0.863577758937332 0.35235271897336734
Ni 7.085717029920046 6.249687754871832 7.171201063834813 1.4632148090878025 -1.0434984159577965 -0.8970136699982745
Ni 2.3048959000014553 5.133636691347051 2.5612705232250383 0.3621941305438214 0.7666538546250732 1.2855302404867086
Ni 2.3188600519909888 5.253277941941247 11.390292107605143 -0.21700522057758756 -0.30384397273970254 0.26295700471735356
Ni 1.2455663209451266 3.362702936034409 3.781850922152247 -0.5710191293034617 -0.49167848529060487 0.23424138195021596
Ni 3.617327986150658 2.445104995106688 2.367426471697555 0.27685484574536834 0.25003541155967907 0.4409853298111115
Ni 1.0608881586009669 3.3822077031681768 8.220525102762382 -0.12395108363338007 0.13348524837606043 -0.7490515681622778
Ni 3.5362007676566263 2.836803962978261 7.2837548316095475 0.2771104133996002 -0.5035173869070618 -0.0300515679697418
Ni 3.911836456175078 6.861479776359086 6.009389924696845 0.6493894389832493 0.2244277382939038 -0.3625926515338207
Ni 0.8823848541752757 7.3971266284169594 11.378082934201133 -0.4583703580567783 0.30443609779774666 0.40805875428641986
P 0.14421365353061796 5.5934446844062835 7.9557413573020055 0.13328753054295753 -0.7677344892837616 0.6214988832205683
P 8.625584610892329 1.593769207651882 7.92181477435866 -0.9619250259596787 0.7500296158048309 -0.294689302823628
P 1.7743662339629713 3.3542433626678463 10.252188494893277 0.8500920657460714 -0.8807779248657024 0.40871901357823803
P 3.9306655385351585 6.037648863758503 3.9341998203580575 0.0853354281437111 0.8270881486517304 -0.7437597236357191
P 6.861903205483929 3.8892685847339283 10.292748500488168 0.29071669132912514 0.8286434089539921 0.49407629609882
P 6.268246563322438 7.620940452853077 9.961930532551865 -0.20036246981458397 0.31952564514101744 1.346494438874907
P 2.258129504531992 8.45854632570656 5.754680188755627 0.7005577343269485 0.6419090714458041 -0.4979656038508972
P 6.886056683860664 4.093343404648066 1.6368292469094137 0.2713547418627456 -0.9883695933044525 -0.17256601642760602
Ni 5.284413496312749 2.9687697038445107 0.37798436879178804 0.6058282665628469 -0.29263833383187027 0.5321929004648834
Ni 1.5534353312279194 1.1588984873068606 7.028109047028515 -0.038884592880339484 0.3608283605445463 -0.8367313281684492
Ni 7.025833340710737 0.7150411594718007 9.210763661426626 -1.623253125362043 -0.6071585553384963 -1.061175007301953
Ni 2.8583177661724584 1.5220475212075746 9.348053798309529 -0.4492699384174069 0.5126787416913557 -0.9799978243009896
Ni 6.358067592571245 1.9676661340193786 2.5083824237059695 0.08556682742822684 0.5183804200618233 0.2032423624655403
Ni 3.9568190438420077 6.830533413724217 10.339874360257232 0.7252449526609832 1.077250829817893 0.31415923862278156
Ni 8.007639353399364 7.112816493910057 0.1344432517031024 0.45618260637684016 -0.49939950808394645 -0.0383595736148049
Ni 7.588759839364939 3.834330908068009 8.179847077560355 -0.0022916242476541176 0.20207122497557456 -0.5790060041636803
Ni 3.120915896618215 8.441383932454908 12.413785168091172 0.03655414497494995 -1.0669401919205044 -0.15606699033131832
Ni 0.05010878281663577 4.715531962519785 10.211827591078368 -0.18503509542889424 0.586855582115086 0.14170789339616888
Ni 8.62445846960285 2.4319246374546313 5.7231788636933025 0.3305849882789726 -0.8115730837352667 0.2431260860343555
Ni 3.5355340920132545 2.576782443802831 11.43351521212139 -0.16819796926689742 0.5703424149514114 0.4889960533624353
Ni 1.141898258400893 3.113798683668711 12.414629323601766 -0.712097873756064 2.0835793215936116 0.3964304260188721
Ni 3.094555181314102 8.491934162657019 7.948238553574984 0.2524342508091588 -0.5535091454441564 0.061401028815300705
Ni 5.684022480601619 7.6587067271370275 3.5797527054294025 -0.5331331528909656 0.914157785877729 -0.00989026253051845
Ni 3.1284835660835104 8.255615665342532 3.5008885804707064 -0.14829557391601556 0.3614102011899453 0.8044920085187693
Ni 3.502389501581323 4.448780622998432 9.336872566674556 -0.5887435431664183 0.10332697962512527 -0.5450712990894484
Ni 7.17975433215666 6.023270291774441 11.316663188272976 -0.26483596690762135 -0.16348925093731842 -0.24408999260952155
Ni 0.3594579932103192 8.966571184216106 0.30847172110092175 0.7672580638679753 0.6434992987510595 -0.23862125618546645
Ni 4.746550398197181 0.1851529435118039 1.5892286059727045 -0.7113720513336329 -0.03557686866334518 0.03638830882104701
Ni 5.9496386697031785 5.506578649901069 0.3706563421928935 -0.44663198657392755 1.3227659849097155 0.011500801550747935
Ni 7.7985824844205744 8.72448684349949 11.19873006878666 0.3713441724742056 0.15365786666919345 1.0151455758467163
Ni 0.06289183782176422 4.795533039724338 5.780537293675085 -0.3586187544877372 0.40020634812153655 0.5027910502639986
Ni 7.953548534983133 8.83720908201113 2.5010111532815587 -0.2360488674725999 0.1321341336648047 0.4127250494138376
P 8.506799227678135 1.762023725430287 3.5555307576622672 -0.6491259009092175 -0.5427786464005298 -0.475728903939884
P 1.8225470628920202 3.305413876356058 1.515058237908555 -1.0917171417548681 -1.1307606288105752 -0.3741888410118523
P 4.830101072746171 1.0238516238725976 8.119957081959825 -0.36520977744169364 0.1610698428625484 -0.14367247332170743
P 8.40686995421497 1.680797406502781 12.235803492310767 -0.7203439158149401 -0.6714081093461857 1.0842773976473714
P 6.384626508742305 7.630472112727222 1.3907962043753699 -1.1204075677110252 0.4645975699134128 0.11090684885491221
P 1.8106189743538637 3.2168631344817844 6.000911432156619 0.3091152484409708 0.07238195330683664 -0.20572399123681345
P 6.909633577897186 3.915277943955724 5.940797109211224 -0.15482540461473338 0.533969275639016 0.2422822499768214
P 2.441879726453621 8.554889965304026 10.214516816477643 0.0030608983135108573 -0.27013372497145094 0.009100676749687552
