# total energy = -381174.7077179357 ev
CRYSTAL
PRIMVEC
9.21257891275979 0.00000000000000 0.00000000000000
0.00000000000000 9.21257891275979 0.00000000000000
0.00000000000000 0.00000000000000 13.48354046058115
PRIMCOORD
 96 1
Ni 8.25227805019586 3.681060916000802 13.149782616845766 1.2281902691146591 0.041687095326141115 0.0005003366751862351
Ni 5.506210973621635 8.998948352899397 10.250969140527124 -0.4940660116861749 0.000787271787985741 0.4668945934777056
Ni 0.6642398322415908 9.061805778350003 6.170755742222952 0.8850220448540371 -0.29051254573811897 -1.063170440465427
Ni 3.7940808332553884 3.7123744714905587 12.6292230855085 1.0692061051365458 -1.441491558478098 -1.704019446077833
Ni 8.428920036945081 8.381502893636526 12.323551561990099 0.09565712178469332 -0.9204343629150601 -0.02532896568309186
Ni 1.4445415752719597 4.611503741478586 8.422736554025187 -0.8564002673522864 0.16196432965235977 -0.4686611984598252
Ni 5.166100987869694 0.790244879376381 5.3072561209129585 0.6135472324736594 0.6113216855772504 -0.6181777892671353
Ni 3.8483613478025047 5.2126429361880975 8.773928350868223 -0.6443256513070968 -0.4857076124191506 1.1204523049060318
Ni 4.102628523888792 4.770162774324893 3.305314832765636 -0.16374379015028573 -0.7902537534322003 -2.9690186564907255
Ni 8.12952964968232 5.01535556025013 4.367345528157497 0.04523316080618661 -1.5770457735680452 -0.2679251473559063
Ni 5.6903796372861635 0.4989118135703256 1.2951264440374282 -1.2495432808691382 -0.46447158585850973 1.3283522207482412
Ni 7.7357656047446355 7.224614880180447 4.7332488921560465 -0.8584142124585216 0.41745022280364885 0.8065082676178498
Ni 5.079806761840699 6.391180509926886 10.487497496049857 -0.05218362398209078 -0.9842067201760147 -0.027901354395958398
Ni 1.9994612619225967 0.29574404855642183 4.201349597520062 0.6955420262799119 -0.10111660223736779 -1.4327240966981132
Ni 5.523880699843863 2.52414526480819 2.890345273845507 1.0110189552728523 -0.5309726549045372 0.19967341416735934
Ni 8.311330680584017 7.630023624776577 7.470986876197678 -1.581820312138553 0.3755492116944887 0.029382052706542944
Ni 2.428131768099085 2.886540478783057 10.838609143456953 0.4299617250070982 1.8245419636456384 0.9765232354888279
Ni 0.28498375646697316 3.867901227530005 5.832156619401379 0.10752456264624062 -0.12755397049328998 1.211336430782114
Ni 1.5318307598160752 6.531506510874218 10.09678557848309 -0.4095111704622302 1.0753613261046642 -0.8149607692605771
Ni 6.827046040180309 4.578458221166213 2.467946691345814 -0.3459506721017655 0.04545093324394753 0.12978774491981518
Ni 7.6258134762450025 5.823630377681529 0.5705073700541875 0.20784386579329367 0.5176857079876439 -0.024790062460486338
Ni 6.499354610709683 0.5506257036515854 12.616062916630266 -0.3061512807166405 -0.05558879300889781 -0.9954815217588857
Ni 5.464072637990523 6.650496179219526 1.7519975753123853 -0.14087485597191224 -0.055386190079788476 -0.02314532776821175
Ni 7.3136452421260225 5.17797600199923 10.605950992306461 0.6419512375376493 0.6311289501111647 0.17003013737962974
P 2.891662672620157 5.323221520049101 11.047280503072086 1.1366296859968426 -0.6869925940480038 0.17199420308453606
Ni 7.358197273414184 8.165053353703652 1.1519353310697042 0.327264665656488 0.17723693954071412 -0.2715822844925194
P 5.716414385098477 6.297663622084427 3.9744483868890037 0.8707051140107327 -0.07013892290893083 0.004136133655560618
Ni 3.110406144685115 8.121302816774891 6.5579622735396885 0.4040897423363427 -1.2156206599797645 -1.0465150912969332
P 3.980847444153842 0.7982331064917585 2.9472992787730674 0.27176894658202877 -1.1791459620924982 0.4387692959963992
P 4.880990097814677 3.0761998394384342 10.040706768545682 -0.9007124590061005 0.04886098736676101 0.2006388634044222
P 7.300342278275711 2.427910666206836 4.438619565639714 -2.1975997763768413 0.5501137466093623 -0.07592621901466924
Ni 6.118488176153186 7.203214059526516 12.360684703535428 0.8107960963599262 1.126107703419596 0.8545889251751604
Ni 8.674453688287537 0.6639487147501297 8.001604701116504 -1.1919271730175667 0.7213070510591578 0.36517146800459044
Ni 0.32045218501524164 8.930443616617598 10.309460724863698 2.5329413055041927 -0.7457469292690769 -0.7074081815898785
Ni 1.8960316392443082 0.35448437252177634 8.327704196962936 -0.04757697844801484 0.4203951643645857 -0.723968914162037
Ni 2.947315861414986 4.521257319125642 0.9573288155752566 -0.1298697631106602 -0.2543175838748007 2.5516044291313347
Ni 3.634583455734304 2.481288348027269 4.224299052677619 -1.0586131601120479 1.0559512970091685 0.5753843482506928
Ni 2.9847649944146513 6.8388289285214094 1.0983135159099129 -0.33011627617267014 1.2029345798716637 0.3180644872144586
Ni 5.042044401160347 2.9012529671964553 6.663228884439412 -0.33095985511988807 -0.1381569428201169 0.396994011831826
Ni 0.6253047102744357 6.500128467332554 5.721821247621849 0.40608954637519096 -0.26967992526348394 0.29032254121449996
Ni 7.125321705402982 2.693721203584288 11.348435099183416 -0.9362828999115423 0.8955928783913479 0.2765969640982914
Ni 7.711591797858751 0.3653653493940776 5.4894192061632126 -0.467879068878162 -0.1227022988279435 0.40306181529246066
Ni 2.5960402301044727 3.6849854745882205 6.266084744323971 0.5757353038322085 0.26827070362078315 -0.402946372760519
Ni 7.587046944470687 7.64591532328197 9.978197578575369 -0.37555306834923063 -0.8534620106595687 0.22782519401122697
Ni 2.9804995704100152 1.1253165057586998 6.027412621704308 -1.3725728811295137 1.8795661424003176 1.0424087824380435
Ni 1.1125570840601668 1.558132672414856 2.138031345342317 -0.18618669253483416 -0.507118473994759 1.1482803828618935
Ni 1.7242078312303457 0.22039344493586532 12.214320778413931 -0.735859494952036 0.3014711016321518 -0.462650473489371
Ni 2.468095935123082 0.05059271923598078 0.8641868796917349 0.44619155660239923 -0.03617362170707964 1.1601357395385825
Ni 6.394837903727838 2.569010523777039 0.5886091662241856 0.5203295733683942 0.022632906908167473 -0.9535607131553835
Ni 3.607397135566528 2.067661983102553 1.182927367557816 0.5006860881058538 1.0333793252459236 0.5548718301196379
Ni 1.7492015576333206 5.10767481284291 4.023637109109203 -0.7797142873534572 -1.86742513616241 -0.49848316691726413
Ni 5.881218208033536 7.9301141680314595 6.278947346905553 0.005863657869628611 0.2938634644882229 -0.5791286457844735
Ni 7.532600603504385 2.4771979630206635 6.6190029784423166 0.10085100728080695 0.9333176466356312 -0.13405654749849816
Ni 7.707142122277241 0.9150707164191767 10.145837954536402 -0.2348049677631698 -0.2693569947064265 0.4743351089161508
Ni 9.11904353070595 3.766931363402986 2.057871775565346 0.294117489480558 -0.6745155446269158 0.5327713986761727
Ni 3.5288506883450896 6.063793095558103 4.972352163465595 0.292094031292626 1.3708540986661941 1.571260791455152
P 8.640385571723511 6.041839520173552 12.152485949214975 0.1549804421353589 0.18727838293711616 0.062339738579486194
Ni 5.705414565959092 4.224557004885243 4.845283063474357 1.3968924317114846 -0.3783380872935355 0.32925881326838136
P 4.268712895283127 8.51711205421588 13.575767656289313 1.049244060192322 -1.3338376693428446 -1.3804761951369902
Ni 1.3954753803503812 4.637741166025462 12.641290642535871 1.1024520116738692 -0.004566793435076005 2.331740913169346
P 2.1550340808562614 3.3808413966421074 2.7355002486404953 -0.2656867449436908 0.1416726692828592 -0.40257510546402925
P 0.21344716048771095 6.4858489701248105 3.5355869259956076 0.5144342909298818 0.320928439025815 -1.5375189191180167
P 6.509672699014635 9.084763524828519 8.377822468388466 0.6435766889562141 -0.16228700309910116 -0.9785670053917341
Ni 6.348489419565153 2.2018247688034447 8.717095030723515 -0.9230666583315845 -1.2529505067784743 -0.1977340310528014
Ni 8.307341633944691 3.4912633666627686 9.203797413552277 -0.7997838044098226 -0.34297641996478995 -1.131516276029677
Ni 4.99432324274995 5.553840006243596 6.762764350040467 -0.13038578351513028 -0.5548954842687218 -1.1911116190948068
Ni 3.904834456114423 1.2390273664265643 12.293361941119276 0.7287719919776352 -0.4363632576580678 0.9565678754128235
Ni 2.3392027445207897 7.376299990842067 3.232409247570199 -1.2219190913939666 -0.08477389921328626 -0.2822189382707591
Ni 6.774488277876967 -0.40471227363554635 3.456478511464703 -1.5543264775936587 0.6459166499433006 -1.0355920166265262
Ni 3.3387122735898394 0.9965062283660011 10.12934743840617 0.4272744079829222 -1.3630119769139557 -1.2864373256820103
Ni 6.071301347315724 4.748144710888435 12.506388086753828 -0.2522815272813784 -0.5272800365442984 0.5743821322384237
Ni 1.4846347183997686 6.936086123374415 12.400663610685575 -0.2629971139266697 0.9857982330328506 0.770560388768331
Ni 0.07920146157722568 1.97145502223773 4.420349179276875 1.722652230687672 -0.5963776626729084 -0.017676077123524397
Ni 0.797742076039389 2.1320579092200584 9.459768916724652 0.4486932399783305 -0.6706542618992967 0.2179634707257988
Ni 4.042534872091298 6.051015248701883 12.758314346555931 0.002828470587730613 0.3152568425623345 -0.375869828258701
Ni 7.879288370550733 1.6740361268475226 2.421805490207112 -0.8892440533551846 -0.338931560471455 0.6454451096235206
Ni 7.488711877892969 5.757640675424062 6.5767043439393245 -0.7051224708794952 -1.9402531758677295 0.3492676522901404
Ni 0.5267301166467805 4.458095878573193 10.755995342676018 -1.5083309847001507 -0.3173576909554212 -1.8478819239231594
Ni 0.48337295683464654 8.231780062268616 1.010997614887151 0.2829319051773837 -0.9213237074985486 -0.3120020830704627
Ni 0.8507908687951018 5.694534510344675 1.386309785658778 -0.252812460084184 1.4791690184242139 0.24433244763763076
Ni 5.771671433003027 6.95797521070706 8.359471011331804 0.32641825849579265 0.6802089954672673 0.969271181912105
Ni 3.5693215472054907 7.94182335574181 11.335491425908009 -0.5635138220653522 1.1250669208599076 0.839762144574973
Ni 1.2643066827736937 7.301908416679141 7.854594052960179 0.6681420370004042 -0.5261772903984229 0.7531352513133481
Ni 1.4547675377884735 2.468657902432548 13.550283820691854 0.12849422291937226 0.11834736429335747 -1.4886121661149847
Ni 9.110088904069867 8.5512630839895 3.2471604288147415 0.39474763899981047 1.3603285165445216 0.12419430999243773
Ni 8.606031865215332 1.1352016028579965 0.3357588847640593 0.04210824202395974 -0.2016611340213495 -0.7994909557597522
Ni 4.375919675287334 0.5873028225441481 7.722644128697544 1.8936020516680936 -0.20813594311241573 1.173933050432991
Ni 6.225925270628487 4.548121199033889 8.538101072595495 -0.5468615582206517 -0.03091931528667578 -0.28498801637546406
P 0.9414610697748573 1.9377461962486093 6.929191429367786 0.3506056543752736 1.1053555584739092 -0.36183109077744785
Ni 3.3395966811588353 7.881757341680847 8.929677130057803 1.1918988908827925 -0.7112095576138396 0.6891201819139681
P 9.324051047714942 1.7010289828595813 11.764308412088113 -0.28711766112395715 0.2425540155809694 -0.3725106819784811
Ni 4.431066172245759 8.038813385808348 4.042743076373165 0.051044368171324996 0.937363791680547 -0.024629625623222098
P 5.241413819916991 4.239610358715859 1.0461988786489518 -1.3769398998489577 0.9727367718632022 -0.022340572478729264
P 8.297281497847365 5.5393762574589775 8.616683448874424 0.6661489178297754 1.205632438418801 -0.3437868316812273
P 2.771539857077074 5.864589503220646 6.979309700793315 -0.8316413152400516 -0.014974876142277434 0.3471030405386538
Ni 3.2314225803760386 2.695001752043563 8.357300527756227 0.0364520721794469 -0.19384575174198873 0.5898640299241067
