# total energy = -340865.427875616 ev
CRYSTAL
PRIMVEC
9.36762105588338 0.00000000000000 0.00000000000000

0.00000000000000 9.36762105588338 0.00000000000000

0.00000000000000 0.00000000000000 13.71046030893568

PRIMCOORD
 96 1
Ni 6.466665417955034 6.051024079223249 1.1023197996195826 0.740710395286434 0.7662897864174351 -2.0549804269099963
Ni 7.584466147851565 0.8654922921787976 0.87196157116298 0.30483718989090725 0.5324376694858378 -0.6017517825006282
Ni 4.6342088906312355 3.463143868374351 7.253450022683791 -0.9073883283643793 -0.8651913832813551 -0.18053206535221814
Ni 7.571932271105495 1.870020687078463 10.897539792862899 -4.239071627277442 2.031693431357598 -0.47719726095529424
Ni 1.174943217303875 1.1684046179251328 2.5193654316854026 -1.9024055088923364 1.9229509371438558 0.17191167067305876
Ni 0.18391169057740647 1.3413964728352044 10.536378663682529 3.1642147516130215 -0.7659416590493969 -2.1852993617429335
Ni 9.011857380424381 7.047720206299754 5.0473687465902 2.8464608536604463 1.8514922669822371 1.3984165816654948
Ni 5.578792942716419 1.4368993677725619 2.754513324701247 0.9467951122967758 0.6739406459600522 -1.7751749831767365
Ni 8.409659871738944 2.763110927150831 2.4806743471380983 -0.3613209839102487 -0.5376199850177257 0.10517920234251564
Ni 5.493819253655432 5.257595957761822 8.748945732625275 1.103939909073305 -1.0531626785204378 -0.723433096263225
Ni 0.7499445620686145 2.8074572444272854 4.334356029866415 -0.4939803939509041 -0.4908480189695095 -0.1338554872312856
Ni 4.4485332770409105 4.6440636278037815 11.141901677782656 0.45912754793777705 1.5418833667342993 0.05516558942855016
Ni 8.451598710447579 5.64233351518921 7.710927156294462 -0.5258625873714815 -0.13363231547688598 1.0380602756613606
Ni 3.050294080666728 2.407534773542963 3.5319790201721633 -0.961957421859511 -1.0856315976824205 -0.5774929099532635
Ni 8.73273038087083 3.341065032982135 8.946198788869165 -1.0676379893184775 -0.21781280408054746 -0.6343397437389785
Ni 3.2453747856270487 5.1908984970502985 9.14550710113554 -1.875949114473021 0.4447309128964728 -0.25821357649509724
Ni 3.0123926865601516 2.077035741048121 0.33238379781719535 0.2164508907360143 0.19869845184859972 0.9352344040423698
Ni 2.2504959770025157 1.3139025055334737 11.853214171315551 -0.9796047026276289 0.6776710595367619 -0.3720473691888173
Ni 1.9014303199107299 8.60435650424292 1.829812047947554 0.9360772116586396 -1.44696980798385 -1.3664243450296143
Ni 3.402891330832705 7.233470760857171 3.251010346352337 -0.7819395771395501 0.7749168659648138 -0.8257226357627714
Ni 7.415717825203055 5.718904448315051 10.19316495935851 1.044057888005692 -0.40316877318397015 -1.0863237386534388
Ni 3.719470078690282 6.077656225403426 6.8819788899557945 1.696123331159208 -0.6347598619955326 1.0916492646314102
Ni 5.575420599197297 8.411430352086482 11.896949719710207 -0.6831441668361912 1.6173329032228663 1.9851168691496393
Ni 3.088991722548653 9.056456623464769 13.322810283030178 0.20140530925680153 -1.0502316209165719 0.3773710953945759
P 6.4068250557323925 3.862429341038395 10.675292987331874 0.6056238638615247 -0.09636417515404695 0.25080802805964547
P 7.2650583784862794 8.154785642660412 1.1937131192740547 -0.49124525440792816 0.3177526124009947 -0.21958995058562827
P 0.8329810271302843 6.971898682844827 9.127738597838121 1.3892871085604008 -0.9789027914645979 -0.3828328898400955
P 4.643370423858184 8.16923051406732 7.906589590511832 1.2359616855299616 0.08280443419174126 0.5331424088623463
P 7.641814722918411 5.880673893403157 4.311624561023356 -2.2680264057295196 -2.581081355544529 -1.4376140778005628
P 0.9984853426658167 8.790022750212358 11.989042800644897 1.2223327818926175 0.01168952052278632 -0.7778870043367313
P 1.9024888610708988 4.215064061687918 5.772720493545618 1.1241559790098639 -0.777030826984023 -0.7889244930978155
P 1.1945871183027603 3.938503790257255 9.769525545913872 1.3778171602475884 0.08143197932424685 1.1845794744032438
Ni 5.710660941934975 2.5922455221819836 0.6411490130933845 0.5514802879395857 -0.6100466755195687 -0.31828071699032284
Ni 6.80794658209018 7.268552501076925 7.911497287094242 -1.0901387415241548 0.9545688427049236 0.38940180130686486
Ni 5.438915627639949 5.758388970351438 2.9632688826316076 -1.0144968865191237 0.1659189434247336 2.895697736309387
Ni 2.444321420764052 0.1265799772281553 4.089693444316204 0.612338556877539 -0.48098578146344906 0.9047778873247256
Ni 0.5307778302850535 5.817938936326601 11.146042166214468 0.11817047239586101 0.012429484012604401 -1.6039122589415862
Ni 1.801384128843444 5.596582054779788 1.8116182546618906 0.8435560643997667 1.5046486507525572 -2.092503877776751
Ni 0.777757965242573 0.7091082923383131 8.231458682853917 -0.45821763452899794 0.31817298776786496 -1.8176496074011794
Ni 4.417254790901055 2.420771221855517 11.92881274539338 0.3534564935605074 0.17938869577639427 0.4416494457576716
Ni 2.256472519128071 7.194688810387268 5.299462665789633 -0.8555723721343523 -1.059870943778549 -0.12071457897395341
Ni 5.311862585557027 7.17228146122688 10.163481779055616 -0.774355337034389 -1.3846766063715832 -2.1313689302730645
Ni 3.8491085841378636 6.879992954327867 1.0049714833675945 0.38190215049571 -0.15160689767743568 -1.2363375808121417
Ni 6.2643903801539205 0.8156246991518697 7.261868703574444 -0.7823900344134074 0.040181714425208216 0.5598993652412163
Ni 6.020972751419517 0.12524040744139298 9.700260420317374 -0.005403687514074565 -0.40928671315625 -0.27589145339083454
Ni 3.9422133681282894 1.0932669307949174 7.9652149723055015 -0.909529285966782 -0.6165369112296026 -0.24302324190790403
Ni 6.569634306738893 7.351446578301122 5.499416407135086 -1.1272436167962523 -0.17882459574280815 -0.22318795234953176
Ni 5.631364031131176 4.9826469171236285 5.835295264305015 1.4007729977128134 0.5544645673788903 -0.5177111619089406
Ni 5.422662805401957 8.267506224787065 3.133977848331652 0.4344135901308648 0.5849977029707408 -0.7185372016235044
Ni 2.233418804126517 3.9982504762710334 11.970150182841104 -0.33114446032686845 -0.5145777584862815 -0.4522290210457308
Ni 0.46442697154632834 5.013962873747032 3.4297267543861185 -1.9274650229641255 -0.15970021620853142 1.6304401300287856
Ni 9.201561070995878 4.398884886342726 5.933229056862406 -1.5550314740804831 0.22831833159756162 -0.5906968102380472
Ni 7.15452045202617 3.6647631727134145 4.305564647071911 1.6119729244625334 0.2096474946609357 0.7154338801078324
Ni 2.024202359248543 3.188279136324136 7.852789470236773 -0.6847277092732272 0.504627332141789 -1.0798083061324242
Ni 1.0558339177326634 3.3696081738231487 1.2796619776693219 0.9983704132709063 -0.015857278747230755 -0.2181503899256243
Ni 4.934722168668551 3.3421797798676227 4.1998154484089545 0.16959150718031438 0.07048010829843344 0.5820483905344299
P 4.003936622149109 6.486009555085554 12.537461734583314 1.6901586289353407 -0.24639344393171758 1.2411080056175916
P 8.016397779304887 0.9541015549058166 8.579663455586237 -0.567320597405952 0.9166872371678018 0.28174945483350833
P 3.9551032144680445 0.6783834325928457 10.655248152159047 0.7348367101144764 -0.22920613351915362 -1.0790806839377802
P 4.433807377007412 6.539910845666187 4.943059351257491 1.2498410146152152 0.269630045862155 -0.5110710308846037
P 7.051626504209404 3.678973853598159 6.874890411231018 0.2020462852749101 0.1537720236495545 0.7364793879242221
P 6.4429091313869975 4.084142192178893 2.120802202591704 0.9633913260925602 -2.0100473138427315 -0.3938408109148249
P 3.9488643789576687 0.3831815955981477 1.9999177388625105 -1.7295011352887053 -0.6224905577098764 0.1471732873861143
P 8.275365658710797 1.3009751887101728 4.187928874266139 0.8632118909574811 2.756700814086478 0.9322426684038977
Ni 3.371013316956116 2.867007210402448 9.650998912361796 0.18109873648896552 -0.8330808759000555 1.320989352625267
Ni 8.679419250406042 8.383008990316993 9.350985865279819 -1.2976853877920038 -0.08740979417423655 0.7412963496968912
Ni 8.652571648945477 2.067808634474968 6.647064250700023 -0.7553466571423701 0.5118017384030412 -0.20167707486094946
Ni 5.335675077850382 8.929778286217305 0.5294776045060142 0.5935885299635455 0.09049254686461834 0.5144548597551721
Ni 8.587138817053624 4.625028622162515 1.0738881334671184 -1.0657248314561647 1.5227466459048487 -0.17751204757897168
Ni 2.448761673064229 7.869691468602194 7.7295462395683705 0.05219802215979397 0.5796449232992598 1.0623188910984092
Ni 7.909766150754427 9.204652385888407 6.060338304670646 1.8540841960791292 -0.4947553244437156 0.16869547772860624
Ni 7.552906633085115 8.86377402945138 3.82111906969124 -0.22558370627521793 -1.4957377214161724 -1.4911452169494834
Ni 4.456467651931734 4.360777404576647 13.732670862912933 -1.036591661535634 1.4489125335325177 0.2616768524533493
Ni 1.5960365113915742 6.994212355796352 13.374279739228687 1.4270543000068454 -1.150914992271263 -0.76532382295974
Ni 5.688291063258133 1.004134018060346 4.863566657177166 2.454243437281657 -0.7248502883257257 1.1292192524653843
Ni 0.016227529661597295 8.456694696209809 0.15943597072528998 -1.4037421076434664 1.1001812133618214 2.221877160866967
Ni 6.469560012808947 6.026855617336208 12.460066450819463 -1.1379568894486982 0.1346551003144455 -0.4694921790015527
Ni 5.783353680013827 2.447403368035694 9.059076747026708 0.6059357386749886 0.8788966486825895 0.5311968551002013
Ni 2.119424225559307 9.19701777486595 9.725542692327812 0.7179188513132152 -0.7415465180344841 1.874739667545952
Ni 8.421172677808391 6.949416392717348 2.3509187464294365 1.4161448521831932 -1.1295900055412418 1.3010938992529204
Ni 8.206944555756166 9.319499417956283 11.985684508557105 -0.47682650787943687 0.07083414920374252 0.5353597282286393
Ni 3.192813064833178 5.002581214369995 3.8138938237015205 -0.9521034118835666 -1.097042924843156 1.4161096280698837
Ni 4.159991818496478 8.639513185429767 5.6787492046231955 0.8433562896841347 -0.2511312157270191 0.999327120757221
Ni 1.6186967863158968 1.526416352963478 6.155407478760961 1.3029849456280462 -0.6646301671924038 -0.5947984911112466
Ni 1.4794471018388178 5.718941918798597 7.260827024131871 -0.9713031247404692 -0.1198324334793162 0.7402604522332089
Ni 2.757612133690485 6.9948306187748575 10.98738464478484 -0.9743395975739477 0.1225842851928405 -1.0101095560847055
Ni 7.7014115269980055 3.9392906704117174 12.65552279737733 -0.6786707044458699 0.6104385116413488 -0.6425119951371256
Ni 9.14933658455392 2.1816345958662215 12.585653460233656 0.2092397176995558 1.093462149470433 0.3946702487946558
P 0.5710295604720405 4.9674057979413755 13.053441534154041 -0.6473261286963174 -0.6754498835157271 1.9371344277330895
P 3.164129409678868 3.8939513853212993 1.9603629596694752 0.3464366105992485 -0.17631905571213508 -1.6934691813658123
P 6.077731166370518 1.2051069565582437 12.642634824561753 1.1603630250580403 -0.8178612307368238 0.37170129870330826
P 3.8880685194046087 1.4911659955677665 5.634847849338847 -1.649480177379372 1.3585670537687247 0.5008781495120019
P 1.2055659699816799 7.246725944411497 3.3313405057399117 -0.7279001308956431 -0.42164652027318356 -0.11729835420355282
P 1.1344469922117515 8.651082197224532 6.222519925077754 -1.8041816548217313 2.3595833893029106 0.06937453393908052
P 7.461178889364997 7.57170744820422 11.172722087261166 -0.7363847713278866 -0.5429485963194907 -0.31889366798397334
P 0.7316692704812392 1.3890776631472348 0.44137231978268626 0.9336806864020047 -1.6019471647954153 1.2887544038509613
