# total energy = -340892.585939047 ev
CRYSTAL
PRIMVEC
9.05364285935001 0.00000000000000 0.00000000000000
0.00000000000000 9.05364285935001 0.00000000000000
0.00000000000000 0.00000000000000 13.25092148090694
PRIMCOORD
 96 1
Ni 6.261019369341668 1.9927520013664257 11.364625597324967 0.05897030788662102 -0.4218817762124412 0.2843470403573555
Ni 4.809774784679665 0.4472010540728018 5.965273080631118 -1.2652416654410017 -0.011395386321135213 -0.09969632485107346
Ni 2.703960894700696 1.7900590511536112 4.782323234995 0.46415868260378124 -1.629312958402878 1.0388760866944367
Ni 3.3041268617190753 4.2901771830330855 4.7626723037623355 0.8160591445310784 0.2994458436720069 0.7087199584227666
Ni 5.111134331793465 3.9660477248157826 2.875436885277376 0.8833580268880529 1.811636825548196 0.7867845639366773
Ni 7.034290982602186 5.928587720873107 2.825069660843575 0.6274342748683969 -0.9948498017121575 -0.17310286276768252
Ni 5.333129647999389 4.289615857192761 12.039654324157521 -0.7457405015111738 0.3036963914182447 -1.204266668419526
Ni 5.60988139456475 7.782619810538589 12.42569349574137 0.5568014430421829 0.5345999672444793 0.6767716876509441
Ni 1.7419842090225568 6.565873622493618 0.4864594590537205 1.1144462079212676 -0.8614411722103036 -0.9317158493661503
Ni 2.7704598994940284 1.6004033462644724 0.4885843489686279 -0.11295370408161191 -0.2826395707479455 -0.4323160841718877
Ni 0.7772226228849991 0.040223523280574075 4.707787311678177 -0.5880035796766002 -0.6289797649786458 -0.27084437788523036
Ni 8.600091306903401 2.2683358280382078 1.5693194751743504 0.5393778482490968 1.1530346097174273 -0.9420568262808422
Ni 7.055892973812109 0.6811960681620585 4.913719655208222 -0.7430462425084623 0.8154824460920019 -0.2524339936988427
Ni 0.895400724922827 7.371539168926437 2.4970299343934284 -0.611243009820515 0.09382701055449001 0.8030411350048557
Ni 7.51290274426246 3.8510121421195156 4.1438549276527725 0.4814642637617643 -0.20286132497703768 -0.022472212960587105
Ni 7.616793292935502 3.6528460131996443 12.567186538166371 1.441971069217678 0.15802771360211496 0.6750649893724826
Ni 8.03602221287495 8.620127017945967 6.6555137377364755 1.121662523164049 0.8486471057694288 2.04306182109554
Ni 6.994744671787036 0.6946706044226325 0.4653581342787961 -0.07876831644915468 -0.4515204250144804 -0.7379634286689161
Ni 1.8595457580002859 6.6546083734778865 9.094769662696589 -0.4878889363411856 -0.1730753519638568 0.3951777845586936
Ni -0.03846983271168796 4.8713033396933465 1.5506888894611142 -0.30878589012601015 0.08530174669229826 -0.181427580583294
Ni 6.487269897562957 2.0046937559372093 7.154900893038582 -0.15834678750443051 0.27568550802761554 -0.5008264703384601
Ni 3.610556448680971 4.390147504466438 0.5345650835695669 -0.8380539036346147 0.14912372624426576 0.2841976592636848
Ni 5.875297980612583 5.713301153823325 4.986891194587352 0.3741330480732524 0.06030368198606389 -1.049265914569193
Ni 5.206976192207653 3.128069727993937 9.093245934649385 0.07122187156046443 -0.9882610927510462 0.2378915771082935
P 0.22506721713531447 5.511097100310149 12.427376567898087 -0.34262495016264216 -0.4422436276982448 0.29693747542785637
P 4.019781093563016 6.166191516897098 12.616625764235119 -0.05890243076316307 -0.5904227306410542 -0.1382980963836715
P 2.3451288244516926 8.529536270231594 1.2769737346190588 0.5637603908585194 0.06479437076756583 -0.6271439973214877
P 6.279316781007743 7.879104479576374 5.957799298676468 -0.7476927401415381 -1.7374551000284595 -1.1812902621290107
P 4.5448289880463 1.040091513909163 12.583829849332005 0.9260267694011729 0.15115695462421067 -0.579095478553693
P 4.009559531083551 6.33754981012016 8.222063703643803 -0.9791041088421266 0.4914784534646568 -0.04203085181880503
P 4.739654322851979 1.099483409272575 3.670213615772149 0.32425801761968026 0.5363367474299279 0.6386550832848807
P 0.08251580389202308 5.725079942827563 3.77180816068541 0.5288442957076247 -1.1753566702533953 -1.3623997972512538
Ni 1.35864392829356 1.0141528279006 2.423620284214289 0.22760356491872413 0.2663446902426639 0.930481976959049
Ni 2.072994435605133 6.550572966523471 4.579730780214889 0.21072247289266932 0.4502263887934052 0.32542709822711696
Ni 5.771090554449035 5.489277821678163 9.240609358927074 0.35735994237997165 0.5733467489953739 0.3241520881694353
Ni 8.626509835969017 2.015929326386294 9.97705618633376 0.6583114240632275 1.360758919213721 0.9279954630917695
Ni 2.3361295037213217 5.373273499225207 6.937559149121805 0.38885621321603997 -0.01599329010446278 -0.3996576747069181
Ni 0.13741799789709402 -0.23126081402831902 8.95890798596001 1.531757591154207 -0.7650109197050116 0.8252444105747722
Ni 1.6977752722756758 1.202260359907552 11.414170751011971 -0.8627493494987657 0.006066517909054068 0.11902562130730468
Ni 4.408109931356836 7.071293219850701 1.4065585209508442 -1.0475551025256733 -1.069816485027035 -0.04781531971106604
Ni 5.636318030915537 7.872359515849889 8.159069363895467 -0.49844665725237386 0.1565652701239755 -0.36129527287863583
Ni 5.261415745076587 2.7670647835243214 5.095893429864384 0.1199743583738192 0.13631217630189427 -0.20302073337303747
Ni 0.8703864158222827 7.35557759704752 6.709948763784114 0.4377043450669945 0.3610790431027717 -0.17140773445344673
Ni 4.89642719786918 4.871765075465227 6.904908997864323 -0.7956062759933653 -0.9793712464605843 0.6936550936698441
Ni 8.039553133483444 6.779186495459677 9.279142567136864 1.2484883572420626 0.3562471689317671 -0.3426797146599776
Ni 4.519225286813414 0.5306412348728439 10.345789320114688 -0.34409510695026546 -0.5513388772657151 -0.027885927776990685
Ni 8.073667258747063 7.378782082995146 4.490750675516544 -0.03605123719660243 0.02853076044984119 1.269251557931343
Ni 7.355785830826996 6.204108172046788 7.146116143637498 -1.4013805493898253 -0.11854482501614422 -1.5168462212600136
Ni 2.350588170930982 4.973319784351109 2.6813503277067046 -0.4300391152122529 1.9902588183618948 -0.7382488211198188
Ni 2.169759767563082 5.418559819439809 11.344670463701418 1.0551509125950602 0.37193732597351425 0.21185272984237064
Ni 1.1137247890601736 3.2489811247284437 3.7512563920154487 -1.4080307077164913 0.38644760377454734 0.36885637305534535
Ni 3.336140541902768 2.663246663991967 2.719579333525608 -0.36660665778922025 -0.7904293597781161 -0.7743982744571825
Ni 1.0309654421825902 3.4374326951536602 8.142903179694109 -0.035321043898797234 -0.24614121871159544 0.10762972076553722
Ni 3.53855282919542 2.772478861790681 7.073023370948864 0.6802776439216736 -0.06983784672874424 0.16560449750810835
Ni 4.164892876929596 7.077485911379447 6.002972448358745 -0.4916820848350306 0.2856827284496435 0.03327727399589108
Ni 0.7391276109763668 7.476335081858067 11.521423822541408 -0.07810085806848485 0.30232265099916966 -0.663996904483779
P 0.2576349802452634 5.643062994642022 7.844187296215389 0.7810630880718676 -0.14800401081752576 1.7781122114281895
P 8.406234711854411 1.3977194496942438 7.880693393850198 0.5217169406342241 1.08194309308724 -0.3200342093463198
P 1.7279782239421912 3.4459340655418065 10.267661816784045 -0.1348582174641871 -1.1405007389164745 -0.27452311228839815
P 4.158048323134666 5.974480635140963 3.3535832897087356 0.3087504089023844 0.5725846740183688 1.291449434184621
P 6.83327295626776 3.9365056890580368 10.422273587315994 0.3558123953871936 -0.1883880710615272 -0.3731321176125638
P 6.346313736143299 7.5905377294364325 10.229379394473886 -1.6956924142693763 1.084654835591448 0.33348236443142565
P 2.4901500713924136 8.586221126461824 5.774181468027856 1.5307150088223056 -0.2020064331759102 0.15113715712986875
P 6.839465647796507 3.6644346757095785 1.6322350482321888 1.7632162681529635 0.2837353749152855 0.2685830926548794
Ni 5.156665100357885 2.600912334788142 0.8444984302122004 -0.04588364990599194 -0.47453154119767316 -0.9659899400576718
Ni 1.4020108762799537 1.017394031946347 7.046389365189705 0.12783139252439274 0.13771059931131766 -0.24540536898683543
Ni 6.840687889545601 0.6234981093264659 9.225238084544756 -1.2146649809347143 -0.028261051728222294 -0.12198264705309961
Ni 2.579962205844402 1.6608816787381906 9.12299439345809 0.10076050444952969 -0.36244815553615645 0.17346513120310772
Ni 6.638157904899332 1.8018106792300912 2.8528435202042974 -1.0283366206156934 0.5943506049405507 -0.48105417280753926
Ni 4.157649962860887 6.994599813505661 10.597688817781792 -0.32935445830598115 -0.2742274354248503 -1.6571322946079914
Ni 8.297455196184993 7.180018413664606 0.25551914397294184 -0.8092089543784645 -0.4356703453561013 0.4523046114786726
Ni 7.789400988835417 4.039409390689216 8.274484294216082 -1.1299641010512087 -0.6349233841565903 0.04167295425875404
Ni 3.0914658510192004 8.298677437934087 12.332711681020063 -0.16188771077815348 0.43247266435441 0.6829449063411915
Ni 0.022291878774968372 4.744126822289406 10.275877092066478 -0.28475995952505795 -0.3255453689725361 -0.1490818172627368
Ni 8.844222779231817 2.502571669020249 5.937339877160882 -0.939545372712898 -0.3079975898967599 -0.18757020314592213
Ni 3.562626464831291 2.9424428940555174 11.140314359345574 1.2992864137305367 -0.5878043191816006 0.6736318564703818
Ni 1.5192827086949345 3.396383479669253 12.510221019015978 -1.513422026069813 0.3370983639174581 0.7533676790391283
Ni 3.1455160972569396 8.460058617027503 8.032389891469492 0.19675135542455793 0.29276508921772154 -0.13301550782849353
Ni 5.802561016077574 7.856108227408225 3.60287262221833 -1.458340768824953 0.6093874446690151 0.41275564554145694
Ni 3.2949826827073303 8.596524171724562 3.221696162067359 -0.8176092626270176 -0.8022127255662893 1.5847344004615547
Ni 3.20755165625543 4.5137116184786095 9.063457639813302 0.6408963139105737 -0.5471916878665608 0.37283001299111274
Ni 7.294637528801922 6.0148689347166 11.335964480990828 -0.19983770765936554 -0.8517599403667976 1.8341735731981315
Ni 0.4430581072255005 9.19859140368598 0.2281327805148954 0.7550077857457126 -0.41631765186110237 0.5260047693763006
Ni 4.926485291254321 0.2818290293275264 1.5996772441290845 -0.1073777526557312 0.4753537799886523 -0.5407377047111009
Ni 6.097492476955395 5.370149992533076 0.6644078987150501 0.11198876906518132 1.3325541746447307 -0.38239760207488976
Ni 7.77783948725324 8.789412027016862 11.26699292640729 0.5628455923537339 0.39156795572024816 0.9977224952742625
Ni 0.13981449708957805 4.979593958663128 5.788081525489967 -0.3642697821259275 -0.4056935964883529 -0.27534483685874517
Ni 8.04781910916436 8.908222978671445 2.6874325647959028 0.33415085125335997 -0.4679302338310716 -1.1341763393603437
P 8.685358512777276 1.5956501839068824 3.7812692171876607 -0.4047908821684254 1.4086349169593932 0.04797344255548512
P 1.6343092377486155 3.4053465858292804 1.4890589336504714 0.14745559451322346 -1.6133672337068987 -0.8487190966579448
P 4.673843394895174 1.1426240161943215 8.134289544137896 0.0030806958078527587 -0.13739743894627307 0.7539425777059919
P 8.58638409202837 1.6003128098386137 12.301214058463765 -0.4790692811670265 0.7189292948556006 -0.4630855041442605
P 6.585728260684466 7.596513133543117 1.5410684888493518 -0.26689284943665004 0.9186764996836888 -1.292433395364445
P 1.761974651852193 3.393115114695748 6.088638919870657 0.3553246571174977 -0.4334936494197566 -1.3125671899998426
P 6.755637971093789 4.037888378734787 6.288450095648384 0.8283963259401927 0.0074019488910259616 -1.0139407569053376
P 2.1272257546945896 8.556208301289614 10.139578124393 0.7126228930215985 0.43932568272050143 -0.15404404636401858
