# total energy = -340886.727988521 ev
CRYSTAL
PRIMVEC
9.14183797670684 0.00000000000000 0.00000000000000

0.00000000000000 9.14183797670684 0.00000000000000

0.00000000000000 0.00000000000000 13.38000395005488

PRIMCOORD
 96 1
Ni 4.729045322906348 3.1420222625434575 9.82238100195027 1.2101588655342448 0.7368318861676343 1.1318782873547863
Ni 5.058572012041375 0.6911915094261936 6.674641433980827 -1.7997105064242551 -0.49736807947621436 -0.0917529016342807
Ni 3.4357860817928882 3.198436544257164 3.597628609149653 0.07989985895043658 -0.11544793125837537 0.16785215589170446
Ni 4.99686460618049 5.029226712365309 2.8745329996176965 -0.7477500757420348 0.09811715328941166 0.15039050877183133
Ni 4.754514483310558 4.7188521736419204 11.90905944068233 0.5883658481120254 0.40081235713665164 0.5824345702292549
Ni 5.993644902186641 5.7806766463443955 5.076079545813846 -0.7029925690206861 0.8315369284517032 1.0779486272158663
Ni 3.416103704782742 3.1825206044640084 7.838514414852765 0.2690867717641753 0.23615736802600618 -0.5827659854267447
Ni 5.391152075036778 8.501324174318114 13.037368843735008 0.23156074979425928 -0.746170904180373 0.19517372652479292
Ni 2.0885625715243465 5.586897108265408 11.93763956852572 0.4249604151377649 -0.3697318336817632 0.675485621849669
Ni 8.147992139277644 7.555665035878492 9.866000367331694 0.23132755073753067 -1.4965159943430937 -0.2860560526286622
Ni 7.88089506119802 0.030495342884553737 7.10587929746661 0.5710548676374037 -0.10292408775975176 0.5878904511375037
Ni 8.706119627073008 2.592350974810511 1.586828339215507 -0.6596612532229027 0.8396775552809668 1.5429658011652008
Ni 1.364858115587896 1.411143240902512 3.338217074197029 0.4059663905337654 -0.4050420789472831 -2.329022742907234
Ni 1.796170027960714 6.589729300964878 0.7869970564901166 0.33765963573756685 0.36072191687366906 -0.19130318782579311
Ni 7.567942524185331 4.088202485743683 4.3478325106222435 0.8813772490125982 -0.2923629686832965 -0.47196043803638715
Ni 7.670559654672505 4.1704058921882865 13.075555214849304 0.25376351114354356 -0.7396081633611907 -0.4726050135989216
Ni 4.696463812611801 0.5679659337490651 10.629115286477962 0.3036274858535222 -0.4519677969645442 -0.382599947893683
Ni 0.41615657349338453 0.5103723549455732 0.9217002096573697 -0.3659587397925762 -1.7116746486302457 0.10442175535120081
Ni 3.1447556720771472 5.039648407577371 9.996227676660503 0.4154146804308588 -0.0001781774490771125 -1.524875519322393
Ni 8.987889354990664 5.068463480654927 1.7865116762137472 0.6259741453831026 -0.3743503062903811 0.29869456732827915
Ni 6.6026832852767114 2.2237246449544465 7.851158490859608 -2.924494348826105 0.33422129947997925 -1.109352338338128
Ni 3.3387820397795775 4.09000342781103 1.2626212855575831 1.2601087150898105 1.0665144172369954 -1.041089806516304
Ni 0.5946244472647577 -4.845174089817579e-05 4.931374307794387 -0.7576025430560823 -0.4724114095308767 1.3738468627459306
Ni 6.637175439693468 0.7810704029761003 0.9257984955903229 1.783464219768722 0.9227203307357593 0.7274162492806892
P 0.12137343931751143 5.7624843889128154 12.875444039837095 0.03872029938833332 0.40366036810840805 0.12458537478326932
P 3.957135955695165 6.091819099451832 0.12341664008934959 -0.5088503690842011 0.26033345105157746 -0.3561024158237867
P 2.171021949430299 8.771538619123449 2.15228026754061 -0.1861812932181955 0.09818708729539863 -1.365789282548777
P 6.2190551994180225 8.154300007432312 6.030609009572997 1.6033587004309615 -0.9891391244806256 0.684157438592054
P 4.724145297789098 1.505779546898345 13.465635609901563 -1.4040789221575947 -1.9174518617024976 0.6360387287079563
P 4.093312773132754 6.7142411332352845 8.66567979291505 -1.3578538297517841 -1.0333898667688848 0.3477303897100076
P 4.757586140846745 1.472439264057657 4.314181405292775 -1.102022123225302 -1.1141063080833458 -1.2874151162142475
P 9.484473990007437 5.666339679662605 4.131811795103413 -1.0437992350276668 -1.1936400419436153 -0.49684511709320883
Ni 2.6347142516637465 1.6928306922790197 5.500466515973387 1.6759160029733977 0.4113870473287044 -1.3158268345877209
Ni 1.761741866409293 6.806281157266008 5.252842466815878 1.3590869308279367 0.29608129807514816 -0.18490062673355898
Ni 7.265567093629093 0.5193176433359251 9.810446332564878 -0.6836506741589645 1.3265311083791025 0.2583966390401808
Ni 8.373832102890574 2.4181349698489005 10.84431872168806 0.4504922408602822 0.931203428506106 0.10887336336465123
Ni 3.630388385283354 4.89234597340901 5.74570820217277 -0.03406454578387681 -0.4633169034287763 -2.336247028569815
Ni 1.5406099493175998 7.127278511635375 9.613720380129008 1.1190327988506856 -0.24430750793696632 0.49105756387715427
Ni 1.3571149788820933 1.2886608966470858 12.100018721767526 -0.6593342089007871 0.38532917389938803 -0.7026873790754414
Ni 3.8991767033754603 7.22761018264622 2.1676010736861295 0.5183611367881137 0.01923365141863139 -1.1060525845409337
Ni 5.761762183718297 8.313687951311499 8.683568541328173 -0.7871481179236831 -0.3066367049934912 -0.6562699681531665
Ni 6.7533864831458486 1.2480437108337659 5.271587805440729 -0.2781008023373275 -0.961053936208635 -1.9558690280281157
Ni 8.114862118708777 7.096187120919395 5.187320171997105 0.4790091173530524 0.8603787923840601 1.0759210552628762
Ni 5.201212108878023 4.97098406307054 7.520552150667963 0.1797771894640646 -0.1514965973518165 0.8453275544778925
Ni 0.8472609661457515 7.485739117740728 7.34982375686723 -0.5955345979463228 1.4436613124359072 -0.6023804172235626
Ni 6.001625726677982 2.107221062689097 11.861453319790396 1.609402078411564 1.0304577807237543 0.2651776665177562
Ni 0.5628474187058786 7.407484985271221 2.929310892346351 0.11085465546073811 1.404051668464085 0.2511543556554707
Ni 7.365807346260885 6.752801405519908 7.53383889787955 -0.45241825423840154 -0.8936838342940931 -0.09519226633313282
Ni 2.203530325021603 5.6732417672811195 2.9068192285479015 0.44667852354114684 -1.617748136383414 1.4161741627592321
Ni 1.2920982276994846 1.236625555290026 7.330355298864069 -1.3484173669292325 0.5710692658151069 1.5887306661051412
Ni 0.761675993859972 3.1782787916759414 4.56424084006826 0.9425828739876413 2.294149328068817 -0.12019058814968331
Ni 0.8859729929396035 7.833101532629027 11.813874624412177 0.20540337467260109 -0.04675551098798399 0.5323996171590508
Ni 2.354480352514184 5.417270305932266 7.45334410093945 -1.225763404840721 0.6266380042193466 1.9770806291087237
Ni 6.437919940709198 2.37301085794826 2.930435338408705 -1.3570200209965793 -0.6565620454722886 -0.10035247037783362
Ni 4.147222191260404 7.175017189176936 6.555386158505976 0.43232996812895863 0.893713401980448 -0.7460482625595797
Ni 8.572273978301272 7.3556690480238895 0.9233594532371846 -1.3844158965110285 0.3247483269925375 -1.1804636524626573
P 0.035917366946196766 5.922155729767069 8.50892012743364 -0.06908888437786165 -0.9809126228057753 0.7299307881724268
P 8.480069401188253 1.9761819581542948 8.420638312965792 2.7440748977923515 -0.8883948179810118 1.5580738604512328
P 1.7086643555310272 3.2769192226743034 10.96839174573901 0.2022537733000259 0.02433934807631292 1.4011797462329287
P 3.995312270787765 6.594848730191855 4.336499374171023 -1.1966137798599585 -1.7767189306250886 -0.59262590893996
P 6.7118642553799015 4.182235430437765 10.936213390496086 -0.024695702974467146 0.017724413862956572 -0.2503475434834591
P 6.280982009388634 8.126764791661499 11.114528595574441 -0.159195508657971 -0.3291893934830266 -1.2352669734557824
P 2.3667944081726446 8.834370471046688 6.283731874230553 -0.3652082347797968 -0.9561863237036886 -0.8583273091716702
P 6.880631724949945 4.356588562967955 2.1240621564782707 1.0049768628438305 -0.1930980749426868 -0.8359684818604958
Ni 2.4605988069190943 1.6518386911115817 0.8889696874049662 0.8852573007932948 0.785884163609595 0.7379163774810646
Ni 1.227255171437077 3.5697505744573914 8.979066567228243 -0.5973078877966617 -0.3779408518551169 -2.3561280837644585
Ni 0.4338542574942862 0.22478865225381972 9.450765291099165 0.6824353136946246 0.3379252306941277 0.15697021887187806
Ni 2.5626308597803282 1.4878615446039254 9.621989172514366 -0.09329144976599417 0.6116983521903788 0.7955404557524363
Ni 5.537192935574203 3.2814444324374348 0.8011010840104386 0.022383252791206613 1.0065179820787051 -0.30136028708590035
Ni 4.137870091083266 7.2085128832620144 11.361094934086305 -0.8733651773413991 0.08264785400921895 0.2011718530897568
Ni 7.304739869053373 6.336098150119786 11.855633625779872 0.42153879105072567 -0.5851432274096696 0.1420231106437425
Ni 7.5007591574191625 4.262372781515767 8.769308010674553 0.30406740160441825 0.5275489739349689 -0.08782528444510036
Ni 3.0305101237744108 8.688174199264871 13.245440731195165 -0.42392708877724405 -0.5583021959574256 0.43518440685861826
Ni 0.12559879679734856 4.897172863823018 10.507022384517303 -0.8044056194525501 1.11277113421169 1.2797961662164088
Ni 8.4074100735168 2.415913503237909 6.174591128214146 1.1113007203137506 1.1004740620118918 1.2032490257882889
Ni 3.4774637208032244 2.689985803639288 12.194789412780567 -0.4542704769557918 0.5513270501911731 -0.6163600193321062
Ni 1.2155444770803667 3.7363788539575897 13.538958635004942 -0.7123660398157861 0.003009733360601268 -1.649924206895326
Ni 3.205448333930541 8.752075646223032 8.201608104408532 0.0897394707486777 -0.32370805865348123 1.3159116809920435
Ni 5.433881025406225 8.1623631084648 3.987267453431087 0.608591688240597 0.4295531767147699 -0.22119483317890296
Ni 3.0600108346948662 8.709950057155334 4.163094250231614 0.323483601347501 0.14053521324430635 0.15729494920114845
Ni 5.063197782021465 3.0057540267268146 5.701727734194085 0.11798046787224198 1.1081138379453368 0.7330199686207118
Ni 5.6468309975726605 6.050817956446489 9.925380261261886 1.4815480601793516 -0.5522210227603522 -0.1130822592396762
Ni 7.6959008293460425 8.767369941038625 3.5557891596083926 0.45388506859191513 1.0662899599310154 -0.9794095558976874
Ni 4.349805319242211 0.5047172140173446 2.105530736860404 0.5171352348008126 0.6017381556538733 0.32588912546520005
Ni 6.202435338106158 6.0178799144736335 0.6759922897248148 -0.6433990257277694 0.24357731463916113 0.43023323350093
Ni 7.966197550692525 -0.1457007841673483 12.282950554988066 -0.2485907086933525 0.05944724752303956 -0.07083697741721993
Ni 9.286644617736396 5.160338951603355 6.263835578213423 -0.5467350599451164 -1.0994983283621838 0.6328672729585101
Ni 7.3438212260985996 6.214776819278335 3.1415843685077927 -0.16637531423586188 1.0208225716268355 -1.0082501342784638
P 8.315927701598302 1.904519090814521 3.745410989808042 0.6444197536827999 -1.8115774330651704 0.9329862314381416
P 1.6671878369546078 3.3408298114703685 2.2463552646890568 -0.5862881396473903 0.1317816354213924 0.6034834204797542
P 4.529378441216337 1.4795973231375195 8.561543288968013 0.5783570577257717 -0.9169474328077241 0.5045941649110084
P 8.281764653346135 1.8832826013604718 13.023854464759578 -0.12698421403274907 -0.06867879342363656 -1.0044788401614895
P 6.5067031291087964 7.907068143120941 1.810448664585027 -0.17501447796809858 0.2225703733701909 0.34901825528349567
P 1.7108949639799245 3.3040521975772816 6.573876439853269 -0.5662736441986763 1.2900520396164619 -0.12136815339755226
P 6.908797727536223 4.21765091048296 6.362646961580614 -0.09842542855844984 -0.23372304755290071 1.638387152790004
P 2.738208998589831 8.982651081870916 11.084249000064453 -1.9395615491173432 -0.8671929870924161 -0.08915325922790451
