# total energy = -340865.2346788722 ev
CRYSTAL
PRIMVEC
9.24463395536109 0.00000000000000 0.00000000000000

0.00000000000000 9.24463395536109 0.00000000000000

0.00000000000000 0.00000000000000 13.53045625559211

PRIMCOORD
 96 1
Ni 3.9832353451991076 2.5731698481059486 12.053024986885369 1.114584790381661 -1.0171798326679256 0.7918280398978557
Ni 7.920709753320361 0.6366714553325153 10.14324173673165 1.0638546110166454 1.4529314248839234 0.344764107992832
Ni 0.09034133442543979 8.889852443559315 3.0462464156168187 1.8686132429332398 1.0810524629521703 -1.6644738225747266
Ni 0.5162221976999727 8.850239187927272 7.51773801694939 1.2562772571588623 -0.10060932358364609 0.5105650377824626
Ni 0.7803256681487198 2.4745573398616085 6.6610026774411555 -0.25566792725510806 -2.84288959136942 -0.5960161655684316
Ni 5.679468480119543 6.459974418626448 9.079300874134885 0.17287377747601196 1.05618629583811 0.9570944373402549
Ni 8.44011025610465 6.423559806272979 2.468172071328341 -0.9998364562934716 -0.4869219444422259 0.2558702730739013
Ni 6.442705442775654 4.588805079196062 10.132254489516088 1.2680359403566872 -2.163330056560693 -1.0810619760338671
Ni 5.357413174062725 8.381240428364896 0.2808112970307286 0.17169364112498173 0.8391160263505419 0.558302967288374
Ni 5.7171865858322 3.9459794711741063 7.42548674119056 -1.0186273637477297 -1.0862756590243228 0.5036605973531455
Ni 0.5230401150928855 2.6701830347110023 1.3544664207752526 1.317948508916414 2.094956967302934 -0.35997681117752844
Ni 4.824191943817548 6.896043792760276 4.9845253248510994 1.0538437637478624 1.7689225745091213 0.40822947553632916
Ni 9.378588496184562 6.384122198682245 6.0990833306362235 -1.4779534008495578 2.0110042784393625 0.9891226694203933
Ni 9.240076148661835 2.3699543089452577 4.014634743741519 -0.8047210938104399 -1.5528054129634419 -1.5903787432315253
Ni 2.7066068916982244 7.05671552738919 10.403757364820818 0.056717507296702316 0.21643083613135627 0.7165301984958046
Ni 4.463836120121627 6.373583316203709 1.211711710823225 1.702509694301526 0.18519784625900362 0.7723041109323151
Ni 4.310356710552626 2.3343994475308274 5.640007760944427 0.35091598652684075 -0.4057540174126432 1.0764697286774945
Ni 1.0743743562505153 9.094029424630328 11.140450210581646 -0.7367701796917633 -0.13652789185712616 -0.4919098845751206
Ni 7.743018647951985 8.124609395378782 0.8646136163926283 -0.9038929136166111 -0.8741123399200689 -0.03122064857717849
Ni 9.244726199439645 6.725739149760628 11.278081544507705 0.9138952762449615 1.2106242352064378 0.2479610455291536
Ni 1.3853268571698583 0.6394337518979423 5.103349375869846 -0.3914959648317322 -0.29424013110135133 0.20853317855083442
Ni 2.7120519809788015 3.249534987384159 8.601229431007214 -1.800513719051841 0.48779586240674705 -0.6700405395746977
Ni 1.2629279062787861 7.6719274143906295 12.943613250734087 0.851446780001753 -0.2748020769813977 1.1715401247207824
Ni 4.091129465731563 4.970488272960389 10.216116260143979 0.019047246439438163 0.6364930426365555 1.9951295161906348
P 6.12334956977474 1.6452767136733364 4.097292863054756 -0.22264544958250043 -0.796865345211447 0.9962927048062713
P 6.290067294878185 1.92461256715707 7.4554837287926246 0.43929251548972087 -2.131137788098865 -0.1233288766683489
P 2.6863518991451776 3.569510250846529 6.415587234124304 0.8948313176349749 0.15208358020353807 -1.1470799347958889
P 5.140293705737369 5.938466139346452 6.936212650880879 -0.2661426015341868 1.3146197016534973 0.12475455337128194
P 4.1382770978723835 8.627508226913783 9.963151648904343 0.6958808976765692 -0.228730993654948 -0.5057321351701934
P 1.504351516741048 6.6363527860018845 7.847123393109043 -0.5772342569752381 2.4839844159895157 -0.8992212191725546
P 2.1563015782773154 5.795220539342135 12.070425236535458 -1.2452161142486942 -0.33632754718970465 -0.0928870152387239
P 7.952705430739847 1.69296977920559 1.4956430717456257 -1.7470939086698039 -1.2983669872400607 0.0665774308099176
Ni 2.6330103623897787 1.1534344641070446 10.31264317901362 1.5124894869532146 4.279884033308113 0.32943493383492944
Ni 6.70637164204788 9.064908828308056 8.356030312120186 -1.6660481090403825 1.0081154084728121 -1.2732971887556266
Ni 6.7068246291017815 8.169002126661177 11.684143761942337 -0.5834794665540016 -1.797910219990723 0.030721340343256767
Ni 5.718730439668969 0.6660952756418888 10.656167298035266 -1.500201670724797 2.1605283254458403 -0.5365884584294178
Ni 6.203047557360234 4.5943703487154295 12.63672838866611 -1.627020305713959 -0.081952113493775 0.6859741800858186
Ni 3.1645398246581378 2.7061169261093103 1.3495455022284761 -0.3647140687521977 0.023223489304314844 -1.2470246282123427
Ni 2.164880598400194 8.822486797400458 8.951073181662482 1.1713547481828537 -2.2407606280350314 -1.5891415283903148
Ni 7.711540670022672 1.7029817175601998 5.540343213378984 -0.3460365469473524 -1.269263385005885 1.2854232825951992
Ni 9.158362830918165 5.20514481151538 0.2191699280917943 0.7735744930043065 0.2887641955884446 0.5689969566671104
Ni 0.2674426321603676 0.30408096465066187 0.6908024838104296 0.04054423997094953 0.2703468694235215 0.32199827505122613
Ni 2.0976166432126226 5.462154874485372 5.3152234390036925 1.5079180655324482 -1.0739670168602988 -0.22660546267151296
Ni 5.699372176589972 1.1475548770400716 2.0074731439494995 1.6850480471816527 -1.169925729045811 -0.4128872860233147
Ni 5.757715060205799 3.423851801432652 1.0649670169433587 -2.238904548662899 -0.18357805126739354 0.3102640173334334
Ni 7.5279145097848055 3.5985291561975163 2.5596920965573013 0.993400727970457 0.29132655699898213 0.49267813019971274
Ni 3.3347057981514885 5.815281394586367 8.302111910218594 1.915027311421405 0.15756722902592865 -2.483503105477723
Ni 4.4693089433034645 7.948277251172111 7.878594899794728 -1.0371938138960073 1.552152095650159 -1.4573699202712513
Ni 7.391685586799092 8.873822248631436 3.761629456113371 -1.9150869610147467 0.20418904264952575 2.3002130177643934
Ni 7.0274100383918565 7.276636119741736 6.393303044462452 -0.8915374773750516 2.5346210071994606 -1.8120368892000922
Ni 8.841734124874417 2.9473094207277444 8.829839979087676 -0.3242490187586158 0.9322786638481557 0.01490519924660659
Ni 2.922700205676987 8.70543124481868 1.039562763389834 0.4609856841924383 -0.5826518284463836 -0.2075931832350683
Ni 2.0458836727302634 3.1684503047356998 4.166500964720604 1.6766839914876734 0.7922874960327775 0.4083158646025484
Ni 1.5212414626079653 5.193986538575385 9.456841547514449 -1.219800502389067 -0.31228978951421055 1.5938114230621583
Ni 3.3765100319830164 6.405995002142085 3.257944830709356 -1.1831237157933236 0.14650788588797348 0.6574940703682548
Ni 1.361142895271743 6.697875823628778 1.517616641713374 1.1212097518973465 -0.1910828442848709 0.8285277093117344
P 8.751062757023991 5.719072491117832 9.498339783968747 -2.6539225078759716 -0.8379276624693955 -0.7926438509309316
P 4.2967948328368255 1.1884438921300424 0.37401014774925223 0.4788116566302657 -0.7515887327618346 -1.086501916102516
P 6.966034914905012 5.741740333080439 1.0307322892288708 -1.0021085401571 -0.5273129466647628 -0.37956296083957214
P 2.2669043764994288 8.392860932992544 3.031282126960672 0.11365690079622359 -0.3659800799488148 1.1977046989312923
P 4.256867259657177 2.9287739300527744 9.94709094668508 0.7594956463137371 -1.3348964496246623 0.24345595856994845
P 6.795970632382945 2.721287370098151 11.39244136188708 0.03857348939782389 -0.4765154043969213 -0.16589194684154013
P 7.237374160192312 6.461028306874303 4.303185648150345 -0.7977806579368648 -0.21256055454267264 0.14523261871997567
P 0.7762922344422414 4.629989922566132 2.620971075853114 0.0788315655869223 0.08888766427134369 -1.1557700063707192
Ni 3.7087991476045183 7.0159189586367505 12.83102655410856 0.07504947283667075 0.6732952990665694 -2.28031602173015
Ni 4.152430632148383 1.5040371991934423 8.210199912518501 1.5849562866643734 -1.358723891061563 -0.1466058449184185
Ni 0.8459930750871301 6.928390766262379 3.9819457187905503 0.8694750982583735 -0.003970554611973807 -0.1451667984790468
Ni 2.446841927869808 7.768524592476793 5.74808954754207 0.3493913223521982 -0.23184357114200074 0.3708782885813806
Ni 1.9316199995419212 1.3023747585032728 2.6228921107470082 -0.2150712367796683 -1.2856719082708956 0.7398362202115968
Ni 5.389787881466089 8.092706164296827 2.984019861361313 -0.8929721529390492 -0.5176252870633536 -0.8787382687278544
Ni 2.12505471619183 1.2330862285237725 13.220716525166447 -0.8377587409916992 1.4782508774853187 -0.940483311146135
Ni 3.7302374532779625 4.654894965896989 13.094287838422398 -0.08475307327767985 -0.2611924566177631 0.5932254901971719
Ni 1.0237969649872936 4.563557984416341 7.295256661047235 -1.0517760825855562 1.2446229607493855 0.6203390585845122
Ni 5.410514350340543 -0.05286543811711444 5.801291490327797 0.8748764717796029 1.1320814045045278 0.3992990058159188
Ni 3.710823722396448 0.4463863854022887 4.255964058939499 -0.30142430755461636 -0.6068793335351805 -1.1329589220134748
Ni -0.14342679482587806 4.583600350393065 4.557219863515214 -0.007328929561245443 1.3997278442777508 -0.17839393596329275
Ni 3.741710043765562 9.29501700705652 12.020740876892786 0.459411397726783 -0.9148015901093148 0.7314094296004823
Ni 8.406154716329507 7.919138165582334 9.268483983721742 0.654759187935595 -2.0261902421511815 -0.4036832509265435
Ni 6.847953207976638 1.0141270780815488 13.001266484671932 -1.6294204305150195 -0.24179682569997066 1.3488308003175673
Ni 5.5333293097505045 5.0257989167052 2.9766592839670927 0.9294643343278122 0.939923324877607 0.5488978719243902
Ni 7.744719660562556 3.345540508910124 -0.0342846487367545 1.733901064128614 -1.6078457896680374 0.6356134682450795
Ni 2.161820624627917 3.7750831716142605 11.092971620552465 0.20107569383152468 -0.6243713196723569 0.6347143534695778
Ni 8.682421351407209 1.7062173393737856 12.037979345452195 1.9442838942936775 -0.5230636844701056 -0.7475587856668351
Ni 4.545087206177643 2.747098387536812 3.2562798721704223 -0.8404910523211977 1.2959627486739422 0.6976194776342308
Ni 8.341460769325296 4.751205560336807 11.570637224258375 0.2722505142041376 -2.0981998997202638 -1.0387629581553401
Ni 4.459565099327695 4.738632858432588 5.2378698905379855 -1.1436611389223272 -1.929710624465193 -0.05092815430843487
Ni 7.283902401871674 5.584239507828839 7.589178697666612 2.698976719902132 -2.5435661322078906 2.3528136746792443
Ni 6.802099824561252 4.016904301327906 5.066519679460863 -1.5535410055778855 0.31233401248858467 -1.4371919026614797
P 8.608972736238812 8.652727587792246 12.305259272058509 -0.020096513639558937 0.0673518470820969 1.01285343737843
P 3.1950840945783874 0.40075117534347543 6.5590103310966805 0.13903985964570248 -0.1728094998969798 -0.6217953314150646
P 0.681762156463271 3.2654357574394943 12.465893103689035 0.24516008574524875 1.1330175431655518 2.0286212201901774
P 0.6463579825790158 1.1348619948970624 9.206690078325883 -0.2888140749897736 -0.00589476821788017 -0.20703628229033375
P 3.5592024842118204 4.597753884669065 1.973728381823926 0.6767323497725765 0.6943382357797977 0.4619189946399851
P 8.556740555533786 8.758606378166524 6.0245031722964475 -2.2009080148144675 0.8307182892051499 -3.6673199906833287
P 8.294350115719489 3.7246814283923477 6.422366324055454 0.8547485906814762 0.11126577485622774 1.9224889099057731
P 5.7570032234068105 6.100506079770826 11.436482797086859 -1.2363851462206255 3.3562285923525934 -1.253355712636693
