# total energy = -340858.14239208243 ev
CRYSTAL
PRIMVEC
9.31506982280386 0.00000000000000 0.00000000000000
0.00000000000000 9.31506982280386 0.00000000000000
0.00000000000000 0.00000000000000 13.63354626735948
PRIMCOORD
 96 1
Ni 5.505234247492883 0.879228953331047 3.525484746111786 -0.5016232552081425 -1.1254888388886746 0.9614126050996347
Ni 4.347110238778384 7.992143660292662 13.890811062480122 0.10702268330915762 -0.3396735808438021 0.6757411895039007
Ni 8.11383573327579 0.313265800246675 12.348447873047956 2.7461541489188837 0.4059334804133009 -0.787555894885063
Ni 7.302092598250633 5.594062753920249 7.326708601929844 -2.515082937166533 -0.2519398276712435 1.2022846049924907
Ni 9.539842521755197 5.598338370997657 3.2057785065463316 -0.15399159585952835 -0.680138290130332 -0.5452355925814545
Ni 3.261578569680963 8.781791449549601 11.894818873739819 1.1237492304897485 0.3505066669035641 -0.7935306244112592
Ni 8.85493337828992 3.9505025082668563 6.098121678574073 0.7846760022341066 0.23944940851371663 0.1383502897778456
Ni 6.511354945817099 6.348192181704082 9.643116838560871 1.5045550625974862 0.04693883064338368 0.6063430014157364
Ni 8.509372230750493 4.571044518823881 0.7325454793523266 0.19109929934510314 -1.6442279278414975 0.007976847557889487
Ni 9.165842465855583 1.6317394219687944 5.736533021789794 -1.9095683451893628 -0.37092148311449025 1.3838633664416684
Ni 8.14556286130553 7.314928764552741 11.325182788599625 -0.790548916075116 -0.20685707639999215 1.8917878812774904
Ni 4.219838438933891 1.0682801596696232 9.847291992365417 -0.3388474853980809 -0.6546799979582273 0.5185449706641457
Ni 5.998141170479883 7.429494809073523 5.149036221651296 0.25909160822467636 -0.50288592397065 1.0236333016027532
Ni 2.9704267453422752 2.7402886287530883 1.5486620396886874 -0.8951997567179872 0.6352347447494222 -0.454934592902352
Ni 4.049894303944288 3.9556351117737227 6.986988003208576 0.23264241289421225 -1.9372835517164442 1.5291448361217084
Ni 7.171486003387159 7.295786295938204 2.706844733343465 -0.7451645744030457 1.5042514153141384 1.8506553729032384
Ni 8.810202412700132 8.962336134068813 1.432803994974799 -0.7870221338687801 0.0999511211743569 -1.0160894278172243
Ni 5.863435944866825 8.8528374875657 9.438708808009192 1.8572458816365627 -0.31079032215054864 -1.3324392463334211
Ni 8.317370010272215 8.639885674915114 9.428101737930664 0.4448748946735048 0.38950593098489694 1.1152550769758083
Ni 1.405914182736557 1.0861650938496297 11.112131304701265 -0.1588872333889328 0.3630143124522716 0.5882342076301676
Ni 4.134102535708484 1.323494444390361 5.375748255536625 0.5136984412051218 0.938815693635725 0.9543096755062662
Ni 2.8549943993221505 3.8151545428317033 12.871908225259133 0.007386008051425989 -0.49299797543297674 0.06783315759388962
Ni 7.2183221747710515 2.4636589983657706 12.624227969061723 1.2745089496755404 -0.049090843989379976 1.3486353964773095
Ni 6.807080469469528 8.337490561224724 13.501205470001464 -1.029019505615331 -0.5776453763707278 1.8983233684031626
P 5.999100622678081 4.800092772236474 5.874218138259198 -0.9647051598079773 -0.8455527831148212 -1.2644212264222352
P 1.3598325320133842 8.857103789573223 12.733937136144245 -1.6987779951732358 -0.13369659305591813 1.0055450766424747
P 7.403431243534118 1.1778905870113605 10.471300140426806 0.029415991268271924 -0.6907705730331974 0.5978449912470543
P 4.4668461470855725 2.6708727279669384 3.4254967859616876 -1.8528644647394152 1.5470602829495486 -0.6267436765592755
P 4.0969726671452005 5.8796814267469975 0.18002956115454694 -0.7732065681419265 -0.9847705630992846 0.0785651992994131
P 1.208816619030955 2.727750544687313 4.447017157820479 0.09423324485397319 0.10585591669456608 -0.08753037891250087
P 5.266796403635787 4.450088336361702 10.544116973228123 1.503856493868565 0.4800046484971023 -1.5662427694152705
P 1.883693432229635 5.242716947981977 5.509384111126838 -0.8743059439881137 0.5349990024551109 -0.14533494862579485
Ni 5.966367467100716 3.2792772024632613 1.9089279565492376 1.1521815176885124 0.38524252772285267 -0.3123234709656234
Ni 5.72949455498437 2.486741741541841 11.021004770533166 -0.10895795265865751 1.169062095493935 -1.8710089968589259
Ni 7.57957921506741 1.0533574177131804 2.6404087234136604 -1.5391425707643684 0.45221847952276956 0.8915179369910259
Ni 5.843045256887641 0.48958516906585914 6.976189974197397 0.18625122722418247 -0.10916441224250877 0.07652785715441014
Ni 0.22987543161841797 0.8051499285602559 3.7853817164639243 1.1130177030048574 -0.821956998072752 -2.364635092794205
Ni -0.19725126235871146 3.2421659640397475 11.82984160375407 3.7161439541645676 -0.43340237525753106 -0.21546795799745472
Ni 8.31701603761657 6.842142392518249 0.8692804586934184 0.8019471306097286 -1.1266422357668275 -2.0759973954812954
Ni 9.333979477287414 6.174242566663749 9.688584626178594 -0.5684904493443371 -2.141480821896086 -1.4088046097680382
Ni 2.456449134274455 6.497531382107136 9.416512859486213 0.847633834013566 0.9066763898990191 0.5694047336284903
Ni 8.186008894748024 8.046972161638244 5.08640355475571 1.8639055530449256 -0.9565848446936881 -1.6474009262528402
Ni 2.2060693708242507 7.030940228955942 6.774604409820999 -2.5626005231315223 2.662699996958285 -0.44283780963881797
Ni 6.582931942816667 3.530802719509372 8.83558784115188 -1.2073175394307079 0.6437507526402333 0.774135250603783
Ni 3.641027941463547 4.227821453825696 4.8389002848861224 0.4762518663228895 -0.5602472354989384 -2.230148913957456
Ni 5.704632633460184 0.26288897079933504 11.69639670709651 0.14234886941427743 0.7737092188099578 1.2364039152737027
Ni 1.0504138556293878 7.8572893935614365 10.690840502007351 0.9171451506408268 2.1320857538344313 1.1375575971277505
Ni 3.716787404841668 0.5683282493282802 1.581750099428688 1.8076842686583512 0.04428339529840761 -1.3027196077818015
Ni -0.17533290291831818 6.328621219874814 6.648726144431365 3.3776795631375185 1.5950676640667625 -0.1219404809612545
Ni 4.071104718073389 6.038121450428106 6.3856937215557945 2.2404878339896186 -0.2556435017750759 -1.7968712372032472
Ni 5.661261668073669 7.361373703001446 11.679558786771624 -0.017617970192079335 -1.1445144880615579 -0.11628611088895457
Ni 4.162560074208443 4.7030949495195955 2.2766654909648834 -1.8035003124839908 -0.32793752335379656 -0.2145413324181273
Ni 6.714218537781775 2.708002596530223 6.625699291674607 0.004036631963218854 0.3361097747519437 -0.8512457197345406
Ni 5.985593771344223 5.615729606473735 1.2189458260243609 1.2621545418752456 1.0122284021999213 -0.6320712594197759
Ni 1.7211920380784826 6.062694604785844 12.421592596309239 0.044227345249491574 0.013516032208563818 0.020261835572829623
Ni 8.507742093520545 3.4199999632223013 3.583673193165039 2.744334064991009 -1.0114545001483741 -0.7503209217930046
P 4.106446093218673 8.272462058354607 5.073110950029214 -1.7747540935892339 1.3353561628699002 -2.395295240882223
P 8.613812794305824 4.167254869430694 8.287941841490198 1.010194659599344 -0.6605151165827657 0.9477438493632904
P 7.221908476676938 0.504485554854577 4.967383043815721 -0.8277604921284067 2.0113212954591493 0.6251380226350524
P 6.080449127987454 7.408219189455223 7.779110806534072 -0.05621562795961931 0.686866867103417 -0.6739864115963231
P 4.140483358579997 7.88530912377678 10.066438326489807 -1.2313753517108599 -0.6601793305099017 0.7084831598216121
P 4.186630214792368 1.805828763057409 12.274991094945511 -1.440365158183139 -0.32127965171764666 1.1460278393822907
P 4.805253320952997 2.259593762385874 7.927225075247192 0.8112252134775447 -1.7409029493677437 -0.11258449366765126
P 5.791821687587715 9.077237521105468 1.7731105115918597 0.4021408461400881 -1.6380441676282884 -1.7267950492114517
Ni 8.117338199552707 1.660383261866461 8.550005497097684 -1.374265695450904 0.8208082291802895 -0.3100357033727112
Ni 1.8433684946956517 2.6945330054759054 6.766587860677607 0.5095828763748514 0.09906434769402939 -1.0062732130577507
Ni 4.733219885529044 6.623517702307441 3.279072270925782 1.1238975831421547 0.53452951901786 0.3658504963494861
Ni 3.139905126837607 8.233757942980686 3.0229525614121817 -0.06167228019881636 1.6408803515255028 0.7736840219989772
Ni 4.039899233957232 8.160494918331858 7.084249442403212 2.0838688278095727 1.584762939706645 3.0511090953345774
Ni 7.99542256489233 8.687047873744994 7.207838063615011 0.19738487524349876 0.08545112778596896 -0.3572861517192428
Ni 1.1989240148126388 8.320183161377614 4.901014102389092 0.3824770491625735 -1.3727646854253455 -1.0291706864812147
Ni 2.2690951336690026 0.823108451792357 8.849180391128684 -0.44622163850938634 -0.8727874504610582 -1.0962032025506798
Ni 0.6267029977792418 2.137482511257903 -0.05378707653239224 -0.1112259227572278 -0.23513766851224022 0.642098818859107
Ni 2.7216025985629355 1.276993615522344 3.498013673512694 -1.4411300613736213 0.3751674028750377 0.9390314091909571
Ni 4.082664719801196 5.645379473919028 11.682695170802045 -2.5240668858326982 1.1728002223801286 -0.5298899633633196
Ni 7.887600630968593 5.728227705479953 4.787256605934365 -2.137245957879132 -0.3488025397282638 0.9045791410503582
Ni 1.4272363777042834 0.5474215064774435 1.3707851911846611 1.7323231781185326 0.36985216130971144 0.14106563182647963
Ni 2.364583915064443 0.2806611926337279 6.338126317185898 -0.9888203076886259 0.31411218743493 0.7508551970299198
Ni 5.685154822329771 1.6053311988436285 0.48676642891853106 -0.5602132969372093 -1.2328678770959867 -0.9681938896875261
Ni 1.5611963977265086 7.372654252632689 1.2196397987308245 0.33853355370208793 -0.5748055929290875 -1.1566156422004663
Ni 1.8799860344152377 5.104481310882345 7.722231126799721 -0.5355173368524261 -3.1915239809509357 0.3635388174971739
Ni 5.784062234373161 4.333398455907045 12.738013410726108 -0.6164448657364286 -0.236330917489393 0.5349725200925496
Ni 0.9860280925813646 2.760902878409523 9.007220798311709 -0.305856375184041 1.4804239738772373 1.144608847547577
Ni 6.462627815246467 3.2569024045984825 4.154032127728341 -2.013668198424771 0.5419435520937441 2.421581942492894
Ni 7.837914048199763 4.387109148866378 10.72698297316278 -2.2306279104764033 1.6964192651330718 -1.5872872487903955
Ni 2.389837069523817 6.225494081173329 3.306871233984841 0.12745626857316114 -1.8577037951095878 0.8353943545245807
Ni 4.5742861631440075 5.54939699381966 8.771837365870043 -0.8504376220109482 0.2206433315508071 -0.47846661458602113
Ni 3.612281635797141 3.3154941941777745 9.452737303256635 -1.2085436985283249 0.8258149383662616 0.21013703270284453
P 1.5803295512711613 4.90380676034074 1.5914033063509485 0.5753856338022736 -0.2021784399774002 -0.9687765016638735
P 7.43853042686238 5.666701668886754 12.504402636083634 0.8212332325328502 0.6279742065322669 1.2219049503265793
P 8.027522295717487 2.279490751661131 1.0799090929145816 0.7066095969479831 1.1507743529283407 -1.565938350800974
P 0.47446867365579953 0.9603278147674907 7.604124424215491 2.0706623564216273 -0.5257407170816365 0.6186033068403282
P 1.9256671371333374 4.657665353688402 10.563108537710516 -0.518249550910914 -0.36002463369632837 0.5140900202165856
P 0.7171271756779795 7.73107951168388 8.204463911205018 -0.24962454927450556 -0.38201039393880015 0.4941685987023102
P 7.404567682060138 5.156301044654936 2.836350286946482 -0.9939326892145269 -1.2234347567075448 -1.7047336985360382
P 0.3036032782545289 7.712952385686854 2.949085920234778 0.030061081051438555 0.9823367568468114 1.137452439008454
