# total energy = -340891.5052933595 ev
CRYSTAL
PRIMVEC
9.11300463284380 0.00000000000000 0.00000000000000

0.00000000000000 9.11300463284380 0.00000000000000

0.00000000000000 0.00000000000000 13.33780343679140

PRIMCOORD
 96 1
Ni 6.330667619143986 1.9874734050603513 11.396579600758741 1.1445134596202933 0.577093874742632 1.3515769956041368
Ni 4.7178662863084355 0.07979529111287643 6.0219645874123335 0.38231532677372865 0.39079996720597215 -0.15248364385543417
Ni 2.859906903003663 1.4956263193446107 4.766664603483835 0.561640259191723 0.3758947679593655 0.21923719523189983
Ni 3.725660568555556 4.713719869203258 5.414747774422216 -1.0314093460037463 -2.1394342237797024 -1.1349677249133872
Ni 5.248297833613897 4.726742352814903 2.8187844696253874 -0.36835192261510113 -0.4036819653749628 0.07014560777715015
Ni 7.339632152405485 6.026803592869145 2.721072100115829 0.3435688021331502 0.9333130186499411 -0.16559832686052126
Ni 5.01723760130228 4.855600238237356 11.58084090911007 0.38814710296415733 -0.2611348639069503 -0.10547590764732803
Ni 5.68676093822605 8.073876048188538 12.500616466089424 -0.36018944140896675 -1.147135727734489 -0.48448119621121727
Ni 1.7089070796294101 6.614364566179796 0.47630759022618147 1.0351395024701397 0.4292636704988091 -0.9001545296201012
Ni 2.7120757419482873 1.3563431566291402 0.35811100891658154 -0.13719200780368632 0.6867300844152366 0.29785304526359024
Ni 0.7180710464719336 0.09396145680518206 4.644583148301845 -1.1359331741504501 0.11273156076847682 0.15540364571570656
Ni 8.710054901182977 2.62804472628489 1.5568283471174995 0.21883250359431344 -1.2990586139904468 -0.042334499102152895
Ni 6.9146745206501965 0.4659196762521325 4.711952857606128 0.4522917559628662 -0.5731042939672646 0.31203447897029485
Ni 0.7712563640746574 7.761773865731103 2.6227719418078443 0.2411411943938428 -0.868680113160904 -0.0069823448551041035
Ni 7.551965160209101 3.803977730317971 3.951777907157616 -0.4117886536424973 -0.13531021739994117 -0.37510286818568944
Ni 7.4453247800667 3.9762226307684494 12.831126917892925 0.7130520101392172 -0.3616269451864418 -0.4891379782569383
Ni 8.21070781265941 8.806105969949076 7.025167879148793 0.1608620977271165 0.2736707915904319 -0.20804106940576428
Ni 6.896585206466069 0.6252341344376944 0.25510671762026094 -0.0007062820384052352 0.20792099888813223 0.9946803660138288
Ni 1.6824155751794054 6.494072905106503 9.349039648301995 0.9935673354553081 0.6134778126883048 -0.5923703412857282
Ni -0.08511455191351895 4.983483032164743 1.2347856992131896 0.7343535998304708 0.27182242552778346 -0.11537414059764646
Ni 6.701339082337637 1.5741713062226952 6.791302664013057 -0.015850079658379156 1.5652927467971753 0.22643911229697777
Ni 3.784047589199237 4.586812166770933 0.9212318151187108 -1.0093449100045389 -1.0935032871210135 -0.30523648221185495
Ni 5.947912311815244 5.530728073006586 4.957834480642715 0.7978143393882776 0.976861592664853 0.5033546360769524
Ni 5.38718002412579 2.7999980105873123 9.36831274178714 -0.7042313265237936 0.8865600787651182 -0.4376022722714915
P 0.2514733626755699 5.561065265409086 12.35927558692923 0.40244166520995855 0.15342055384740674 0.5211268724587089
P 3.8577809096343896 6.182125643727722 12.884464422672915 -0.19701772171206713 0.815180598580867 -1.9705633968154967
P 2.4842597392837984 8.557430299693921 1.5566679582360683 0.16118477117385788 0.33695592480232295 -0.6873893152657903
P 6.5169374337150545 7.651388040687103 6.000104311913651 -0.36909265743586755 -0.006761744203865774 -1.0089782706937398
P 4.642638433114493 1.096011953456355 12.503750428380568 -0.17158668323347223 0.5982756510265697 1.5225453285273196
P 3.9923891009763297 6.386029122251581 8.237507336665798 0.12380401653255454 -1.122168259155874 1.2322456701309552
P 4.905411921527251 0.7593985224543112 3.932277899857265 -1.0625875713787636 0.8138690788582951 -1.2085246723649314
P 0.2844022935939212 5.67245352096203 3.549375873154033 -1.470051886614294 0.34772113373862695 -0.3354176337809256
Ni 1.6756628387509729 1.3404591895646893 2.654343035036808 -0.7804344533489334 -0.5093123963222842 -0.2537861368513629
Ni 1.7436458532666368 6.665998850395043 4.828071673860825 0.8592233386233783 -1.2159186508361575 -1.174992344935441
Ni 6.012614644665273 5.768422572686489 9.36300441659205 -0.07700376834956416 -0.3318049767290028 0.3581518421536477
Ni 8.736400597558953 2.341012419555685 10.413356571666464 -1.0161382787772888 0.06265624137864048 -0.473207937290243
Ni 2.3001041417861385 5.260554824836896 7.0660479066039965 0.09022155259141881 -0.40454328493399355 0.7444158691624793
Ni 0.7518584224261262 8.701497789838445 8.862077133066201 0.5346580741759244 1.6375492302697408 0.5630193989274368
Ni 1.2725673050952928 1.0218776608176248 11.396606028472158 0.9136175971035426 -0.24357217243283855 0.27234255969731164
Ni 4.154299854180057 6.81517873613518 1.6014036979488557 -0.4164050693685861 1.6328387121679495 1.0579680703288814
Ni 5.954728839276064 7.941227152841352 8.079547982268236 -1.2969078861960308 0.2344043898906415 -0.7463297983557404
Ni 5.10185184926179 2.8658759210341938 4.769412174378804 0.7187333767947106 -0.33949488917409276 0.40248357419148745
Ni 0.8678296080058702 7.23311935432786 6.80785461431665 -1.2786718228039786 0.39440516805872716 1.436811122283293
Ni 5.008999445119684 4.533309716607198 7.335205054757802 0.7244322269517007 0.39628027359425305 1.0857766079007172
Ni 8.21391559028803 7.0806861259359675 9.221090329440834 0.3783203466817226 -0.1730020755237601 -0.16738087268224075
Ni 4.875575944379223 0.3258455047350587 10.532476300344754 -1.337708979372793 -0.5516800626552176 -1.2409979624022887
Ni 8.18225701221465 7.190680091781017 4.688744768723145 0.22914134171948924 0.580640968663942 0.540013682060883
Ni 7.283897016108193 5.907696622397332 7.130403033977745 0.709918606716558 -0.3284000648125118 0.12925244124163549
Ni 2.1312310530475633 5.410126569775983 2.56239190705229 1.129960501506783 -0.046083167511307734 0.1156353646788331
Ni 2.21900751361256 5.252754092876385 11.273205010220213 -0.18154585132871315 -0.2923028048693224 2.1134851080141086
Ni 0.9808782530018106 3.5588196798487495 3.760313679949291 -0.14381594087810717 -0.7363863139897834 -0.8241421786495289
Ni 3.7849042116341525 2.8653838187843483 2.658277119134182 0.25623896926722967 -1.1565405659881567 0.28615144055594594
Ni 1.3815861794452782 3.44167200537169 8.456127406361418 -1.1354143255325027 -0.44650651673965686 -0.9510343471891038
Ni 3.4784429790406852 2.8141505067726778 7.1089829166025345 0.2810920237551675 -0.22288636194871292 -0.20425537711108693
Ni 3.919703776073255 6.948228603685944 6.193675465791684 0.4842220290125596 0.33059578691225 -0.5858983604081394
Ni 0.9531564929271927 7.595589113357423 11.477873069832256 -0.04925668014328291 -0.3606473548819918 -0.06306658944318172
P 9.50440817548417 5.455964983048609 8.014712599550656 -2.0767191041386686 -0.2472239102528129 -0.1295871988732349
P 8.776762095050893 1.6711154494422173 8.146610583316598 0.161316925876348 -1.2843611598792717 -0.5915990103373424
P 1.7435911752388762 3.131310406797967 10.523419796346676 1.2204047116319692 -0.06865873881897853 0.860146621768596
P 3.917243264824029 6.111991960120141 3.954165514369828 -0.5826821674636868 1.0606265909976509 -1.4865964212365366
P 6.938085829536355 4.007780965790936 10.625974816514896 -0.31928987498112754 0.7258707591704402 -1.050795720950158
P 6.4236293793416115 7.948699816635299 10.15432306035253 0.4271425103907483 -1.3445054334693363 1.7919367760161076
P 2.333922501956062 8.511200027222346 5.871874312509982 0.7265207340496134 1.3468775332459386 0.5895698957224556
P 7.027940055156254 4.044807103589481 1.790066587534913 -0.6634153209486962 -0.43655583328484815 -1.2041118880092165
Ni 5.3527875446643804 2.908880189867896 0.3238187725060663 0.7420555964604187 -0.4824348552051497 1.0817309770764338
Ni 1.6271178631041976 1.2644931829959793 6.936645063504864 -1.4528594339954075 0.02266581702863193 0.3056391169669123
Ni 6.845734640648723 0.8525461879463232 9.244457895904782 1.2301782460789652 0.02534413519174345 -0.6124475716515775
Ni 2.9747854393286577 1.6471755862877064 9.195055386522629 0.02585012829388451 0.12167205779121626 0.8554445883072366
Ni 6.334030317851261 1.802488524141656 2.6262002541484333 0.24532386501662265 0.6641226314283659 -0.3904130161801985
Ni 3.942969276885385 6.879698808892674 10.42966884994837 0.4118573020969036 0.4273183738469801 0.1669962356493124
Ni 8.325130698753066 7.193924321428145 0.2418919496109896 -0.6110326935819219 0.3064564706618851 0.7989484529927208
Ni 7.627812697717663 3.497416254673609 8.300795331197753 -0.08237068908843233 0.7405689846125633 -0.1717095819645817
Ni 3.1846214838645404 8.494769279880288 12.283610309513204 -0.2092356039344977 -0.7422222039452702 0.613206304194473
Ni -0.03300912535906683 4.772708348152305 10.105693333762725 -0.44165073130925225 0.36416359556536637 0.636050555782498
Ni 8.701661823921725 2.6067020694490077 5.646132429698546 0.17052713162070632 -1.276653506822369 0.8453221551612538
Ni 3.478333622985164 3.137343215860885 12.29981596564098 -0.8825527573779381 -0.12409583674136046 -1.6103729269652653
Ni 0.921707513960228 3.244329890179102 12.638902666098728 0.025309682409382216 0.3560959880658835 0.6078332128080177
Ni 3.246717497391314 8.719860494161376 7.95355887070229 0.29748486329089413 -1.0594104592023625 0.11747241788757187
Ni 5.4746557555381035 7.635321813530116 3.6613737887165074 0.6641339442822756 0.7659393450565518 0.03042386370749599
Ni 3.0249343037897436 8.298229109094855 3.737318835374576 1.4107591623912479 0.6071860661423221 -0.6767878856008602
Ni 3.482680526192131 4.353373440251731 9.504278770818468 0.4849856466514616 0.16328896200105428 -0.8799394881248073
Ni 7.477393443348285 6.261563705059229 11.560381302422522 -0.8377872802367894 -0.3309161463661462 -0.9880967992590403
Ni 0.684869636715242 -0.06729680526726875 0.31955662024212844 -0.4176610532628742 0.45594606488600187 -0.08771164168537152
Ni 4.696459838440165 0.2432233595869599 1.3542006892413878 -0.2706111788285017 -0.247374062677432 0.5370831386776492
Ni 6.0713570724893975 5.750734230705938 0.5280211575816827 0.06721120773917458 -0.24985440589712457 -0.6148325269439863
Ni 8.036275791098507 8.894575018865707 11.314365718217921 0.1514562310321843 0.45591341187585355 0.35253089642244445
Ni 9.202494332199455 5.011204792239362 5.656775507802144 -0.0341830736396121 -0.2581045617210587 0.7873363226750892
Ni 7.795984085099977 8.688739583360974 2.5066403673466695 0.09655880766335628 0.6296251118721286 0.3886065590990791
P 8.43277350940441 1.5152010532829012 3.495437821369139 0.931801467101421 0.568452139907234 0.3655455635145575
P 1.9665408334326728 3.31359783834714 1.6317472694545938 -0.8668818836099005 -0.014769444999690691 -1.1257048115542225
P 4.973203562945754 1.1461243658989337 7.988784278786585 -0.8820153968172294 0.198001168671259 0.6284822565169369
P 8.334990969759225 1.7598852275115315 12.650399632735853 1.3764801866037195 -0.0686224862644044 -0.8196406912347497
P 6.325792161668667 7.734981632128415 1.3722599305102474 -0.47444515213145383 -0.2271883317581765 -0.31470328405170966
P 1.7980596038930485 3.2917904182752924 5.714168299641045 0.6350519393146548 -0.15273509774460794 1.0772449162806221
P 6.722617948141132 3.8999650080516832 6.1570238724832995 1.0688073270362302 -0.9712115934679275 -0.23787717893059032
P 2.6764347808530107 8.74122137700651 10.138957623251342 -1.4716369717132267 -0.28478181390192886 0.45453581480203653
