# total energy = -340857.67988522496 ev
CRYSTAL
PRIMVEC
9.45670262527337 0.00000000000000 0.00000000000000

0.00000000000000 9.45670262527337 0.00000000000000

0.00000000000000 0.00000000000000 13.84084019024094

PRIMCOORD
 96 1
Ni 8.446367387707449 6.126051929836788 5.490744030974814 0.3491812632239212 0.867174732259971 -2.440343796481429
Ni 9.432285371648579 1.7629752347510854 12.732327510282747 1.0605736262725285 1.4882480979073465 1.4874795951724382
Ni 4.5926192367543175 6.790252892084421 0.9736819564758388 2.745093054644221 0.17312368870328895 0.03953328220793192
Ni 7.283618522265828 1.8185901026105638 0.045121710679257875 -0.5200009863843819 1.312195665593037 -0.8497807051532397
Ni 1.374342585617753 7.677102459821522 7.5397977580850615 0.2946872459410989 0.7972438115967883 -2.4156964302463946
Ni 7.99375068893337 3.487575170441847 3.9026742930794 1.4035988971973825 0.8693683974771801 0.6344209905988751
Ni 1.57055025069996 4.545297897055486 13.281421488754564 -0.009896690288421665 -0.11623854548047077 0.06057621892116018
Ni 0.7116263256748196 4.529533573858452 9.182193415278613 0.30099339066478487 -2.0129084374406108 0.3345519433465206
Ni 5.530847069596086 3.011817920460126 4.269802400551033 -0.9534879509359192 -0.554726048570393 0.3182899729617034
Ni 7.502115635323683 6.996134763903619 10.064602115485224 -1.6379564930104886 0.12234645815042154 -0.2620620037069099
Ni 1.2718130162702839 8.965833517003318 12.726984473326345 0.696834005618458 0.4096291840973333 0.9646930756231192
Ni 2.6348926691179915 1.9607432557586135 8.378995001533111 -0.3528831375555406 -0.2895229281313401 0.4105372977338994
Ni 3.5700281602168498 9.137037660470076 0.09400435197366871 0.1580976476081019 -1.850713736945 1.3429548011527646
Ni 6.753069137548888 0.9752319100283244 8.692740022953604 -0.6076879454794051 -0.3157268402202175 1.4415992877005561
Ni 8.694984098475294 4.827883083482442 11.400105077946089 0.6343831953824043 1.106487100975191 -4.209315993281564
Ni 6.7252853453755925 6.408381785294147 6.771589143877064 -1.0488095437580647 -1.0783363495725882 -0.666058157888182
Ni 1.30358753693137 6.092291501634384 10.840007280354854 0.4137331789633778 -0.6483268020466898 1.2700686545159998
Ni 6.090400161118843 0.38252267359787756 1.5018832419427344 -0.9394219597611563 1.0330574231301304 -2.137738324134518
Ni 2.00017770550764 3.7120678329339674 6.934980159674122 -1.2681714374932869 1.0950120104560561 -0.77970014628607
Ni 2.5879495975222677 3.8160348210732478 3.882452080287237 1.3269411993333275 -1.391084823890772 0.16266984035981663
Ni 7.542836196623278 8.551242219294188 5.9890422772207526 -0.10626832164163634 -0.7249937558821257 -0.3974650379309735
Ni 9.05958726635868 4.641510389081048 7.113638076112625 0.9294072558376315 -0.5570246147965826 -0.9747358045711019
Ni 3.4312888766993517 8.981588383497774 8.069707869707749 1.050153716490785 -0.7796852338877346 -0.26717284257091406
Ni 5.4128274214263365 3.9931872304613805 8.047023131564352 1.837511122211797 0.6316981923510734 -1.0212979686013572
P 5.970640479674797 5.646757873091006 13.613324324794508 1.610426663021336 0.20336063321095946 0.2232792265117574
P 0.07783149922527896 6.5381561147679825 8.879618650942906 -0.12905755162201 -0.34210764420659145 0.8676876673406476
P 6.013696846511085 3.050580944326135 11.986886853200831 -0.8924221939728503 0.21898059913640353 1.611890392051056
P 3.112928984420939 3.7421968873465326 1.3261020544283681 0.5207010977752 0.10044837252574958 -0.5141249872195792
P 1.4391399116801824 0.7898502780570733 1.1833644770610166 -0.6063771970877814 -0.24024516494213463 -0.3680174220938178
P 3.5185458713838282 3.8858252860967046 8.952601698756595 -0.8423093364768589 0.38362838915819736 -0.2423251873996149
P 7.832627390414446 2.99116448203042 8.028172140645955 -0.49607918546146185 1.1331820937678743 0.190659126483891
P 2.980156880229972 7.407189254848689 1.9810259914472734 -2.916568923331442 1.304056067205038 -0.9503859149718276
Ni 9.061024685150489 8.348934981049362 10.8747341835607 0.23182325942702656 1.114341049801971 0.2983832067354474
Ni 4.708870481542035 5.095914404642313 2.6213024418435724 -0.5964763930343017 -1.2847720221644454 -0.4647886028782963
Ni 2.7846111843282046 9.003263145805873 3.9975808144789817 1.4165415734009799 -2.214766775074431 0.32076748796791854
Ni 3.825094342142688 0.477982412098255 11.900035551056938 0.06370987945413545 0.33874309860973273 -2.139883138391663
Ni 1.1036255609258145 3.138585018514251 2.0376489438015355 0.06342037323817465 -0.43061247121721974 -0.5333532393215717
Ni 6.818859417381976 7.582176079346527 1.1963929762023195 -0.16760301599537586 0.4227402675579945 -0.8095144014340252
Ni 4.41272438361865 7.760945584875448 9.95520414305557 0.15184549605080302 -0.6476297759796653 0.104346164918259
Ni 3.5016467438774708 6.696773387103815 3.7914076762203903 -1.7382164036745162 -2.2189548450138497 1.482276453704944
Ni 8.068335702163724 4.766130815650034 13.28371852181069 -1.3028499627120786 -1.6827245412547986 5.000492001417718
Ni 1.8879739294231794 8.232173074322448 10.184117814002766 -0.34895037816003777 -1.3425390537715847 -0.2778948569741085
Ni 5.428667398243991 7.423851964790603 12.26868713331384 -1.8083609830104017 -0.04290039890795192 -0.0260820417990325
Ni 0.8269829663986866 6.976096011141465 0.791503309667656 0.16483059545656129 0.8725560511765424 -0.14893089350716932
Ni 8.086000822578875 5.7960602933878 1.8140499397030079 0.42321515031188406 -1.0890550215416728 0.37084357868870327
Ni 6.59245650096916 7.369447554861071 3.7084459158467067 1.9672394746485864 -0.879557165084724 0.6744114149488836
Ni 8.883683141710803 8.712204753869292 2.325288737756275 0.19960862236769494 -1.6920309062573893 0.09334235760858763
Ni 1.7188880873338284 5.435892319013357 2.235683643821755 0.5061720509210895 0.26778039424792593 0.6390680024525832
Ni 0.48357510600270925 8.13796540324336 4.7298028926977835 0.05223813136911004 0.9167641131523243 1.2061518012573809
Ni 2.6326608873096533 1.918973000472894 13.406583784381253 -1.36120860515663 -0.5059763899705157 1.9846471286020722
Ni 4.77970118384904 7.487174045250911 5.334190211141437 0.44592261921172877 -0.8266307493993376 2.0050665727986887
Ni 1.6337493940267573 1.219857892308377 3.419157818632673 -1.1125986131895678 1.6025529167002142 -0.4022668301949911
Ni 4.875573234581805 8.420474936049695 2.8096355106893256 -1.1783568905322996 0.6249631876200851 -0.6559534653540122
Ni 3.1930177985515162 6.690900774803061 13.196437885369768 -2.2583446596653816 -0.27919146429834496 -2.3578352962635525
Ni 4.571757750867902 5.000761063305453 5.754703296004726 -0.8722099806910333 0.1674610911008729 -0.584314046640155
Ni 4.398066494623208 4.406341109378699 12.868091715169301 -0.09673261423705921 0.7254519264654667 -0.2180236345397729
P 0.3248661036518728 7.005468529347813 12.545199225345394 -0.21518153710528748 -0.21832908159533365 0.041576795000521936
P 5.36243265338975 0.9336905069449853 6.971561522255455 -0.470404406403177 0.3039272764821282 0.1770003980498758
P 6.210481370450531 5.18922368897652 4.104528555270754 0.9355701901152339 -0.04944205668121163 0.30425123548045024
P 9.393144079679463 6.7267227641674046 3.2801130836219143 0.10948862835114692 -1.020999720634648 -0.23163993977162686
P 2.915350097464965 0.4513617943420176 9.873418796482552 1.8817677780373268 1.8000833163826415 0.44223128640307063
P 3.9468966713435183 1.4287848223575963 4.006701804115178 -0.9414595590164755 0.8884804357162828 -0.7309438028179734
P 2.766529968999634 6.393043013713111 6.0937894433226925 0.0508978152911317 -0.10893429850957369 0.20332900864207565
P 0.49236321970816976 9.711655279199118 6.5169040670651075 -0.5753082435971189 -0.5612342820025561 0.6038444033635988
Ni 6.578602431692824 3.5354166287824524 2.132361602798274 -0.08974795538910996 0.06843710972647568 -1.1075651645307183
Ni 5.038389282862138 2.62867961552444 0.5543944602666205 0.300205861766483 0.8680486502244922 -1.112926943063264
Ni 3.0467793498898983 3.053720569581933 11.676935860854513 -1.0246298611880675 0.5921646530328253 -2.529457717830966
Ni 4.1013151677348505 2.8378807899484126 6.7090292736445205 0.9779874787391801 -0.8412711250203317 -1.5730150551420974
Ni 7.858340164723223 1.259566586432157 6.779437261346302 -0.18207678413151868 0.3536557540555071 0.03622710065283438
Ni 1.0232530457179065 5.226312876486276 4.781290855552352 0.07919152002950232 0.28937971768525644 0.5478151803831727
Ni 6.1129260266589345 9.293120536515083 10.893280668656093 1.095429814719765 0.5853324606023403 -0.189389515742848
Ni 3.1523066939544995 0.779541526577118 6.1654712488616905 -0.7964848219435766 -0.2677708811662291 -1.1294784196640417
Ni 3.666685117263565 1.340903685302991 1.629301906804463 -1.1904387613974983 -0.03165207968764226 3.2868358035810687
Ni 8.750797557088903 8.413883614353036 8.241541829566179 -1.1506902778549666 1.4167423765578764 0.060164071084406065
Ni 5.611266868316882 4.631722701913124 10.12583426467586 -0.3499518228413586 1.6065460970200074 2.4848454784382303
Ni 8.287248910134998 9.20313055478565 13.125531529442142 -0.9703628723143869 -0.7193923505349481 0.11412458446126152
Ni 8.54662734843627 1.3278345223406038 4.708155554827161 0.815300154877867 -1.1359198044140113 -1.4686274954629417
Ni 7.5532385694587525 5.159009524240756 8.760684539633893 -0.14302661220759239 -1.3474295490946666 0.0374512028679226
Ni 8.638272253116801 1.4638313621105679 2.072057156130512 0.8039929573951637 1.6211947001711178 -0.43078062136396783
Ni 7.470662642550239 2.9238705864874763 10.462623378937703 0.10065688899212986 0.54220349062335 -1.614951290364567
Ni 2.5528463175538296 6.219115339903976 8.729943636564549 0.11311465513950843 -1.804202737867654 1.4398835905610299
Ni 6.836448884176507 4.280131956776659 6.007173613072984 0.7064936401954091 -1.543978044479799 0.2375118251713716
Ni 0.14311679114071776 1.7039843240713664 8.423549310057705 0.3071606958177613 -0.02495744127628605 -0.25424585009660083
Ni 4.515594394258916 6.4995254847380615 7.724462572000923 1.0125544180807724 0.7189727464990262 -0.449378181860497
Ni 7.542193140847994 6.874871466749719 12.64272147067797 1.672699552918629 0.7401036149403706 -0.2663212932038962
Ni 4.901115788244184 2.388167298865689 10.242498767366223 -0.6226887897636114 -1.197886218814479 -0.41972102111569654
Ni 0.991904076672817 1.00639174502186 10.735758482478758 0.38259737679052175 0.9463053171445509 0.0063349410790923145
Ni 5.342280420196663 0.07753172175356575 4.906342507758882 1.5934183013887977 1.7632172965942279 -0.06129767046821701
P 6.470673085173485 7.902739383325544 8.018303125835864 -0.35448750592818307 1.970677810906174 2.5124187600708088
P 5.692689077510915 0.005268329006039017 13.043497471591332 0.5351884927580977 0.12443599368959861 0.7177465874014091
P 3.825311846301975 5.813668673587484 10.97102516621766 -0.5042547792937186 0.9282888259624723 0.6967815551139678
P 8.215699498432087 1.1057060354929096 11.164298416490004 -0.2513595296877413 -2.759683550863886 -0.3208855016030216
P 0.6795312227963493 3.3290430084292137 11.30777267098816 1.993107857774916 -0.06516615228468776 0.031215763481172047
P 0.7723478129262583 2.709685729805054 4.869484063792021 0.48081120355879775 2.000824252582567 -0.1008674623410392
P 7.150288472622776 0.4583228731094657 3.216403278355921 0.12800339932588278 -1.3819219264445812 2.220121354518125
P 8.624739711728106 3.5036137380136334 1.2462184507437275 -1.0926617650563246 0.6875361252562998 -0.6358448675295953
