# total energy = -340859.7432376592 ev
CRYSTAL
PRIMVEC
9.41989722835773 0.00000000000000 0.00000000000000
0.00000000000000 9.41989722835773 0.00000000000000
0.00000000000000 0.00000000000000 13.78697177149968
PRIMCOORD
 96 1
Ni 8.903903533146348 2.8522412667675767 1.03001112828302 -2.0688265887644692 1.1276344244767675 0.6399462912924786
Ni 8.652995150141612 7.482827254736994 10.749715442392809 0.6197129949647392 0.291336327190995 -0.7573109799575924
Ni 1.0676228940008945 4.637349474190974 6.010899545032608 0.2648835323161051 -0.15319763920332324 -0.3065135491520657
Ni 0.8954271723712737 8.494552478488973 4.931117447668501 0.28151779843867647 -0.7506541367627072 1.1477067697466106
Ni 6.149695137002374 6.407329326639689 3.0668839873706792 0.4436914158883649 0.5035662378671263 0.6305725633870624
Ni 1.2895650929787665 6.791086520483733 12.4574250641067 -0.03490272541445602 0.3767920829626543 0.2533408217838282
Ni 8.907492513996505 9.310419198733126 3.214073649775027 -2.1318767231474185 2.065666960089565 0.7011709424309149
Ni 8.620543604134278 1.0015988342141324 11.290206538529336 -0.44558091960159385 -3.268033840383217 -0.8808285755979799
Ni 6.681815712447432 2.348889057507249 11.558817734425679 0.03392364933063835 0.47447883358286674 0.722813203291039
Ni 8.466094968913312 1.7878588174187935 8.720604578634624 1.3452112012871091 -2.7073510600087567 1.0595241019620913
Ni 3.932364364411935 7.774825229522278 12.781997985553218 0.6784673301858122 -1.3845010000256672 -0.4715040672252589
Ni 2.428487189223348 3.6402439309624723 11.259337535259082 -0.29204518033256155 0.3764953776578419 0.2228411105330743
Ni 7.4369900347452145 6.331734651252507 8.489438416274929 -0.7933588747200853 -1.0997353840736546 -0.1771137836992885
Ni 0.1314640859443649 3.092100110304505 3.8732017577780726 0.965344593164189 -0.38194997301450995 0.1599542412008665
Ni 3.2163014554733533 5.417561883364661 12.995612995366946 0.3628793295363041 -0.4918350654731272 0.7918244403534298
Ni 5.604226567161847 4.392780682031792 12.670861095872779 0.8608346489745562 1.4641368066814398 2.9475262909449045
Ni 7.6419293191967474 4.281051280814673 2.818498252848022 -0.7211034196887839 -1.301433027759894 -0.6389708147530867
Ni 0.04176217244380534 5.471726292520586 8.978476149682502 0.04606876933360453 0.07282726837437135 -1.6195592214502237
Ni 1.854815447032762 6.425481468629858 3.700767712748166 -0.12851273486213352 -1.3050575118863588 -0.6399776587510462
Ni 4.395399413465766 1.1029851882567807 8.095833661851476 -0.7857545800102661 -1.7003386547921362 -1.907413246519573
Ni 6.993915747952498 7.716252308455922 6.811012429125044 0.21505889548449417 0.6521634021839607 -1.7910852266490895
Ni 8.831502202925053 2.959854172888846 10.588297967190353 0.5621624502437802 3.0181030727222025 -0.07027184894236929
Ni 3.2986313573903607 1.090437885127095 5.6649698325533375 0.7140287722301896 0.5040231228988867 0.21297064549689773
Ni 1.7783070416128617 1.6100770967231788 10.390082605391951 -1.6013637814881194 0.7826062641892715 -0.029931240341793612
P 0.5259872803491583 0.03734047267723291 8.986348357809739 0.35542055926541366 0.13245655000122994 0.6823980326987861
P 3.019971957103301 3.4474563139563554 6.48255097409599 -0.5940377016858222 -0.4191386662496653 1.6057991915516538
P 7.854395101546644 5.902403994539529 1.6450889708015692 1.3881439960948931 -0.06343297164366495 -0.2916212054212655
P 4.197449692769657 6.054516495243857 3.72916870294036 -2.51243727201357 -0.09306724957033004 0.6684369425330037
P 3.7036021598290385 7.344882279488407 10.644493306192196 0.2192816753165901 1.232351085360568 0.015611738395327953
P 7.585080239326137 0.9315741440676273 1.7483122048068966 0.05865149109462157 -0.3243364362660994 1.5197122299538988
P 0.19792617095299678 8.791618357991803 12.250234424213726 0.40424735096012954 -0.797673185824723 1.3167424044234548
P 6.438556286005236 7.012623663880092 10.1951208761018 0.9790382886011977 -0.4621768762870621 1.7272419069408835
Ni 1.0371306866204197 7.435718348617206 7.998553441017709 0.05867360258180863 1.205048540890873 -0.8047249504651818
Ni 7.842073875950827 5.695731448995005 11.994527545552637 0.20933253452367817 -0.12197004864760928 1.1331769515615517
Ni 2.044362619386768 0.7150078804471964 3.6509006607151853 -0.387394541068849 0.9800636445419184 -0.6755933510721268
Ni 4.48697965447688 1.3265287697662191 10.44222456260948 -0.4606203304332196 0.8298346010486161 1.3537228383025461
Ni 0.7172469900222163 1.5124681214755786 12.892583811244855 1.063348360804188 0.29421262029752554 -0.40863750960802525
Ni 8.505488979189847 5.127099351830231 4.684620402543368 0.19895839037820576 -0.20129295204865336 2.1077821440920603
Ni 5.4692676993397695 9.369067478977438 2.82677080660815 0.1765900499853346 0.8288611813917532 1.886222985595203
Ni 5.727250425175131 2.6733668379915994 5.93580129823021 -0.05015219537435879 0.2817340282145406 1.6785043325258642
Ni 6.613747534958611 0.42909139132296736 9.989625817712842 1.4856895931515512 1.5262240629304877 3.5244047072426206
Ni 5.370339938477938 6.383016571851613 5.758321956236145 -0.2898227187599461 0.267436637755262 -0.11676870695232794
Ni 5.1090790884014865 9.099178003025015 0.6138523138870386 0.2026216981624059 -0.5166608662675554 -0.539232066699852
Ni 7.093540581210423 7.821821096875132 1.5119208254456726 -0.8832955490812335 2.9722315070010685 -0.14393369740289405
Ni 7.879631006264683 1.9015192975710369 6.625356616322744 0.1911813175359482 -0.3120324220877658 -2.1383265925378208
Ni 5.22752487635394 8.480121195910385 9.217265834882179 -2.2536536819476156 -1.8941972620499314 -0.9589626008972452
Ni 3.9294724559578706 5.258723576027753 10.271694278812689 0.16277576981006162 -0.5698881010228121 -0.2280043999015686
Ni 0.25179291135599596 4.841817763780282 13.478818870390441 2.350966079947545 1.9552712465431163 0.7638536661721168
Ni 7.920758277634208 3.8363096722096786 8.044518771612013 -0.340839061906813 1.8758030758134596 -0.48566107545193127
Ni 2.7504027576571923 6.499926916553211 5.898246051895803 -0.43761152824287214 -0.8535885089351042 0.9740979138767868
Ni 1.003332095307122 3.2019926315589444 7.805411635875198 -0.518439555434533 -1.0512924580809184 0.6342883216757528
Ni 6.35133745741833 2.7196938926400933 1.3508622483282344 -0.28013557337916917 0.11054329486790639 0.10077053175185871
Ni 2.701108435376678 9.223774983878133 9.595884474779341 1.2947751561237444 -1.2539558081145372 -1.3926673378865435
Ni 1.6493298085410468 7.2270582047540906 10.17825926003413 -0.5336849116293777 -1.2156031764782678 0.16383866385693718
Ni 3.635128926758704 7.05657690442297 1.5575413878008286 0.5016808479189554 -1.948474278225941 -0.28283420325725483
Ni 8.916629814323679 7.259067015590932 0.25339806184646024 1.299999380637161 -0.07772393434504035 -0.7084021700720315
P 4.688424157050701 2.2485200523670077 4.19508624055101 -0.5448859225515197 -0.9551720235065614 -1.0711858545707358
P 4.482985618045208 3.793957814198367 0.8928762641974607 -0.45502278174078403 -0.47575101542707093 -1.481167022690849
P 3.5644043382469315 8.207010115100342 6.874142696478293 0.5315416400341297 1.9792107880778493 -0.7320714886645134
P 6.447326210339874 0.7226898066500934 7.874539551804025 0.6250665459671687 -0.7998218567366097 -2.040485832838247
P 8.299127290254393 3.550764327036883 12.98462562722095 -3.6724881651478296 -2.335079233513959 -2.844056872204644
P 5.368776235535349 0.7606990920316865 12.59472948634266 -0.9537607449813317 0.034213926877547526 -1.262472844446613
P 6.716980188861183 8.371095305202441 4.3994085217330285 0.9478394944008903 -1.3785049303432324 -0.44976564710690287
P 0.26993657543864435 4.883302991245098 10.83807596252575 1.5276021742249368 0.8834477583883817 3.064338706650974
Ni 6.150156711967354 2.4943228510652204 9.05339447644753 -0.5264727101516546 1.661460232559384 -0.05097854793039608
Ni 8.621928329029222 7.0580746680848465 3.5460232927537216 -0.14347141305449485 0.41979506888674156 -0.33604781116575677
Ni 1.1563583260441677 8.241496358912489 2.2503785980933495 1.0414315061264388 -1.8116399108719896 -0.5236105581125112
Ni 3.8312888669783556 6.673375484516352 8.34488161515042 0.2467356577624847 0.7212170624485127 -0.2240040204929239
Ni 2.2179336460140875 5.095947751642641 8.38940004952797 0.6258517608726254 -0.36087001241575917 -0.49737039346905954
Ni 5.437682783878931 4.595901926315135 7.8635926892161825 -0.33295580250399437 0.19561647048916633 0.04859976328557436
Ni 0.6344074716642812 1.0431594208569053 1.3416307490286157 0.387514611586481 -3.6077547295251864 0.6051222416347578
Ni 3.3585984232489037 2.4504732293920317 2.3641897966015044 3.065008479024489 -3.658006683702203 0.5508848204474319
Ni 2.2123005474618713 3.2532368725690723 0.024098923120626878 -1.304672103522482 1.7563233976878718 -0.2610716147691826
Ni 6.903776751219793 8.123700543869905 12.319417917536297 -0.6768089686467827 0.06832089586358556 0.39243056083085964
Ni 3.5612957721562437 1.6229635161536669 0.07977522578429619 1.9999732174361813 -1.5384823114725503 0.3954937731372156
Ni 2.7372054816176354 4.4459842616687775 2.121980688702072 -0.27243640496269855 4.672750139014495 -0.155898325963938
Ni 2.4851855507380467 3.509401558236245 4.358971728831525 1.0174099464008606 -0.14112810963329886 0.40739643811207255
Ni 1.4061645810712966 0.8360130544809833 7.132538013812964 -0.255745831680895 0.0010880908578561907 0.06759533055147068
Ni 5.51343759751927 4.402615054755059 4.258299403000011 0.32110250270983415 -0.8601677048145185 0.007121184425813543
Ni 7.494253590094583 2.170174766984428 4.038865722658351 -1.2499821681787697 -1.0304228137207607 0.017013246728544894
Ni 2.992070221465066 0.32459835516908003 12.070548942284999 0.026178458167580722 0.7462187266991729 -1.886914612345589
Ni 6.721454640052325 4.571598591424302 10.302907108332368 -0.3428334666290225 0.6332061443551675 -0.9761488828685445
Ni 7.8924985859006815 8.673624725107086 8.679657227302469 2.0543895874035325 -0.6385113586181649 -0.32934288834175535
Ni 2.1294713909909055 8.852065838609816 0.12939830247864412 -0.9230864558259264 -0.44994433877661216 0.6538153359650869
Ni 3.4477765904626683 8.154352889503537 4.376149853446612 0.8521039539697778 0.7453576642504582 -0.44178237179111013
Ni 5.571680822182069 9.401424826012326 5.834191692622866 -0.7858216858027757 0.7069914057674339 0.47191801483422596
Ni 3.2998182644431684 2.8742461467307496 8.787856993022071 -0.3620018120273572 1.6285102599959242 0.2014960691983949
Ni 7.387102258938294 0.9894189070769825 13.433983927465476 0.4787226964608852 -0.016982650600925592 0.15325626035540058
P 1.331672033661721 2.808118468074298 2.032116752968907 0.11823577841615768 1.0412625846487422 1.5619932501102969
P 5.770544272910894 6.7669150641543245 0.12068207155830013 -0.7191504097274711 0.01702481669277068 -1.0584786914167126
P 6.957121629315446 4.6936804597131365 6.214091438545284 -0.8260759053371322 0.0253086539681177 -0.022468356305845174
P 0.36541288595008786 6.6290925475699165 6.190115916078562 -0.5409130539467006 0.20173646734397516 -1.8396667351022185
P 0.1202167286344214 1.2265836600019806 5.284600975748143 0.006695152631988469 -0.15200618999838336 -0.9055425334048921
P 4.934424773591048 3.512161588128886 11.037077885744068 -2.222716626049127 -1.3615173946463004 -2.5700456665556577
P 3.269241277987493 9.005939860098866 2.0292220185456693 -0.1264260275364339 2.8048997423892077 0.9234325263114355
P 1.6228316375922438 6.095587247229916 1.0714209965698807 -0.08538556465535617 1.146492180613219 -0.442276023598077
