# total energy = -340895.01903690794 ev
CRYSTAL
PRIMVEC
9.01124670085784 0.00000000000000 0.00000000000000
0.00000000000000 9.01124670085784 0.00000000000000
0.00000000000000 0.00000000000000 13.18887041748730
PRIMCOORD
 96 1
Ni 6.171658544813258 1.9686149318964874 11.478629415282578 2.103094508808404 0.515326463726848 -0.5421721231647824
Ni 4.612965215996351 0.3562641358222189 5.948417528632728 0.010338405811530582 -0.39045466805141144 -0.2103380929700571
Ni 2.6145050357068187 1.3684028365717658 4.602111169592539 0.019368120113966644 0.9224148836801985 1.7887745762380418
Ni 3.2848516625058948 4.42624317736342 4.948411570164701 0.21797992578603106 -1.090393280737122 -0.16547619946036016
Ni 5.0585713551980485 4.488754194302595 2.8345650818744423 -1.1373593650740155 0.26049054545473205 -0.21198154211075104
Ni 7.296072871273291 6.078320053613031 2.655446733034402 -0.18564444687811898 0.12576216870018986 -0.7175239298676417
Ni 5.204130019839606 4.549661209365573 11.635867556506932 -1.0273374899272179 0.05159895512321436 0.05998332253216766
Ni 5.769856074826109 7.9030253789766345 12.244981862244543 -1.6326389374523174 -0.5862832545513837 -0.19685342822006097
Ni 1.7666188304537116 6.566161905139063 0.257313440304605 0.9747386327845794 0.8408052411275069 1.6674537311386572
Ni 2.7400767556213923 1.6753979821799243 0.28075529693795787 -0.18288771006858826 -0.44112905447782735 0.11237880541474839
Ni 0.46039269357613793 8.953808810322066 4.70934950851205 0.32096906245576334 -0.12263904969017587 0.16497432012327717
Ni 8.589141687142808 2.2013754288748464 1.2836475576584885 -0.4507035855401399 0.4809186756709395 0.23870533125884053
Ni 6.869038911098786 0.6972127571007127 4.727695505252207 -0.02568403502966544 -0.020962718294596158 0.5589814814126374
Ni 0.8525188870764356 7.520912482582119 2.640530416710427 -0.5643049505080797 0.4265375298168977 -0.7712417311060717
Ni 7.281051123365319 3.763105547760732 3.712337086129823 1.8913762476613685 -0.2646567610172797 -0.2620684314648132
Ni 7.514199103942983 4.006985922914518 12.616459685525088 0.5636868573081066 -0.9591474632145417 0.5600587736372161
Ni 7.912739502698766 8.782595126907864 7.085390829333518 -1.347886177016111 0.9232713181432228 -0.4176687665723581
Ni 6.672683849962184 0.6519627828236383 0.29004408982550306 0.32065127410502847 0.5279809192660648 0.6298534258328506
Ni 2.0201953068366394 6.266673127861644 9.207255524755459 0.25842492117495497 0.7167639117731655 -0.6992842669311634
Ni -0.042900742315701575 4.682739297610885 1.3853322653628322 -0.06100482181814655 0.46292815263078985 -0.32833630145411197
Ni 6.2525434933567245 2.340968648336393 7.033176062640084 1.5992691037426199 -0.9949834990765445 -0.8835128072983622
Ni 3.3324220327555563 4.276755609249832 0.3662891475484451 -0.20085612162155086 0.6213078502556848 0.2501356845829692
Ni 5.9508559719344065 5.541402953672591 4.732958073205569 0.128709681364288 0.9948194626948544 1.4346416254358
Ni 5.375262602035347 2.7130610386279304 9.163284246356094 -0.17576806830467148 1.1445517690573965 1.1616244082689673
P 0.2441164698119683 5.688412428999921 12.327847482767718 -1.081351482249828 -1.3676780149310575 0.6348243966848809
P 4.119788706544991 6.220616647023223 12.521698318503224 -0.6779636510765163 0.5929501250485982 0.5622866345264703
P 2.5438838969217086 8.419847399232145 1.345435872628725 -0.8613316432156326 0.26952308797064556 0.39229274970141476
P 6.3992646087962 7.723296067624201 5.751178464214918 0.008888303628565337 -0.02276557583128983 -0.07549735900736675
P 4.698040394160217 1.0223169036661963 12.619955148040686 -1.3100590788660085 -1.8759629984300916 -0.7817241186946343
P 3.981186724197947 6.033840540911321 8.16690441347785 0.4442218344705382 -0.267688605865068 -0.23349781891597207
P 4.7571091149381175 1.0431328830707651 3.8044221129425275 -0.6535510265601067 0.18154867954219056 0.63777782288625
P 0.3193270364372288 5.562390146760575 3.3991016523235418 -0.4245855482968494 -0.3960185352924341 0.4848797172012165
Ni 1.468292503974209 1.1141144717156948 2.464366855596256 0.3535801636225652 -0.3787193818923542 -0.05551037436247859
Ni 1.846413418171225 6.497694454266374 4.824356443035318 -0.14312611389993413 0.14966957144540677 0.1469460018666566
Ni 6.152248319861984 5.548404692199583 9.067216248592386 -0.474415584445099 -0.5188172504889259 0.9969509072155605
Ni 8.591736926133507 2.422069866795752 10.215861816878775 -0.27604340558766655 -0.03542003137050674 0.7626640167393898
Ni 2.2659229875220004 5.056994387061338 6.9960362102089455 0.06946657943225457 0.49515538809561177 0.40153792244876657
Ni 0.40418504356055474 0.051180275595752535 9.268095856594371 0.17402923123669384 0.5762829488055623 0.02007414504205575
Ni 1.4904781928460913 1.230729012613757 11.183357000240395 -0.21844143880348185 -0.5954872896481551 0.7915817282150044
Ni 4.038750566811101 6.8193238641831995 1.7388605867490219 0.8556664745100553 0.06580095765520926 -0.8943116976860791
Ni 5.619305179626053 7.606492290549733 7.878120997037065 -0.18217268627943461 0.8554998670252041 -0.11478715774592488
Ni 5.127687615818412 2.9374951438444623 4.9737205570719185 0.2682053976004865 -0.6661625446765302 -0.8499645390292717
Ni 0.7195930888968973 7.487156353210035 7.022123768813373 1.304228331116844 -1.2563939852423844 -0.1887670516675007
Ni 5.159614462151913 4.532593908503126 6.932755632819057 -0.1343707363048073 0.598324244876318 0.35377145369776497
Ni 8.33211390335211 7.022815832544225 9.027082860075447 -0.6637657623095794 0.2840333657716786 1.2028314786348964
Ni 4.621823271301412 0.4087249095449797 10.426474472220534 -0.5171069526660385 -0.699699242981395 -0.567030834079675
Ni 8.262817417801836 6.831705316867994 4.80196169324474 -0.3431219444037188 1.2082593345186867 -0.13968160699475943
Ni 7.452922627773691 6.179939880342608 6.973285516181796 -0.7644249652945545 -1.4456564884890653 -0.6456495123248428
Ni 2.257137022188903 5.370459607653254 2.439716590807859 0.1279054402954378 -0.9751872902862236 0.3268990547869531
Ni 2.3657766099384614 5.346606838179707 11.539918507196964 0.20104509770390538 -0.9236454136531899 -1.3040846064501284
Ni 1.039780699374445 3.360609211793431 3.606377443088022 -0.5981321834701699 0.1132846050584694 0.7252333826967574
Ni 3.474141906390037 2.8166002608610445 2.834921026111014 -0.3181169377189489 -0.46910394242419856 -0.4175222136921648
Ni 1.2106429441753224 3.1211173136829453 8.231780882622088 -0.4854972961805575 0.823684265176504 -0.34022919623695597
Ni 3.574229821215382 2.6972102560423736 7.085945020992989 -0.0130329219245582 -0.35378328077230686 -0.13644407389406826
Ni 4.001335871361849 6.873111994514745 6.043324877847819 0.5135711715986381 -0.22763236127413056 -0.18034386060081198
Ni 0.7588848269911576 7.390853161912795 11.144002183420668 0.496681594932151 0.11867080907104724 -0.17311031896685025
P 0.288759086075247 5.449019654600886 7.913519876645276 0.8749001259286868 -0.3733285498940861 0.12268378688518225
P 8.380837713153193 1.6856347581987945 8.048257836495056 -0.025576305807207562 -0.17960672532447133 0.08787799205990673
P 1.879574805274607 3.274677965212493 10.396219212111946 -0.39796717437837265 0.33759818637201217 0.37250219733804885
P 3.9407082049402313 6.053647260708396 3.873715895118853 -0.22844842941752266 2.0317224848233204 -0.7901254553844521
P 6.81988256146592 3.8514968646349375 10.54910492127898 1.2069796964753148 0.743393855655868 -2.3154650588274572
P 6.3787460005259815 7.653440884791206 9.99366880866567 0.11442411797955133 -0.46344622991778894 0.9040878032362365
P 2.3786176361945266 8.442204301787442 5.939818997226737 -0.24376423383898663 0.3596510524069935 -1.165666953769457
P 6.479347556401569 3.9486110681167714 1.4951829646413837 2.7983256887161163 -0.5945802044528533 -0.7538996402831983
Ni 4.950868937084019 2.6400879645074986 0.701602135268663 0.5624447573708894 0.9821974030554699 0.2950014347474081
Ni 1.309108834631479 0.9210395043034485 7.181814771333798 0.7079725387337807 0.5982049456896343 -0.7850143594101319
Ni 6.78332393443374 0.6896424089198563 9.350381152843235 0.45661866547299423 -0.10664550247539697 -1.2059114031118006
Ni 2.8441115964117585 1.7023776541874043 9.242021814859687 0.787200054207541 -1.0548212971697835 -0.585273839450263
Ni 6.308043760522412 1.9339666891213503 2.6175553426455407 -0.06780667523132838 0.5111111400939198 -0.48011392038145706
Ni 4.235087605454712 6.89637002171959 10.330960666116297 0.18075369444472097 -0.17355074893837852 -0.40415119170189756
Ni 8.05828915609383 7.386482707362484 0.2991580645310359 0.7665571811462089 -0.3380830964282307 0.1221950201742218
Ni 7.8212573282766105 3.8091710398456478 8.31724444550991 -0.6912840223345064 0.5142363159864627 -0.45754271994916035
Ni 2.951823025772282 8.38671304586825 12.020138646437116 0.8392929182480384 -0.18071667055919843 1.173752558991069
Ni 0.28869060060188134 4.892467048546786 10.140684591865549 -0.7460513478833731 -0.755208588902609 0.4842292281014112
Ni 8.687472408901533 2.153642856188266 5.765013430959436 -0.12854204543817216 0.9336302927800437 -0.1476733669509844
Ni 3.8107840529683394 2.6834951388762467 11.386835451731677 -0.9660971550594974 -0.017550607289253645 0.14865964212365368
Ni 0.926238993531343 3.3345667094214817 12.524850452527346 0.21860521807485578 0.3484472132713741 -0.2004228907388742
Ni 3.2467791460624733 8.491910337456533 8.010379061851287 0.43229782933944255 -0.3794503465211078 -0.39494150017817137
Ni 5.651547419586896 7.757583860539519 3.6573657791334204 -0.8567280830053503 0.4417288928453554 -0.0943106350591279
Ni 3.0009433304191666 8.312721700893828 3.626134601029371 1.0049987172207016 -0.6802668452883962 -0.35072212534847985
Ni 3.630423954361221 4.260337118135059 9.45798895286906 -0.10054890265935588 0.44384799607088726 -0.47199771903222576
Ni 7.296946962183354 6.110688451024811 11.441199400714284 0.11934032433424609 -0.033848830228644926 -1.2245117918218071
Ni 0.8644777123005928 0.0885210788237403 0.16629354282766698 -1.134434992338369 -0.3876714488793194 -0.24829168939569496
Ni 4.4879612046109925 0.4012176400895917 1.7357868505694123 0.04862161766244529 -0.6959911980021884 -0.3662312767276725
Ni 6.05996414450173 5.7238086052341846 0.3722203499917729 -0.5436633629983282 1.0005005722400317 0.7507099297013071
Ni 7.885543560775395 -0.3111700561095164 11.302268507870155 0.13673820809571935 0.9712694432890563 0.4746372135376019
Ni 0.16200238724651733 4.771716345507297 5.621478692280763 -0.0018355105468420003 -0.8773375317255858 0.2381080639944738
Ni 7.647078944765394 9.02476336522751 2.3288377083041727 1.7246651473526424 -1.1914633460072706 0.6678319619591531
P 8.575075131363358 1.57465224636041 3.4726694687126756 -0.53700472003123 0.5095031721768516 1.2664297722118318
P 1.6619261686691753 3.200136934201847 1.5192123545462421 1.0711154063441164 0.26558261526565874 -0.7859769804337173
P 4.948598102967158 0.9619685858859381 8.034449002365376 -1.046676813685778 -0.5353329887557619 0.7455080737853935
P 8.385983134902116 1.6002171526680988 12.410832051744633 0.16301282552153215 -0.24000579523781887 -1.1592821332890357
P 6.247947757644027 7.692603762060581 1.4523056515665704 -0.9739585600854452 -0.43032527899410405 -0.30771116900459267
P 1.787651079774172 3.106077543281982 5.88759071366356 -0.4330267370856671 -0.6731405186562601 0.16250657530907495
P 7.113685242204689 3.9950640438009932 5.843830298432189 -0.8024050440827536 0.28868346294918024 0.9869961099956938
P 2.390954032646845 8.343513130168898 9.93259057991928 -0.3824544234547543 1.0793709614846896 1.1280175188477992
