# total energy = -381168.7361187929 ev
CRYSTAL
PRIMVEC
9.22926263088779 0.00000000000000 0.00000000000000
0.00000000000000 9.22926263088779 0.00000000000000
0.00000000000000 0.00000000000000 13.50795876846620
PRIMCOORD
 96 1
Ni 4.138807501401291 5.031904798489891 10.357700702201663 0.2414247870725326 0.01644091916484265 -0.1441085324178615
Ni 3.5687713173592495 6.8827872952308935 2.7502879949142587 -0.09177167068735809 -0.45676676101508434 -1.0288773236105118
Ni 7.345634821778856 0.49201199681499325 10.224659956838922 1.249860812109557 0.5374562057463519 2.338527854184192
Ni 1.268875958921638 9.123643059903253 5.268779364339729 0.2808066313042648 1.2736774549131806 0.10205531200155327
Ni 6.649573054984822 5.954960282441395 5.962723938260581 0.8100921283143661 -1.8369735045407716 0.15713322681230357
Ni 0.8101889840180982 0.2652563946362851 8.066777110076263 -1.5760708112492856 -0.22891045665560575 -0.5922124755516252
Ni 0.1799032498652339 1.0206826252441143 2.584086508516884 0.6260502500366766 0.017132288804912427 2.808230349424338
Ni 8.135918131913431 0.9469131281414648 0.8300780452286837 -1.9471396185749177 -0.25461737450340666 -1.9323328925793881
Ni 8.269484022326235 5.079620086869811 10.532587847766223 2.6836202920507204 0.4594558778114732 1.1622530429919016
Ni 5.059269562522089 7.840360221840212 6.86279948090896 0.13024797238568536 1.311726439266102 0.0065128614178533
Ni 8.844743969080664 3.2637349544492453 2.5167756494815974 -0.5968885408710559 1.0245203321933969 0.518909553092416
Ni 5.458518239509892 4.302746895500423 3.341666849048866 0.04227639217070784 0.6653755299988606 0.5416609878563188
Ni 0.013209843763670978 0.0889119484846483 11.855935838321736 0.1916366599058119 1.1941887153582338 3.2839191441549054
Ni 4.847965592027261 5.702650697580614 7.747557216183229 0.45497161678787446 -0.9304832625106298 0.1165794737596573
Ni 9.18344868247615 2.241335686334983 11.203785057805067 -1.0271405434250633 1.6347536698024747 -0.6894608530828384
Ni 6.266494046322283 4.474540392193619 11.730055154994805 -0.30428980202786954 0.24933170062443513 0.5502168478461299
Ni 2.4684124668571377 4.995772234852099 8.546499420623034 2.2908997107832674 1.4974601034239179 1.5164068197297496
Ni 8.203134852468743 5.718829595168621 3.6915629664461895 -0.003520868669064904 0.4549065678778939 1.4556567942348866
Ni 6.300688464784102 7.050676813783913 1.081375179966588 -1.1596022356326159 0.6133364020144341 -1.560505866931493
Ni 5.0284161371731395 6.920165809338954 12.269387427744327 0.981058147244704 -0.05910169125816273 0.7079092895960131
Ni 3.860794419802003 7.104686459354377 9.15484350553133 -1.08036777818032 0.7795152839687736 0.08517961929213719
Ni 8.710781220369922 6.543233489663074 1.7487671649766028 1.1908755918246008 0.1724947968700384 -1.7534913275557156
Ni 3.799429051825584 8.192096654228436 0.7700186179303613 -0.44169701116615545 0.07543770941402493 -0.6204897252297636
Ni 7.941577546339744 3.2320508954534493 13.123833495392644 0.06100687870067559 0.5705146788632175 -0.025184469685427594
P 0.5096795744834033 2.2012622275060445 0.1617492900502819 1.8107973603660361 0.39779953845225685 -0.06666973341340776
Ni 7.455112336433132 8.358140320232911 2.5792909835957603 0.7545712124289262 1.3223425242190516 0.7001571564544199
P 0.9357826372737311 2.145905109575143 4.647265121497557 -1.0667118779597822 0.19848479317589685 -0.8640662685379763
Ni 0.8106836725011086 7.230804334733796 12.645340522643203 -0.8358278425175734 -1.4804278305319796 0.6253347120268907
P 1.1900857428869431 0.6630265437327029 10.056850732871762 -0.11548649780579466 0.490041206797498 1.4227255907245044
P 5.6770671812577636 6.55781572479659 3.04174903525598 1.769597746199275 0.06323036871455562 -1.2227948091307006
P 3.3071217186028234 6.5636024725362825 6.402799181917129 -1.6475981298653108 -0.0261000395211615 2.1514358762262686
Ni 3.542800172001204 8.51551770852196 4.972738763825065 0.061410284786681334 1.3523740375841353 0.2438382816100317
Ni 7.546168242652917 7.884549931852409 6.480956270527674 0.44259355483849583 2.532214454640497 1.4208764533309077
Ni 4.835635297002972 4.336212202205566 5.858766445652733 0.9174521403582845 -1.8292254851642367 -0.7644856433291608
Ni 2.28596840095883 8.046726536767679 11.158803477049545 0.7308471293391091 1.4171308702455463 -1.3520868453610198
Ni 2.129855421665534 3.0848533839696315 10.207438152560986 0.5899787011251001 1.1272168773233748 -0.6474701104733495
Ni 7.779567068153843 1.0513514653382097 4.473997711544347 0.415135201517227 -0.14228716293840657 -1.6217991665243359
Ni 6.28314363631017 1.511882446937747 12.32649902852262 -0.0281162986202419 -0.5379647699516542 -0.5010853804268015
Ni 8.481387894899342 2.436968368692653 8.822993365574868 -0.3341264257733278 -0.8522746752196869 0.180819771795966
Ni 1.0315270089668234 4.592407306681038 5.01492387796954 -2.2795493187674545 -1.5468921328028005 0.013533772820376691
Ni 5.306336926144999 2.0728739534919125 4.468676118646888 1.9436524313572652 -0.40141733771050225 1.6198132464425588
Ni 4.666066052630775 9.08692905271267 3.086244233864961 0.4039948686296913 0.46740907122027886 -1.212824071071234
Ni 4.326909105360893 3.4633823661000034 8.52395417759509 -0.1811920675337202 -1.06287604915346 -0.47903534260529756
Ni 0.04659577880922634 6.494189187448202 6.04256905902677 0.5713978527991191 -0.5351995485016912 -0.5461017972364918
Ni 2.2539336299788104 5.825492184686365 0.3845833784896036 -0.5234452361792404 0.2573250032425568 5.607307057373865
Ni 8.608696345172573 1.9976739206641396 6.302476172977369 1.3539344400927198 1.191111876205123 1.1551765957610944
Ni 2.8638771461204215 0.07156924086478235 7.14679127891299 1.0620874918138934 -0.688732459557246 -0.8571242900025045
Ni 6.643574034202047 2.0937043995022564 2.4645675559985163 1.0134188229635965 0.6552027032309168 0.9534671250003127
Ni 5.738275651767556 3.095402431284573 0.46817742578189026 -0.5016697921753619 0.34740591649105335 0.4339785594759752
Ni 6.4019519355973475 0.9411817559782288 6.413957360573091 -0.865033260436936 -1.2911385878124215 -0.027599506884823436
Ni 4.2834761948936 2.3714313739565194 2.54218473273861 -0.5461470486521304 -0.8744141874312037 -0.8376070459051832
Ni 1.2810216686910723 7.0715810938962 8.141328325733221 1.1471277573146887 0.36327476520250984 0.02694901778501811
Ni 5.581267433988216 0.6739299947369654 1.09335845471175 -0.18943039628311245 -0.6865220821694886 -1.2006838361642742
Ni 4.707173188886898 6.513155322384514 4.847169106652563 0.4849334532572875 -0.7400498788842996 -0.14016805971287472
Ni 7.80551052572366 5.930253546079105 12.877448174286423 0.3328627285695558 0.23864259634170515 0.08635718454000611
Ni 1.3267065192675909 7.659614340286566 2.7806808800523464 -1.3075653659098772 2.041648999908413 -0.5139020725754956
P 8.195566857019703 4.3810941069234675 6.660841984793697 0.22589172443393998 0.1691978712863215 0.25232677869701703
Ni 3.080847883939286 2.15494978706302 4.704187522389625 -0.861820409926593 -0.23567168663883925 0.5935425072169584
P 6.651806536568563 6.6224113347329645 10.824575879010554 0.5041809886329897 -0.46245069877373907 -1.2226865656876102
Ni 3.1299937080443287 1.3949476879873446 0.6019426682699373 0.59209394769589 -0.1968698832802932 -0.2677711382765453
P 8.33164310689853 8.039112395004926 0.25666764272789955 -0.036201646731537654 0.4468500161220047 0.02569046278756866
P 3.931370591995668 0.19157826723478869 12.355892384505673 0.3937865606381218 0.2213979503286445 0.4592501895585704
P 4.314994127160027 1.6630116243499684 7.291096339453236 0.21980823724402146 0.15815369765701792 -0.3586416373058726
Ni 6.637898037615266 7.844448785235242 8.759789528460098 -0.3279637486060416 -1.6741468268881168 0.9718422850733909
Ni 1.9183760951785942 2.381122099836387 7.978637650883181 0.3020531993878669 -0.03048762706589588 -0.4155766599300198
Ni 2.705622977870812 4.063053712808955 6.555587780770494 -0.24193875059447364 -0.07921491706827002 -1.0570782115247601
Ni 1.1476126757448946 9.020672175482604 0.8393802191470824 0.18417891807618603 -0.023450774823772516 -1.200773567664603
Ni 4.800822517937391 8.60314032900145 10.527549593234967 0.9408023850484507 0.6068132561839356 0.973708134637536
Ni 6.848352915937763 8.286345885357205 12.17493976746659 1.1932386927401386 1.1272544154295296 0.5638318675264031
Ni 0.3986173954162005 4.693947655376565 0.602958810097912 -1.8131890005266644 -1.1973185192364668 2.3385656494006626
Ni 1.504065261394654 5.419081599810202 2.683517970675697 -0.99633795622191 -1.0992751566077843 -0.9375373411439337
Ni 7.057377258535136 4.897766693787037 1.6488622416390875 0.05839926587449942 -1.26202675804813 -0.09740675748594838
Ni 0.4920452221608671 4.329659425658227 8.610108422372212 -1.6484453083569546 -0.9382202261435714 -0.5947797220581692
Ni 4.7807673299974365 2.7938916467422916 10.866842210667166 -0.027720605843720002 -1.534284728451435 -1.6822026073130576
Ni 2.107917464126062 1.7279394877450815 11.981059722103764 -0.21835967772295295 -2.0387151140910698 0.9314991053696537
Ni 6.260033562402372 8.519892379062016 4.594840140340022 -0.7125578441116179 -1.0431518312516552 0.8408150113195197
Ni 3.865325987808684 4.327656675643054 1.5423251700946456 -0.7995205234461069 1.5550947232182508 0.060298796890057446
Ni 5.732498133290606 0.8717112494611435 8.871257795087981 -2.322874463917651 1.5683089079156796 -1.6996735104043115
Ni 1.9417353591804467 2.90047117289535 2.070702307968548 -0.5404222303532111 0.2291230868870441 -0.08778903189052623
Ni 3.0697727686480087 6.069633872019829 12.162606703663478 -0.3439711797778915 -0.27639281850728525 -4.773832288469501
Ni 3.2114604102744164 0.7329862011751529 9.374604249477324 0.4684004885992707 0.36286930223397507 0.5894991903855202
Ni 3.6283831254145493 3.303263886776362 12.668385068785529 -1.1561885819653765 0.45864032388871334 0.6162646314048226
Ni 3.0479271037359643 4.645604777130139 4.0927359447158524 2.4363511303822687 -1.237087828714605 -0.1974488957122148
Ni 6.489473034186666 4.6188768322271905 9.325314448873494 -1.2575106153453313 0.014210744282743267 -1.565284005046427
Ni 7.375491486751591 3.737666825551228 4.545158096069626 0.25006677901824675 -0.913710156817349 1.2129513406777173
Ni 2.115088601277164 6.740453605212494 4.603593173125228 -0.6375847330388374 -0.6522045398345413 1.9282425245600985
Ni 1.188507538957936 4.442874791723309 12.163404111964448 0.3431291434925704 -0.49308436449919596 -2.6727339841555198
Ni 6.56393472599502 2.9667280501254165 7.4049282202695315 -0.30607337629085346 1.7069337915111507 0.005445853605919653
P 4.76013069850469 4.96157781639028 13.184402377994365 0.21542219236118382 0.9818569889969155 0.9834022219968483
Ni 8.42808890256007 6.1462090649962695 8.31686336554232 -1.753044212715968 0.478520350642092 -0.624015736105151
P 8.757942752985278 8.22313466483224 4.6544371815749335 -1.6319781639398667 -1.3092630653272743 -1.4124008117597289
Ni 8.989698769717998 7.905860299525375 10.318959025986501 -0.03994902958911185 -2.809490447083684 -2.5930608965039084
P 7.842824434992522 0.3253195136397046 8.171882722969306 0.05091452746168006 -0.006175789793408719 -1.8954360195530386
P 1.4643978901263959 5.985121513084642 10.362954921481101 -0.36169945029559 0.0901611316671286 0.0002977337460769066
P 6.97702729709692 2.7695356223642245 10.47239644201068 0.4200028140221735 -0.6029118642470004 0.29570900233739394
Ni 2.4402816740172937 0.6216342232578284 2.724650025941226 0.8463973905033034 -0.6079851650048497 0.922191969036115
