# total energy = -381165.37988208135 ev
CRYSTAL
PRIMVEC
9.27871499065786 0.00000000000000 0.00000000000000

0.00000000000000 9.27871499065786 0.00000000000000

0.00000000000000 0.00000000000000 13.58033729571626

PRIMCOORD
 96 1
Ni 2.8363546799981267 3.912787672177183 2.979159669261481 0.6190547925554499 1.1246174920273149 -0.5088531972976785
Ni 3.8397456286258516 8.005563855635963 6.165745009710718 0.3131601079343058 0.4949383869887992 -2.248978130848817
Ni 2.017869961539474 4.548092001434821 0.6436579562659284 1.6274635638989647 1.3364825631648594 -0.600225832774405
Ni 4.486193694456806 2.5205165041287447 9.916009495628746 -0.5693723377286581 0.6809445880817111 -1.2050367138163312
Ni 8.590596107662767 6.349081281321751 4.6245801596933385 -0.7934766312448721 1.5734459720319287 0.021419860436672787
Ni 4.223086455261995 0.7485426935494068 8.113531909874741 0.6847657616000142 2.18859962976076 -1.3595859819515423
Ni 0.6727717799512706 3.5988609115734986 2.149984943387243 -1.9071646208438768 -0.42825836916274634 1.4001165950757373
Ni 1.4930472903821548 6.74534735778856 2.7254239320975184 0.07565702451368261 -0.38351346084688787 -0.2676047879020101
Ni 7.975315245120549 1.6543577486062275 7.490031033818531 1.4005580534885298 -0.8261206425321387 -0.1219368814168287
Ni 4.555839728361315 5.1286704703182515 0.39416630328900576 -0.26152747135967863 -0.6515777048838198 -0.8625475179006049
Ni 3.7276216379914144 6.259884995160807 3.8584728588722506 1.3877431611120485 -0.415741210532342 -0.170406546882442
Ni 4.969067295632472 0.8190228839218102 5.113391210522015 -0.5443768441255851 -1.2039540222751135 0.4676574397856591
Ni 5.545618802257103 8.92573401048677 2.8946899604614424 -0.5738946510790438 0.32244153323623176 -0.08722544607757236
Ni 5.357260890151916 6.485209307355998 11.2778724592658 0.015002386946103194 -0.31219157337344944 -0.48288479825837477
Ni 7.617611507703452 4.506569752337741 8.315498913097398 0.49454423687417404 0.4775531016328163 -0.1411579344299698
Ni 1.5148337129251586 8.940811922170067 11.506226271869973 -0.6728962638559379 0.541291520332042 2.1975987479355763
Ni 4.738036573784834 1.6662066675105784 12.25279167127802 -0.7562609414265233 -1.1556247390421066 -0.8396742128468571
Ni 5.529056296192682 4.517945456783109 9.650934241007457 0.8878492298901871 -0.31089419471826457 -0.7987599911309985
Ni 1.9720795035966616 6.636712163949765 5.061677220998515 -1.7882935228365655 0.845644571497679 1.6845916763705249
Ni 4.397229376167913 3.389653727128393 4.96164432372685 -0.8763617980758778 0.002717913151795319 -0.5305630781709444
Ni 5.760161247759377 7.613788677172057 13.181631857314596 -0.5356559193128194 0.46866556933519926 0.7857900612338918
Ni 1.2080144479211086 7.883335344494997 9.417027117546391 -0.7808638275768681 0.2243583185085491 -1.4999944398099976
Ni 8.88379421922 5.909966099529733 1.6704767320992882 0.5032559057155591 0.12449255795914688 0.586539593536564
Ni 6.160463565199868 9.026482296675841 7.0159007656762 -0.6441618720357228 1.1603907929721824 -0.5360215301823542
P 2.2476573355929204 0.9822447574115809 13.225048819990587 1.047200804510048 -0.38159850321236216 0.5459611578935695
Ni 7.575059321254468 2.289940439310326 3.0402572231451765 -0.9500295600736735 0.32821957337058955 -0.2566729714808548
P 5.863238491383835 4.423488139284055 11.69415086799017 0.2961196075122513 -0.5211500123871606 2.734827668162471
Ni 3.5063706816294347 4.608849026482346 11.226864579944824 0.0583594137754995 1.0219266033242915 0.35296284175354053
P 3.4202178139497965 2.6860394989092584 6.8624568019291114 0.897808655095744 -0.5059262534588707 0.5013306636683883
P 5.599491020862164 5.276248430516922 4.762447944767965 -0.14299395919744406 -1.1680354540016336 -1.4001762446690789
P 0.7345383291779607 4.980730640239183 4.150422983277849 0.9601054562524368 -1.4273594899520903 -1.9806562622751245
Ni 3.5230909258468506 7.917165538954874 8.247229840481383 -0.4741281351116673 -1.2968634061113407 1.7729743759809917
Ni 8.06568064935663 3.796488259845833 11.323027325239194 0.3320024374517895 1.8396554222483092 -1.4503958029462634
Ni 4.354203975259945 1.0752917102485668 1.2787544423102086 0.2533508490861572 -0.8141822392233397 -0.6351288152991771
Ni 8.430909424543051 -0.02232829949211438 12.771546990773981 1.7765168419166115 -2.3365337065722986 1.1941591476718787
Ni 6.390408677406309 2.609879807157565 5.334451953228913 2.6941363610906954 -0.11250170414585786 -0.7960575045981709
Ni 0.28314740759701795 4.725166996243461 6.325544893151997 -0.028579097189273362 4.364723238541696 3.037773554567936
Ni 0.7918362493174655 2.6930634860749545 9.599478199757678 1.1764966973951092 0.7617623308607268 0.8260283399286483
Ni 1.9148669476340712 2.17882782859803 4.175546031692431 0.9434976724924267 0.31124720718230914 0.4207602610134883
Ni 3.215659265660587 7.072533401958664 10.528550353666304 -0.5179541311576821 -0.4294763007302474 -0.17208856257055524
Ni 8.738034887138209 3.3308452322060935 5.083378279364604 -1.1241940313366512 -2.533143137102353 -2.4306101141334335
Ni 7.2736217108819945 4.842041688897496 3.0027619363068982 1.2941670902261 0.6239028646763707 2.80154445276373
Ni 6.203591031971539 1.3514448225675115 9.831186267791704 2.4859001449549893 0.35050975222735764 -2.6605140450505598
Ni 7.554024474616908 2.0626861544196737 12.49395103829088 -1.047538647465441 0.03108052345488841 1.6765675205144674
Ni 5.661129523823481 8.270118574352372 9.371043662334031 -0.4085696324845674 -0.6755005342480044 -0.43887651099822483
Ni 0.42847899092274866 1.0764051560344103 5.724968010083329 -1.8030395707974882 -1.1273906838970777 -0.410446537792306
Ni 8.992661380930846 6.577578914006596 7.824121369732352 0.9358987770992463 -0.10544659707128937 0.024874137533860387
Ni 5.323254400109281 3.8801822680817337 2.5542845311989124 -1.1994833880982698 -0.7331477524478277 0.48304549220595516
Ni 9.091637432577448 4.47761088319093 13.479639126795183 -0.057587825716797596 -0.6851555408392652 -1.2823955515124688
Ni 2.6699223711591737 0.8107267849457883 5.882553992153755 0.9471455536576591 0.15720881724524535 0.7470345377322489
Ni 0.754914387058896 2.0568869576184055 12.153139201316518 -0.704324143347916 1.5138627131516573 -1.0230254928154252
Ni 6.055651201892468 7.308537514983069 4.925737552876374 0.22650544675853895 1.1326251928231394 0.08044776103410661
Ni 6.745969031685656 5.513792810211744 0.875519123095508 0.6423304752539389 -0.4272916343741028 -2.1444717862036096
Ni 3.301997707637866 6.963109517354896 13.138596249820257 -0.2682676182969896 -0.8014429372798004 -2.2897162319981272
Ni 5.54272384321391 6.64208453986646 2.4157514622672442 -0.21403713908819913 -0.11891763497453067 0.24600777845752472
Ni 7.749007389147864 7.7988804816387685 2.652552616900016 0.0504653557394034 0.35319424103805624 2.6293036808860264
P 3.438533997126921 6.386196140849867 1.7039246435060258 -0.31645111998075176 -1.1705782750281453 -0.04972616358053371
Ni 1.2694209830103758 2.891600148405727 6.957152582400634 -0.21242197208227934 -1.2751668949745134 1.157617086881787
P 4.8602279700662745 1.7677714806092668 3.2227908859189145 0.17948794035841992 0.9698519941162395 -0.047922791823207786
Ni 2.2842897019471704 4.187391239110829 5.397395971374132 0.7530984845381417 0.8012878997591749 -0.24532386501662265
P 7.757571642983977 3.540729762837588 1.3303246117530372 -0.4556462742573959 -0.45473327552482334 -1.053322858247386
P 0.17230573535927696 8.458829077623076 4.220972764011868 0.37276162164702253 0.5262369399917647 0.018277458152949167
P 7.620998238635393 7.724418794710487 0.6749958879084929 0.685231131272207 -0.32871476783945325 -2.2519122737764765
Ni 7.827004266446198 8.662023654824626 8.696495008482852 1.5109200855835656 0.022893102548089603 0.3856780725983745
Ni 1.343557914917787 1.047706090904295 8.31204908690426 0.34475948000714174 -2.380758737828945 -0.8628809899806236
Ni 3.0050138804087663 8.378568193893527 1.2281242066849298 -0.7800968675038564 1.9726503612515123 0.27175686239717073
Ni 2.3684290884974084 1.8288996542520732 1.6868406736652344 -1.2319224824635815 0.37152029304075374 0.4283519573178171
Ni 5.567674307531687 2.794108691140249 0.4179949709775442 1.6823949258295219 1.7232726378804901 0.1432436133144049
Ni 1.0061281695179234 6.648607476428526 11.403395842061377 -0.5229433568421574 -1.0645930318445664 -0.24540022678051288
Ni 8.7648874880068 0.8784623314560874 10.558453795988108 -0.23829909695935733 0.0034486206702327702 -1.2177978701367413
Ni 8.20681918142717 8.238413205600478 6.189455837720255 0.6352414296176415 0.8106495434797331 -0.4426316071652828
Ni 7.172186799791654 5.119874248610089 6.229680922476827 -0.3280779055864027 -1.9574296876470163 -2.5809324886714906
Ni 0.35809715492809474 1.2112156045554083 3.042484114716864 -1.3218046494377107 -0.09523854619003598 1.309092601187681
Ni 2.682782669985666 2.4985909008625105 10.973781136437069 -1.3421654724822498 -0.6537168627140096 1.2722700330426928
Ni 7.73137783087201 6.223976368567356 12.163989730499562 0.12858241175780435 0.4889387177619386 0.9567044009906879
Ni 6.818454352344066 6.862175656868186 7.4014332247674774 -2.488347578054218 0.5425428762406397 1.7370547792662472
Ni 6.044154874153635 2.6969883824700522 7.528083043549732 -2.0723325450351986 0.49062741831827117 1.334586117473095
Ni 9.481825950796527 1.4682267280727272 0.6483270055945654 -0.9412096477891984 1.624448688332041 0.8730563878517287
Ni 1.2597154472437735 8.265636955064352 6.813065274740584 0.2617935805368717 -0.06664710770558845 0.22192528358702424
Ni 2.1696790157243493 6.122875491212769 7.646435835484475 -0.9319536764085691 -0.40423655232685224 0.21249653407395658
Ni 3.9859781751666272 5.641718452290277 6.288945930171322 1.1657394588786054 -0.4275292043062056 -0.4731022649503142
Ni 7.334415850789048 0.30174844732102135 4.232746525325674 0.7253660516198798 0.19297260510841605 1.2075167999257075
Ni 6.457855655883776 0.523754691074398 0.6094092917648716 1.2367224749553862 -0.37583434703507534 -0.02068092538811922
Ni 0.6321486383262598 8.845176207880996 1.7071434296986017 0.1803590301094636 -2.5600273630877073 -0.5787920883806612
Ni 2.9817428634846377 0.28215922446208186 9.989234329863255 -0.2353767811062398 1.141989407646859 -0.7114849227624134
Ni 0.5489343396497598 5.019385766437716 9.55816750535991 0.01306763181723556 0.6706462914794966 -0.4771149856541332
Ni 7.38518897862351 6.263364513241568 9.835192816877763 0.18232669535879567 0.804803626221917 -0.4431905649925464
Ni 0.7964069442683529 6.987262012192818 0.01586567457678124 0.05887466284902118 0.6666109450678583 0.7722994829466248
P 4.529024242352252 5.719205000270101 8.359525487341138 -1.533047256499908 1.909110174606022 -0.564237587605254
Ni 6.609924514085348 0.15886551685265807 11.534445627440688 -1.4513067447963068 -2.2335599965215343 0.9929376722911094
P 1.1551628879530718 4.442574455796388 11.589161281228524 0.684673201886208 -1.017394776892209 0.37402866128490425
Ni 2.6797763663638885 8.745847565068877 3.5433138849322328 -0.3415471437174311 0.6805172707363054 1.2520544773267663
P 4.492475384431939 8.731382048567793 11.080753584569004 1.3994655917552996 -0.33634657335309814 2.1113253813586286
P 8.072871653390202 2.842766271981609 9.383211769030325 -2.106328699474985 -2.056778399350683 -0.15109036305233334
P 8.450413283225075 7.959365134238341 10.816182164165808 0.5186598989754551 -0.10693398025009326 -0.39499755022708744
Ni 2.7965397144393407 3.946738489930527 8.646410361292638 0.7497262256317991 0.08363541473346887 0.19364057770971813
