# total energy = -340871.9482207503 ev
CRYSTAL
PRIMVEC
9.24613187918713 0.00000000000000 0.00000000000000
0.00000000000000 9.24613187918713 0.00000000000000
0.00000000000000 0.00000000000000 13.53264861852471
PRIMCOORD
 96 1
Ni 4.480786449923531 7.426030798362574 2.7711211933686775 0.05372191500348813 0.40820736404914215 0.2545975770090647
Ni 1.6960272120705289 2.632105600947111 5.147873597070419 0.2856035384722759 -1.0240061115611396 -0.7312294523791923
Ni 0.5601186477305197 8.943737111501122 13.062822280210302 -1.38671831939196 0.39804379325257905 -1.3919638840616158
Ni 2.387952243216224 3.5541113771422412 7.299416117983296 0.016799073835209774 0.8466442164067871 0.3308510974561657
Ni 4.138420679641803 2.8880477767915664 11.292372952848705 -1.1103398990623778 -0.24545601971911274 -0.014787185611503566
Ni 6.203793874743386 7.705541364302312 4.448777266058934 0.9595025325611152 -0.025235120417704926 -0.3023481049204664
Ni 0.07571379991103978 6.0400171412174 11.020244498581025 -0.9023404815278266 -1.1230378062450208 0.40807495223633594
Ni 9.035884061555883 7.749987520123427 6.653949200950098 0.25191488797057904 -0.6980709633493526 -0.2621373370295356
Ni 1.554256272356536 5.484546523969775 1.8591964747337222 0.971014904076089 -0.6282775967052987 -0.6417437495125335
Ni 1.1339271182837443 0.2029821818123803 8.65158430947771 0.008035982930599064 0.6363847991934654 0.05962439653085216
Ni 5.74068286858316 3.5702921078863548 3.7313708201374087 1.4182053342566479 -0.7696273354311004 1.3819664065292716
Ni 3.2691271011450667 5.820042418284145 7.936708529844567 0.7478896866436926 -0.13869944558714822 -0.7829037408250323
Ni 3.4678542130783376 1.6750292466305967 8.67134236863605 -1.0754621133485867 -0.37968817356352674 1.0325665995366409
Ni 8.630080580625377 3.598844163050824 10.89571759477433 0.04904739234595424 0.2761627047743502 0.6633932094615091
Ni 2.158999526252949 4.523133733813839 12.170113797407055 -0.4536950640682961 0.23580641244449066 0.773103724015475
Ni 8.155707785867248 4.391736954039785 3.268012942256686 -1.0360219050750932 0.6133523428540341 -0.07661861709600354
Ni 6.338056955392111 4.724791869544757 6.03265167258268 1.0164781786152108 -1.1300710589427183 0.47616599147730254
Ni 7.013375933728418 4.056379751703222 8.969453378026037 -0.39143914345186775 0.546068115785079 0.09114097908189465
Ni 8.612623883685442 8.371854610213038 11.132985358113707 0.33100304965299765 -0.004422811658043996 -1.3730572769650997
Ni 1.3204400900381736 1.291425728281015 0.7878712167791738 1.1268607795355368 0.41507040971756254 3.3587305328388415
Ni 4.791410249551235 6.418516794783695 6.140939595014582 0.08809525027703537 0.683441643471952 0.2352993909010851
Ni 1.147787069932559 9.17849639926857 4.734383806729868 1.319740053599198 -0.14666600873239258 0.33624655744012416
Ni 9.650835045018868 3.4804566907950383 1.3200831893486176 -1.7752716566556006 0.694930617948158 -2.031657178803023
Ni 7.860441811248671 0.5737428230170629 8.307679058242329 0.6246693105287501 0.14959938032910364 1.2785697500084754
P 8.392205346423207 -0.1510790206511921 4.205636359766035 -1.5582204133314261 0.07167978503348946 -1.2156078044639582
P 1.988334424495897 7.615594993628751 6.5496935166196275 -0.6272607254050101 -0.47784954982731254 -1.5880266980595812
P 0.3726144906413653 1.4620445993787983 10.467043806703503 0.01321109937363531 -0.9168726137057306 0.4930910493674154
P 9.116981884045378 4.573007369033122 12.922542741564325 0.4661847118948746 0.6925322929193105 -0.43069988872470333
P 6.5801946563788745 6.079609077815281 2.725853981038947 -0.21528283856984212 -0.46521412045148913 -0.122263411518312
P 7.311258563661616 2.557849916029412 7.566198458813121 -0.6216006989057552 -0.22895467962997987 -0.22257165892177153
P 6.138340507350485 3.7305830497034664 11.547788099177497 1.4439752441319003 -0.371370911947083 -0.266375029259967
P 8.259486369794063 7.615530270705773 8.812109178430724 1.087495390364037 0.1351001582716641 0.04929781779386349
Ni 1.342436637718314 7.006487565497353 8.612732063428133 -2.075120135082665 1.3497566545659463 -1.590359717068132
Ni 9.163221789446126 3.7699993097961264 6.164323987085974 -2.1128600728356 -1.3411848537365354 0.5837093231766206
Ni 0.5989107939230492 8.507624810353928 2.1410000813731975 -0.6984651134639778 0.7864477494225488 -0.8514598926278757
Ni 3.9403962737294194 7.75363974220567 9.595433147564208 0.2592579585992116 -0.5370872524427073 0.1205250886709666
Ni 2.7890864275605702 8.352983255099476 13.595711069631443 -0.1536496391390773 2.1548801260211277 1.989674920833967
Ni 1.1383097847824355 4.754740090619147 4.03883244267112 -0.10912507436414111 0.5181251095179077 0.3559759175482515
Ni 1.2412099861831416 5.549870445516723 6.259242002857313 1.0117671462927866 1.827422370517227 0.44754138576207436
Ni 0.6283356839345154 6.779319351981858 13.572434857302738 3.5863968326747004 -1.3819931460021488 -0.7409338241511498
Ni 3.301904638566713 3.5381710458263265 3.579074083921074 -0.872775109165884 0.2381908535162672 0.37868261511714785
Ni 3.672073527332753 5.841558167107888 4.216502413920596 -0.30534318299304836 -1.2180706641821537 0.7535823661530957
Ni 3.4936324286866736 8.625919821291177 7.4562730464299145 0.710702278960118 0.22266190464273267 0.1786047664225182
Ni 2.6849010138321887 0.2887187886529165 11.030218301011695 -0.7319110518272491 -0.45997806886353043 -0.7604017030677743
Ni 7.787683999691284 6.881572324152799 13.066367247163042 -2.3119421332758634 0.11454675960034465 -0.8995688323199603
Ni 8.23466975189852 2.3438297020099905 13.111553093532457 1.2321004028023426 0.1210115413890819 -0.47913870095238137
Ni 3.639249759251838 1.2001201762249478 3.4487822169035476 -0.36441916321959816 -0.49332759085825356 0.8357643362694898
Ni 4.9522004824884505 9.111730081152432 12.351113300737076 0.960561569953249 -1.8364626263426242 -1.6295764964769095
Ni 7.213813580054638 8.055045148375156 1.858953301465968 -0.18289876581218178 1.5219292922098757 0.3924066495714597
Ni 2.4862663632174558 6.037640885330978 10.132421671849315 -0.18967567952469916 -2.464932798674703 2.081293867993545
Ni 3.4258582821984738 6.808324467607163 12.230361592566279 1.117487308740437 -0.8151955109792025 -0.354931278333821
Ni 7.509643568716297 1.3181285570747288 11.12791015633917 0.7129414527032818 -0.8840995330397676 0.3569845613184239
Ni 8.715015547834192 6.907581693057479 3.7622390313312497 -0.004517942475011574 0.3087918036632811 2.135972490483347
Ni 8.518821876028856 0.834682533128486 6.125689025134959 0.8046848412558658 0.529340775728069 0.20605026422798062
Ni 6.657122473402315 8.119462949000434 7.0675342264487435 0.1508031708292177 -0.7705398199430407 -0.6456826795556234
Ni 6.161317145007126 1.0804752300370482 3.5953001207112707 0.2727626779538657 -0.9522705335890503 -0.422997120763807
P 1.5267860146189587 7.45785598420328 11.460854118261896 0.2522360187554237 1.9523432742630442 0.6249688440470398
P 4.6753528025226005 2.5101028911364973 2.13060742916955 1.3277914631487648 0.1323444499033979 -0.8231070525167953
P 2.8947974530448253 8.824545225774058 2.3235695778919903 -1.118922755635383 -0.2673929290015202 -0.520039295821485
P 5.34078766590722 0.09097546514888735 5.654319374002936 0.024467389013744956 0.19739567387677617 -0.017966611780749705
P 8.207541601039534 5.738130936191516 5.639244480628536 0.9849369134738198 0.20388333848364887 -0.41337888094775255
P 1.333893211885422 1.7229981786880022 7.053202722075387 -0.06161802992211323 -1.0641446314532383 0.0871089751043661
P 3.4601799236397013 1.2693089808867761 12.805580098227205 -0.4245616370374495 1.1269541105802914 1.598205695475112
P 3.9571595107803206 4.03073098194084 9.265547806058713 -0.9628717061436642 -0.039475946607435246 0.7797914204482957
Ni 5.475411345698242 0.7486121409280284 7.822885872884991 0.6632481992432125 0.25958526003164323 -0.09799991098525704
Ni 5.362414368313209 6.941404043378602 0.7332219544574131 0.2704620548451471 -1.1870335923706912 -2.16953258582698
Ni 1.9797817525311514 7.07704479767354 3.3021154503729786 0.08684800813349558 0.8293538047574555 1.1684285756749941
Ni 3.539909318614837 8.403550350207793 4.8797514917349805 -0.2499765332972856 -0.7477868425172411 0.14023645105696494
Ni 6.8908554405339935 6.111092156777399 9.987581940973053 1.3931447917435942 0.5491801790514993 -0.1353976349074249
Ni 4.746668217510798 5.552366901117243 10.611423080213447 -0.05700161419602441 -0.9880811155297563 -0.36864348571359096
Ni 4.7688589339598675 4.896085708267866 2.1837902549793013 -0.3211498110080018 0.9026004200574327 -1.8530475272844988
Ni 8.502502453306935 5.533514038267388 7.993275439912801 -0.31565382089043703 0.7434061969510423 -0.9810596899066006
Ni 2.8491400539508644 3.355606172373461 0.9676456076385689 0.7015658638764886 -0.307228058720587 -0.2430574375799492
Ni 4.782016179587795 3.296384697850007 7.5617593909101215 2.4427665469903093 -0.20561549068340718 -1.1622008495977274
Ni 6.489628794871109 2.021333869082034 5.706758810811644 -0.9715044421179978 0.9306046185798424 0.16783878615526576
Ni 5.872911800224053 2.0185877679214617 13.021831403862944 -0.8944289399902338 0.6000710523640955 0.09041618510072816
Ni 3.7887412190637364 1.5390556315889232 6.169007152869914 -0.8935941027937642 0.2205793110820911 -0.7989433107863982
Ni 6.031945268109051 2.1777229432568515 9.7529937066449 -1.4511673910049654 -0.28000830377268554 -0.42442022636357873
Ni 8.356700200104695 2.351540975976042 4.201535700288884 0.3338927124959669 -1.2342907255854418 -0.5240404465610782
Ni -0.02600012277282644 2.6565616197003563 8.70097899506697 0.5790527982412157 0.5857078416638881 -1.24635537005946
Ni 2.0341305155676643 3.2863064141293874 9.98836693756744 -0.3920829476834538 -0.6710746372661669 0.267132733361598
Ni 7.134638952990729 2.377272960925109 1.6624452611776035 -0.785312350266525 -0.13274039979023589 0.9945106732051839
Ni 8.586235423374758 6.119718797796974 1.6722295179052724 -1.233546648330566 -1.1802137412353804 -0.53461719363566
Ni 5.016951143860465 0.043966281577904345 1.126319400994455 -0.3461566174649845 1.2795521685264029 1.3555079552274267
Ni 4.612765736004372 4.750209486010795 12.870469451577026 1.6899683673014056 -0.8979912034201954 -0.11057311966457731
Ni 6.515619671512082 8.452776756197313 9.799112487718364 -1.0838714204582043 0.3678952946936567 0.8074919716873578
Ni 1.435702369727382 2.097632949139418 12.293815946252392 0.12162423527241635 1.0232558636586764 -1.5408400130714497
Ni 7.109184351997276 4.4320223505267 0.20130585810729018 -0.47664601643751453 0.342386608899591 -0.02997289221300645
P 5.389237396821022 6.730601483244296 8.202029981841495 -0.04993750826039141 -0.2366952428073472 1.1126605767757547
P 1.040494955901308 2.7682641386258604 3.0736028492859444 0.8503293785678582 -0.7001844101479296 1.3900656385976382
P 0.750764640423588 4.849244804296622 9.306348212089883 0.02412363252108103 -0.5630998744563851 0.03274505564150489
P 4.229356386423719 4.091995851603979 5.6246966167698 -0.5347568045373178 0.3370114606306067 -0.9324807525566328
P 3.246159709620279 5.579402590657693 0.5986814898530756 -0.6945390389366941 1.1023121436618952 0.576836250205871
P 8.020473861373876 0.5221817687344645 0.6429307030657055 0.2653998098308913 -0.5217542216300628 0.6283310756510534
P 5.914186532819321 6.845466179263792 11.90241146645778 -0.19554293693875355 1.1180861186667002 0.8296782779764098
P 4.735720797395924 0.37716266290023914 10.043742021239721 -0.3295730020746904 1.8528346399427444 0.06527053907303598
