# total energy = -340872.2687505798 ev
CRYSTAL
PRIMVEC
9.24305593013559 0.00000000000000 0.00000000000000

0.00000000000000 9.24305593013559 0.00000000000000

0.00000000000000 0.00000000000000 13.52814665616380

PRIMCOORD
 96 1
Ni 8.258124969357734 6.428841049590654 0.25663344280620376 -1.0313856918546624 0.20116285422869223 0.211261633225591
Ni 8.751084861494714 3.4864528984754775 0.7222477545166706 0.601221621028771 -0.5395894500392707 -1.0957496599530288
Ni 3.7646596333944014 0.25376439830243835 11.538183205926865 1.1374593809869895 0.5852473570877018 -0.32959151401745174
Ni 7.283934622826292 7.950377428272462 8.50463172028789 -0.9851477439330453 0.31617601194249423 -0.36926132180324794
Ni 6.529257607222442 3.971556193227791 7.026533082087541 1.178235534463087 0.3737913484631175 -1.6263600464221408
Ni 5.599775921337629 1.1865403092553641 0.4775748258466536 -0.933464970846773 1.707282690210137 0.5426863437970396
Ni 4.523560725474479 7.334503380816306 12.17719909205595 -1.4862210401749887 -1.631734937580809 0.8171289805564895
Ni 7.616370365810911 5.015707228705753 4.648974203067553 -2.1616058747807356 1.1332281165144613 -0.5732094520865612
Ni 5.498259440071987 6.148739488243663 3.2803586358808983 -0.08820220816854486 -1.1429538284426575 -0.16075668249750377
Ni 0.5306530734718877 8.406318882144042 9.625939163611152 -0.1646475329114777 0.1259172062208154 -0.16379007000718887
Ni 0.898086722735685 1.859046559271347 5.762002641358527 1.453026041480259 0.6276096241039966 -2.712334629266277
Ni 0.5510626648661027 7.2538299902593995 11.94459574557993 -1.5785935776711393 -0.7955628243499395 0.27796736208325673
Ni 8.07062034048085 0.5382499409900732 1.2611474823257345 0.9495251096334293 1.034182023652877 -2.854420474827155
Ni 5.570253601282775 6.264018879516091 0.594556787987618 1.2652097837618017 0.30952739627772496 0.26643365041204436
Ni 5.505524481888867 1.5604958586540094 2.886906708995809 -1.809639335502193 0.31598909274266873 0.4131104577777143
Ni 9.029587374197531 8.524491349865178 7.224760579936132 -0.13065600645738143 0.5679358623924476 -1.3780788985494072
Ni 6.096830487170382 8.413842729521829 4.457984017868602 -0.3568395511001274 0.6503949974296283 0.3379540270495341
Ni 0.21720626421322184 1.6718099790111178 9.480024588371972 1.9626012045456265 0.7825838955917684 0.39903006842524824
Ni 1.5516964695831825 8.112740945518413 2.513475240857999 -0.7447244015418335 -0.10258907301783622 -1.1396149938774116
Ni 6.62415606057347 8.699869089602434 13.010099164138268 0.16394279353496927 -1.5418720538803898 -1.2348252579326735
Ni 1.5446717472157157 0.4701461819430575 11.305404241391658 0.5395765945234643 0.6405564140726517 -1.1205620910110183
Ni 6.778773897103712 6.41853504243312 11.535206941976439 -0.06947454985205455 0.2622124132418452 0.9395641417659755
Ni 2.5796444283372377 5.438808105509426 11.951441152665913 -0.2432566980749488 0.3111135098179223 -0.9884613816873105
Ni 1.8475019826437602 8.768628181301887 4.89808194988482 0.1303068506480788 -0.9139528689557743 0.2199100529292084
P 2.3877955632594214 7.672688304475352 11.099248974629152 1.8507947266945801 -0.13353512777738938 -1.1713480633146343
P 4.420685515014077 6.844547481796993 8.017252785210745 0.13450160545571674 1.622495164150096 0.15648299482281436
P 7.545429912955243 2.0057338539709493 12.859503905468975 -0.30402240729909574 -0.11332368582652097 0.42269733013520105
P 8.509101662046978 3.494115391689464 5.727627717036673 0.3741111936963815 -0.6231508170016945 0.6385740935353003
P 5.549891149472867 3.3739094517040624 1.5547623911743518 0.9162149255170737 1.1621687108082113 0.19330196342337674
P 3.7898746894713087 2.2517839979472196 12.72989130765019 -0.5223617733070746 -1.1890938173338295 1.7257717501532601
P 2.5884715465753043 4.093388911024606 9.068092095826996 -0.32710062927479794 -0.3655000549886028 0.015095975101173999
P 5.123656876771074 5.251155587740596 5.168306381860923 -0.06847696182547562 -0.3013003803822424 1.083908701454043
Ni 4.083119876090059 4.848537322471538 7.350356145727416 1.6425525970216033 -1.771501133869575 -0.32267601784454103
Ni 4.467778884043345 9.088511854582533 8.13057819449833 0.03916252913207449 -1.9518691628401028 0.43578913032215266
Ni 8.589756566492392 6.367661263603466 10.054429666220706 -0.15898133576463588 -1.4515594842370614 -1.138414288701091
Ni 2.2745219150840197 8.014514992098583 13.362034057526055 1.5754547749318415 0.8139318137754306 0.600149985231147
Ni 5.67700165210103 1.7890858703248262 11.64942523044915 1.0680125990490767 -0.13252674111753304 -0.5971698195569006
Ni 6.9609267967032755 3.9632189569442975 11.01770119099861 0.8768744760462382 -0.23005614022427479 -1.4635935325834601
Ni 2.0656935565995767 5.626506838556989 7.013965299188798 -0.8608050812882014 -0.24954253108366056 0.07173969173714742
Ni 2.1270951759246843 2.848321572781348 11.478185606769678 -3.9382466438697206 -2.099801954100061 -0.0006363480324182588
Ni 5.985608797370741 2.482388995770809 5.157673170529957 0.048880784861102915 0.5143533011803013 -1.0071108784676979
Ni 6.19868896149865 8.359262485337762 2.0353911226397043 0.2516292384093602 0.07216443797939184 -0.09841951502117888
Ni 2.726562799430506 3.7701684946194147 5.192427060137424 0.2217126533555859 -0.24472711197288818 1.9526086121092887
Ni 0.7039344881657995 5.128731314375995 4.84010026118598 0.029323688664781754 -0.5521922264049458 0.9863443353443078
Ni 3.9803186100756314 3.2738441301906476 10.784719803542552 3.5481933250217863 1.4928963953126353 -2.151298579317456
Ni 4.12346581442426 5.617513345315483 9.912654131344883 0.5475963795041472 0.2342753205119449 -0.15192571446943512
Ni 1.320490673136059 5.9637397274741275 0.5123897196220488 -0.7764381877053467 -0.30003102675151555 0.181113648887301
Ni 0.5712726062561897 4.143661891230726 10.428036752417704 -0.891292194133465 0.25165957742666334 -1.3971904225678775
Ni 7.458314112542909 4.838582551432378 2.085891482017193 -2.292186547915491 0.34021891182431085 -0.9427178569036087
Ni 1.9304029496356148 8.033527957769477 7.700179925182663 2.290412229623888 0.23509730219260802 -0.1567179936517559
Ni 4.3962561186756375 3.846950558706976 3.4725938606889253 0.653197756985746 0.3657180845366798 0.2790618806990162
Ni 3.5181380935750513 5.212399454994823 0.6240319684581637 1.5189390992333 -1.1507211310929022 -0.22997797868817166
Ni 8.788759556718128 5.615655491110402 7.320445617331202 -0.541895472464628 0.3541342363538224 0.2733766573887808
Ni 8.490245828323777 7.845145238596661 4.190925332485733 2.3488282076689355 1.581440045980999 2.432984527902881
Ni 0.25307394203816236 6.044792083316648 2.728126724462842 -0.5065080941042697 0.2996988402230774 -0.14830097323265426
Ni 6.570666496967509 6.763633771790672 6.440182278991814 -0.6750307937004374 -0.3935713593035222 -0.5268951424010538
P 0.18153176625338663 8.360001929797495 0.5239897545841157 1.2966613174028638 -1.640882408408032 -0.009152613033545526
P 5.080602723103101 4.994069235202806 11.873369682301691 -0.6586194422219496 0.8342982932469244 0.14571187234923938
P 4.985676540584833 1.398807084477567 9.488980185084916 0.07649263304110053 -0.9191210434202752 1.1155996047994206
P 4.600573865955707 8.220607406082014 0.5967603324776234 -0.6545301026439244 0.5168133326850195 -0.29967004386767104
P 4.343330381470223 2.5308133648275972 6.4826199208414845 -0.1335281857988539 1.2143605623204183 0.2733599452182325
P 7.427248202178361 0.9691528811495075 3.0586325174075566 0.5264259160741191 -0.10288577832264861 3.5712910873815136
P 0.9826939578183743 2.2365514420767125 1.9561162064172672 0.7560963908242011 -0.012135864031585552 -0.5507261833823806
P 0.9147464064134774 7.031460555106089 5.974340588109979 -0.612728593227106 0.4585061123036942 -0.9816878104089029
Ni 3.5289986840773846 2.683074222142439 1.5583071030531987 -0.354691394408873 0.4304852016107361 -1.2915461076634853
Ni 3.3637236042712355 0.42196305664125816 1.77663824715079 0.028758045969298863 -1.12408450234198 -0.07525721797210265
Ni 0.42784071579056354 0.8607290643243819 3.5987708146866737 -0.6184701236965735 0.07457818962720704 -1.7693745744448754
Ni 7.355300256246307 1.105756002029496 9.585895473199866 -1.934635829680952 -0.40840173944813535 0.4825176447269432
Ni 4.027301062435939 7.773918251012846 5.883594115400354 0.14005930204915232 -0.8299662415304737 0.15903327204849385
Ni 5.4717503561905465 7.989161290185477 10.294107647565225 0.6682065716897524 1.1522596792246156 -2.079332373391799
Ni 3.1805262393722997 0.7340631526776347 6.478277533251701 -0.46390002962575594 1.2920981235122135 -0.4121470654231805
Ni 1.851143746607947 3.5506366775803317 0.02344593520699501 -0.7229566708474388 0.47803029837955086 0.7530048963830709
Ni 1.59770840109009 1.1313685095035098 0.06010296999270087 -0.07571230323165025 0.5320136945745417 0.9676002219675851
Ni 8.848728502402503 0.23455455554414076 12.227550638235918 -2.2215102644458513 1.0006178145441864 0.17451491262386074
Ni 2.869663788500402 5.94334954649698 4.327964725596964 0.2895779497389916 -0.6478606610435488 1.748615744630969
Ni 5.757259105149338 3.315576526886848 9.05732393588213 -0.42847331338702976 -0.23780930180713236 0.17883539437608556
Ni 7.965425123028036 1.1289838011208697 5.2030196020231045 -0.8118451064497308 -0.6873360934303517 -2.201164610909964
Ni 0.8856964065072782 3.485325245674384 7.554752458981331 0.571691472780138 0.47174009449546495 1.0236854949969274
Ni 8.391446805447655 1.82981077394464 7.242212393491414 -0.5489068707854547 1.164982783218239 2.49074821707591
Ni 1.8450063575921603 6.141372772813569 9.410286657068944 -0.8176455151815918 0.8667774968215524 0.5387569268356464
Ni 1.7274531746060517 4.225250344306555 2.610946036623325 0.06722277770340036 -2.02929047834306 0.6621516237449242
Ni 6.186885579310157 1.2743770680159385 7.386354150638383 -1.6369702178378194 1.8138346045304632 0.7018818524550106
Ni 2.5734977962657037 1.9027199976743479 3.939950488407639 0.20784026624886784 -0.25055220329509753 -1.278238849031618
Ni 3.8425231350043223 7.631538220291191 3.1899772638732666 0.316903377026822 0.34677908154033177 -1.0759459949635404
Ni 2.814270155410628 1.486856433520315 9.131309051300748 -0.5696880691968641 0.646217726123487 0.36308784600268434
Ni 6.261892976694358 5.772482417964097 8.727723962400589 0.5250912564230957 -0.017243874682112238 0.5309677698085308
Ni 8.473146175192444 3.1717915516916997 3.1316572793340978 0.9204616166085696 -1.7299539065554077 1.4949957010438253
Ni 6.683551936801551 4.310683908572996 13.17002898480612 0.02524540483035007 -0.6739059360673748 2.6817274459033813
P 7.826437293765407 4.10832568911122 8.985327001754618 1.332378311188499 0.36291892452498786 -0.3201501660988938
P 7.434078820375149 6.781999723559299 2.940247459404248 -0.32916522511331053 -0.7901627363802908 -1.6793404552739142
P 7.005940478189542 8.935335934748771 6.425558840495012 -0.006599250484072506 -2.239181199363053 -0.36675526755194254
P 1.2465277410512317 1.0857540293937091 7.608716191347097 0.4113101713441819 -1.3346704496567852 1.7100024031341454
P 7.699012527241859 8.369078610540722 10.527549339197467 -0.10607497468390764 -0.2531161073675318 1.7440466372030479
P 3.9312102548935908 0.23441406109679142 3.9798185607597367 0.19230231851426882 1.2157510149100417 1.5872610235381504
P 2.6290485613031715 6.042934229111568 2.270198937911304 -0.25040307931174294 1.975254888753895 -0.2180534593364438
P 0.0839870260420879 5.005743214610846 12.315956769230487 -0.06596293715437028 -0.28266065379386807 0.8865063427090475
