# total energy = -340863.5480192032 ev
CRYSTAL
PRIMVEC
9.33279327148106 0.00000000000000 0.00000000000000

0.00000000000000 9.33279327148106 0.00000000000000

0.00000000000000 0.00000000000000 13.65948632601314

PRIMCOORD
 96 1
Ni 0.7599133444365738 4.635113021808502 1.7399452802615443 -1.3641116377360378 -0.7809810698810227 0.37670517967580286
Ni 7.707701826364051 6.326728433061342 6.524412856423645 3.1435613370287276 0.7387594422076502 -0.6307653961241588
Ni 3.4848276080668956 5.158608051727645 10.721234582814303 0.06614908502324737 -0.1264630514219564 -0.4717436940398907
Ni 1.6118946926910245 0.5173941830772022 11.988343234040986 0.8377962790978538 1.6871028728281525 -0.08480218134806039
Ni 4.094277662330959 0.33105376971394906 3.21440526193158 0.45632967347766573 -0.5426017545030333 0.6099888256984397
Ni 0.4223499515434084 6.746433471043474 0.24469463542829684 -0.8042045591853376 0.4600153498593691 1.2106322056262375
Ni 5.007099488729226 3.3302952201078075 12.83874174058763 0.9885547127320654 -0.3457035890879659 0.2986053500485825
Ni 5.793956606812247 5.8469948699340915 7.688884115659745 -0.18780803018834108 -1.6609295568668943 1.5325821439380314
Ni 4.624772287066464 4.34798030964826 6.201460884389808 0.08223467773120031 -0.6435856878172788 -0.6684634248955649
Ni 7.961917777301217 1.9006139796763093 5.8688532046266255 -0.7359433129150939 -1.2399867475289548 1.4489901808479884
Ni 8.228322356011942 8.609790940710562 6.522500567119815 -0.044026284982279014 1.982436236993683 -0.2624355849962448
Ni 7.529949449200819 6.573319492045218 9.64747620583963 -0.508806403220143 0.06030342487574776 0.2616639969375429
Ni 5.943393289745024 7.759750813418516 3.2424204402245858 -0.1630609051506482 0.09220027358434445 0.29700612388226266
Ni 2.2609157896502525 6.9899820394805054 7.92541162385631 0.13857423286319362 0.07943217528539867 0.3738132028399885
Ni 2.6139100226359147 8.609492291331732 5.9513970930977065 -1.3712587903037805 0.4733457484196881 0.41145106779742047
Ni 0.9380390333233448 2.9610805927343633 10.878428683362225 1.7788799428321493 -0.36938010676929933 1.3643831462298694
Ni 0.6185943249321588 5.578490412778459 4.895176900894912 -0.25790530122605904 0.22687799960660926 0.8233613346194466
Ni 6.2582070662057045 0.7072203946590033 7.7548865616608 0.49449024370778705 -0.43263567229483557 0.24615278867582124
Ni 6.86476395461234 2.8421621432009236 0.6401120126769634 1.0185553728592136 -0.6685374726666099 0.21575977820626066
Ni 5.957691128756578 0.3899315614712566 1.6509262999456746 0.09451709464297917 -0.004335651260876404 0.2745400815692627
Ni 2.786408037290331 3.5186776485988203 0.6619330161971435 -0.35933737782131664 -0.7105852937662795 -2.7744123724336283
Ni 2.583027810306127 0.28759001902157866 1.522295212645051 0.7118361354542451 0.4934607740020082 -1.3005467685001988
Ni 7.457405648524047 8.348752718025716 11.599253490506308 -0.929207738232316 -1.8090878338740972 0.5204321603845296
Ni 4.672052216852715 5.736559929318082 13.238801249118508 -1.5073367391076815 0.870805901254655 -0.11490080050565374
P 8.093864805986179 5.102452635714248 8.066295735202802 -0.26462976443408615 -2.601187639376101 2.0337004344852976
P 0.12779673559851318 8.794412253586916 13.056242483514705 -0.44111954139613063 -0.993342878149328 0.2039468447317326
P 7.815271599501897 8.73537300450918 3.2465044704801054 0.9046796711839645 0.4437304966564164 -0.4374109821962918
P 5.619106728299534 6.305841642129318 1.6550793928700491 1.0683059619197794 -1.8005147474931056 -0.34654408271139026
P 0.004007501352194252 1.571437034652454 7.494413906237115 -0.9147553102524116 -0.6515234546071166 0.34967260103804293
P 0.6413532741577315 7.318757674401556 6.249952210718943 0.6531674179684428 0.22339338349211846 0.02615943200418721
P 8.595623760802246 2.7219557682212727 2.243789181053579 -0.2249231898730836 -1.0636417236748907 -1.5869630326817572
P 6.953154837953354 2.5832891285126047 11.523005504252719 -0.7500291015841987 2.2694376842547497 0.24535523247519034
Ni 6.586730715713367 4.965017924693259 11.278009419607663 -1.1018809696617475 -1.5641113248945642 -0.7108940832559499
Ni 3.616102675649486 7.423396950509618 11.599239491316675 0.03223751987746706 -1.4312349137470963 -0.4988485206764828
Ni 6.6894847676175555 0.9858975962810814 13.000388516718067 -1.683285041743959 -1.439966380082823 0.3963828606103883
Ni 0.6258869694514988 4.701618505357027 9.184706860709316 -0.27871658154445544 0.6868660957724687 0.34656516575731283
Ni 9.498823477526287 3.4308933968085573 4.0405991696032455 -1.7761247486845155 -0.4272813499614577 -0.3818275885040327
Ni 7.383181945091349 4.177843491645229 5.185427699226016 -1.0976877575160062 -2.1400302054924887 1.5459359395371184
Ni 9.088507229391169 2.822684604025261 12.908733022354701 -1.7230330110658585 -1.44540246349673 -1.9673099228752056
Ni 1.7048026478868645 6.6059656022687285 2.9991863869146362 0.6240985256269446 -0.9682196007191389 -0.6519206900455353
Ni 1.948995179047001 1.8329045658193712 6.871841944890644 1.5109540241452946 0.3847401341651374 -0.7121552093565606
Ni 3.7056321597472954 0.2015155349251251 11.022549407351804 0.8543241015495481 1.7699456164569967 -1.5437854688530186
Ni 0.7096478541413175 0.824209755861054 4.779700385452505 -0.23660165465227637 -0.151781475582087 0.4729042900068953
Ni 4.339860779661279 2.5637929237507655 7.737156121351301 -1.7386313797247477 -2.3121452504256053 -1.8686592656798269
Ni 3.126709671675657 3.7130890614249927 2.809059659395386 -1.2083531797840739 -0.3774027199634597 2.5987162950174727
Ni 8.482304987121896 1.0823426800574565 11.607038906500721 2.9474892670593817 -0.6759175671807649 -1.6250582968915819
Ni 0.6662382336488604 1.3920980826641802 0.3552658348233984 2.492304505819437 -1.5191702414074997 0.7112296122184977
Ni 0.6577593911279742 8.420213914704224 2.0919913014694163 -0.7002957389148133 0.20554504245678795 -0.03197141070027397
Ni 8.360558701282645 3.056872380994545 9.77231071291186 -1.689375470912413 -0.31195066100723695 -0.7408839447498208
Ni 8.379662928734769 6.213810969483795 12.022110212714422 0.894171315453473 0.1734993268751528 -0.5457649827223633
Ni 1.160159508829221 1.7323437202909755 2.4822429777436077 0.096394257061034 1.2791276793944746 1.8465076692834521
Ni 3.6028034454983993 1.182576877827755 13.152732364697906 0.7154588198084969 0.39003943489086373 0.6614258013224932
Ni 8.080901556386276 6.788300380838405 2.1051178749483666 0.37793185299405235 -0.3823055565817158 1.1134375641510952
Ni 5.092569207833546 4.69108178196013 3.721253388818797 0.912096789583642 0.9664663654734581 0.612776415745906
Ni 4.729840871656596 3.1700698283647455 10.475063499519408 2.921117461934072 -1.6494719498492558 -0.36958888034599574
Ni 4.877317668040791 7.826694938242199 8.52107434289076 -1.1674178750222928 0.6841602668055313 1.6574829930791908
P 7.787450543305131 5.737511874213107 4.084076919485248 0.972440837889338 2.087170638489296 -1.8660719645686248
P 2.0479321185780006 3.221241532868893 4.800216664498914 0.899978151943237 -0.8894481989461906 1.244826077899127
P 5.965222692778983 7.939061767027524 6.778861193908714 0.7081304044678837 0.5308754672050405 -0.6971710772429025
P 5.684193627298608 6.908310767163197 10.847790056932046 -0.2931006181802694 -0.3353196747504806 -0.34911158632825035
P 8.052445870259495 8.785200786808586 9.503246288170919 0.2093849850281684 1.1202957247235092 0.24834902499619166
P 3.112561157353518 3.2444895204523023 11.899925285600013 -2.1421850470519623 -0.33451440524036585 0.09882909175477173
P 4.164768248528265 4.3832862659019876 8.730078510990083 0.2431314853509942 2.1835134734871042 -1.1428813233335091
P 3.160130403725512 5.468783430023351 4.300320535183308 -0.42061242258171433 -1.1103769229479006 0.9648941358903318
Ni 6.197851893302491 0.24926583748303538 5.283571351344495 -0.4530391756518521 -1.0697612063090673 -0.391029566718275
Ni 4.076489358704313 7.681681999233362 1.718130809696526 0.4328488167469061 0.1896512540446669 0.9016989912890858
Ni 5.002097111633798 4.137852473261083 1.443043000296278 0.4291821665285963 0.09197093118235775 -0.5960272213120251
Ni 6.3710685330247205 3.1837423702393717 8.112696515880119 2.4839571622960057 1.7631918426729314 -0.06444804317174063
Ni 0.5817092600878595 8.121153892976901 11.006431673687993 -0.3690468917995967 -1.8831196640795311 -1.4007272320765425
Ni 6.8171200458956385 7.662036469782108 0.3645603634602178 -0.9781440589217025 1.2307006942413385 -1.1493885283244076
Ni 3.6483008118047495 7.457368317351694 4.196044304726387 1.3519341218332395 0.9635692464313211 -0.08654976016678642
Ni 2.6804715029429698 7.746470248853606 13.744448245535235 -1.5937417461664873 0.18790521788783765 -1.7135137587215132
Ni 7.493075583708227 1.4581369265582802 3.743122922863037 1.0978883035625866 0.5849773912557668 -1.8473630753052122
Ni 0.03044450433393775 7.496622045081849 8.384793165095507 0.27884873624694556 -0.5665392391552373 0.7252449526609832
Ni 2.745166424632328 2.8130158303855937 9.431205525041616 -1.7783739497300084 -0.6843304738348086 -0.5244736774437547
Ni 2.8848690043738183 9.352111970175347 8.277511775264097 -0.2408205778296304 0.5760487213075692 0.5012239628871948
Ni 7.224207147622142 4.370089696474873 2.28521838285266 0.5457202455273569 1.2010404481727444 1.722020253530628
Ni 5.229695936682614 2.2711538636683177 3.616171738318341 0.6157442401249783 1.1090252940160126 -0.42146088662493864
Ni 0.6447289454178354 0.8225335862223627 9.388137484776198 -0.12362635330410966 0.11501675725822774 0.3024596907976662
Ni 8.312625475980202 0.1357968058339601 1.0998071357639332 -2.4190653467186274 0.57341076946409 0.2487658008186361
Ni 1.7479014863694753 5.6848749211940675 12.292990798990383 0.032467890720718276 -0.6872581890045648 -0.6722393469982294
Ni 6.010234753844733 6.443547004149873 5.235749186279803 -2.077123538665939 -0.11463700532130579 -1.7321681405979072
Ni 6.421988252115479 0.7551592196373009 10.563727833697916 -2.1366905995962946 0.49674818650402836 -2.4028879656278166
Ni 3.8585219761228107 6.53204988100795 6.416298048169431 0.2677477412377776 0.30239618454958245 -0.49845771299596725
Ni 0.13134226369282753 3.452918788497375 6.458191089785011 0.39460905653941714 1.7292692217835572 0.6869190604975911
Ni 6.901264508381393 5.348782376491647 -0.04389025933651404 0.8303876453386088 -1.1704569189589327 1.4120282589116584
Ni 4.004692181474619 1.2245277827604826 5.422529174197524 -0.605680428131073 0.6116662134008628 0.6381676021255008
Ni 1.992756645838894 4.561215966133901 7.353830310828072 2.1638494193992734 -0.04473899477858746 -0.6402597087678392
P 2.058076864665181 8.859667142861584 3.584590499786226 0.3399227207401307 0.5575874292785882 1.0863283666391292
P 4.472153121690514 1.9401383584060317 1.4928455840543455 -0.7666651674789828 0.26352753250884287 -0.3463278529355261
P 2.349064020370967 5.688094734809593 0.8265625529986605 1.3572573338183658 0.8048897581778204 0.1160400563164195
P 5.884428703011994 2.488141302975529 5.771119262124731 -0.9337285089208048 -0.07375029440927298 0.6298788797541475
P 5.185327838339969 8.599403542003081 12.609426614889841 0.3150755797894638 0.7959479756035002 0.36278959803597516
P 4.6219071195882995 0.990125351550164 9.16246868133808 -0.24966131604971195 -0.6084641615237973 0.48191035016024747
P 1.7492640741603935 6.411180877719017 10.029792208150687 0.021487737560130737 0.6905188620337076 0.3150691520315606
P 9.038810106195001 4.624874947790437 -0.31699391692615064 0.002968595710020694 5.411523465179215 1.0945044746920183
