# total energy = -340892.8473384032 ev
CRYSTAL
PRIMVEC
9.06142469521414 0.00000000000000 0.00000000000000
0.00000000000000 9.06142469521414 0.00000000000000
0.00000000000000 0.00000000000000 13.26231098429446
PRIMCOORD
 96 1
Ni 6.457841762354164 1.8700968225509171 11.522215827299448 0.28150340026097326 1.4312030320678966 0.007350269717484116
Ni 4.674127501143386 0.38885291668828137 5.933796920362808 0.04621840753759137 -0.5811577603993603 0.07711689688866073
Ni 2.7206202645427484 1.5636666246237712 4.763530235324673 0.17346590253405608 -0.4669272464878539 1.3872718779025848
Ni 3.286170962216314 4.486954713244307 4.93046342508997 0.825197873607553 -0.7317565285272559 -0.20894069840189822
Ni 5.046787651953682 4.562536056382679 2.7780298266561005 0.5839533208666267 0.22363352452738258 -0.16707234030288645
Ni 7.194381543473488 6.204991768476555 2.495383150049574 0.10066203119845245 -0.8199595080267491 0.7184855224499627
Ni 5.203704342893279 4.446803540549651 11.46894189940362 -0.45990144998932414 1.0646987041844955 0.17534435050369157
Ni 5.60406526890727 7.493272636078594 12.260874169505664 -0.3523223799560642 0.9030848158930189 1.2674690121096235
Ni 1.9316057731831275 6.518399263396454 0.4166887071194964 0.46600422045295226 -0.3058412056753894 -0.37465806733878704
Ni 2.6264630008392573 1.5923913408147123 0.3567374153873561 0.9202052776233896 -0.4496126664688063 -0.28135119095382516
Ni 0.7768223444716362 -0.15609572586486634 4.242241878716688 0.07217806482614667 0.3515693038401235 1.3948476333673139
Ni 8.80415269679742 2.141939562528277 1.4199560539922733 0.00010412967803207874 0.6474310297052979 0.37240063876317797
Ni 6.951961249386344 0.8262977231475158 4.839192225142572 -1.2804859931945816 0.49832144452841914 -1.523465526348744
Ni 0.7499506896248743 7.3415572028972305 2.412559916318205 -0.5027272869055986 -0.24428668200135992 -0.051116359059841
Ni 7.685320470447934 3.74969001815171 3.856640201198536 0.41667580653146946 0.25270241686888095 -0.7494269492238256
Ni 7.756443592650677 3.782746095332957 13.009783701436422 0.0868660058556246 -0.33100664919742345 -1.493479264399299
Ni 7.857487539100262 9.116336899387418 6.775104893469408 0.4581654411348238 -0.7285308225011066 1.084098448867346
Ni 6.8229718692670875 0.5965597990227826 0.31570819064257316 -0.1243190084957601 -0.47586260130427077 1.1447805972387513
Ni 1.4333995836266205 6.770750878917437 9.236509513306745 0.9142225776773933 0.03866553489099792 -0.437045371326757
Ni 0.10958524533967327 5.034038227448744 1.342265211191677 0.17725159482873343 -0.6695360891344534 0.7418252256171676
Ni 6.471814479189 2.085178798421004 6.979397430989793 -0.09330456239211674 0.6035775228554573 0.27240632305571155
Ni 3.447482444118879 4.189939335545044 0.5683162444816016 0.896754759909933 0.1575014087849997 -1.1967330790466422
Ni 5.850508835546077 5.657473305888155 4.8197092559683945 -0.055786510842000696 1.599471449561413 -0.429953240366666
Ni 5.435332480203323 2.744433688564765 9.368576153242545 0.22379498980591137 0.40403086407394934 -0.1264532812299435
P 0.3210607741927274 5.603095696468016 12.447328386428733 -0.3436140535487889 -0.23917944268178162 -0.5118091946022089
P 3.8634108977089054 6.118572961437752 12.621807930655802 0.5309328028055373 -0.49257142941851945 -0.04019405572038239
P 2.3478966837597905 8.47583009687743 1.3560847899496595 1.1942108268454206 0.18425373717817944 0.6182369246398449
P 6.255083324029717 7.659377611629428 5.843003257495304 -0.6729289168660862 0.5178700560843081 0.7751022425027425
P 4.720612609679514 0.9206951146046539 12.894958234212453 -0.33057984607265006 -0.3449985926011413 -1.5234182180505764
P 3.919301765048251 6.248894370982899 8.262274064921083 -0.1993502264999857 -1.4165891388094636 -0.7316577981658625
P 4.808254709048215 1.2310670322614716 3.6523213855466192 0.05997355234015478 -0.1551208243679651 2.7520008375076475
P -0.057581729182004354 5.631548569918981 3.6248417091047744 0.6287308821926333 0.14230644621211622 0.27651108925270446
Ni 1.800731616733361 1.2326346587286745 2.546748741910763 -1.1066357107379134 0.10500873820292236 0.16821982364376836
Ni 1.7054416749466301 6.284197681481292 4.70701956653818 0.392759147814872 1.3393732544490933 -0.46147959310972136
Ni 5.837904393835795 5.435531831545973 9.120385543928148 0.593873408193816 0.5707813022610427 0.566396800040102
Ni 8.591553551285793 2.2206199129023907 10.241355360356323 -0.03798033589851523 1.0258202819517428 0.3629379506883814
Ni 2.3204586898714092 5.291002108124676 6.96557785223181 -0.7547972123968033 -0.3597415552382707 1.28807640394733
Ni 0.39349689682956124 9.169165005189686 9.462194262178414 0.8252603514143722 0.02234288647157442 -0.48033837768743726
Ni 1.5106301060541882 1.293817398072912 11.440307797459337 0.36597468063217614 -0.27797738938558575 -0.18315819012115556
Ni 4.390214943511031 6.762550289594786 1.8042846013448648 -0.45694750956732266 1.1522432241643834 -1.136972928268874
Ni 5.523382343681989 7.84922351980495 8.05335295168135 0.15945956095263505 0.12758508084154158 -0.28147460390556683
Ni 5.3121786575689125 3.0810837377527274 4.904442638019337 -1.2733807496083682 -1.6336614651795607 -0.932151394241672
Ni 0.4766445295639697 7.43767173432856 6.637402047391409 0.23843510831658934 -0.5960331348492961 0.5294382205378818
Ni 4.938983882703327 4.5666771274550015 6.891719992064894 0.11137736073342752 0.23179472018193625 0.7891260675856603
Ni 8.096020482005729 7.3738702432558725 8.7691728791596 -0.3405608685447619 -0.26368874067705556 1.0768775056388744
Ni 4.783272361244295 0.5030685500322356 10.564106996391711 -0.6690246967156736 -1.3888209675572598 -0.08551720513721402
Ni 7.980858835926653 7.535417322199752 4.639262763598822 0.48445522806928826 -1.786402990682072 0.6000813367767407
Ni 7.316692653613968 6.04456830619125 7.068320815806254 -0.7673159136891042 -0.765579904834604 -1.0033971770615364
Ni 2.5566719080624027 5.284958137872513 2.451153430112791 -1.4531918776341617 0.16459379685540687 0.9782037085150443
Ni 2.315991407511114 5.374919961955688 11.169385698228034 -0.13206188566597257 -0.19031948375628513 1.2197447094504672
Ni 1.1969598298189787 3.465795583368687 3.9494627170487386 -0.9879618163430726 0.27836665440420444 -0.40204571532312045
Ni 3.4842899511118137 2.959778445750164 3.017612988680347 0.6783477738888124 -0.7942510475170514 -0.5314961315081751
Ni 1.3182107532735472 3.2497530964840133 8.390546686349266 -0.5000140017394937 0.5288712922908182 -0.24679170781140078
Ni 3.668463407446475 2.500545443681744 7.047406141534862 0.31730241223745353 0.1335559537129958 0.10959327224981125
Ni 3.9043866600481594 6.828426846915966 6.029271715212723 0.9108911993113151 0.9539245242527054 -0.12561613004062883
Ni 1.0915392152557586 7.545185537989606 11.416170880576745 -2.385159695110118 -0.04815984753467835 0.4844354305749464
P 0.3437868272548346 5.461402198967152 8.031655370318823 -1.269245644394072 -0.18773603929982507 -0.27133571569935205
P 8.629584350608626 1.697848201076596 8.030687610164504 -0.5846878850398058 -0.25162383909272146 0.34674154343417707
P 2.0846713586397128 3.3242833143611397 10.55174630700494 -0.7217541658989053 -0.9868508426670811 -0.017288097656486354
P 3.8722367253335035 6.273704551718166 3.8558582002498683 0.26956139740774865 0.43416959244085873 -0.0873732845093463
P 7.0262558702221565 3.892670237955135 10.548418045725148 0.5135333763821672 0.1627315468356875 -0.7003165648504196
P 6.262894272091733 7.6254516376802535 10.212828183223099 0.8550589228330436 -0.5970116967124814 -0.3507506645935701
P 2.277072588571022 8.34055208804003 5.849235705380517 0.024579489111577025 1.1409550528450736 -0.9881114545470595
P 6.904415954164304 4.127152724034939 1.731090037463494 1.0289811961782278 -1.193709718839286 0.11464394729984126
Ni 5.54703266206002 2.788100694029795 0.3237239269020389 -0.6801277486073706 0.7732525908885135 0.3878277719515256
Ni 1.4616984128582637 0.9713122327884383 7.194657916925798 -0.16029414103878845 0.4258515594934666 -0.9552838664940774
Ni 7.003339527242065 0.4843866107985249 9.375644970624423 -1.0970444675050526 0.8312553926555426 -1.9686726075506868
Ni 2.944990200695395 1.5879693655777474 9.239241532843517 0.09336755441956823 -0.17161753647140765 0.07331629219564792
Ni 6.4263261273661225 2.1071889989345043 2.4629568418826078 0.32415903014797076 -0.5328819561121081 0.6898529463149345
Ni 4.0207715984571335 6.98630404887015 10.30699088378139 0.16228006112056567 0.3026378682467433 0.0419784013143148
Ni 8.093483283099273 7.230273846575166 0.03275342559740549 -0.07585654211899838 0.16179335129213424 1.0813679373100602
Ni 7.838177643137204 3.7729235109951085 8.325535495083681 -0.1879484124209473 0.48117784286959714 -0.23188727989574257
Ni 3.0169379125427365 8.243132711456811 12.342622718271654 1.797718672805207 1.2418981056190548 0.5694145038205031
Ni -0.01192211643294041 4.969838033690757 10.331579059612341 0.5500440697136914 -0.9876807947675441 -0.729877309226672
Ni 8.730483314263555 2.2766557630363904 5.739039720018361 0.47898572031428477 0.6512190359928204 0.5613885481922332
Ni 3.9473196901152505 2.583946796306798 11.593660630077832 -1.2299630447443655 -0.47544633970245853 0.039548708826899634
Ni 1.252741960062333 3.3323751665877994 12.807970369704632 -0.931319899479312 1.0662706766573056 -0.688150361801531
Ni 2.8781078252362993 8.256724848455677 7.951710045061348 1.3923269238279892 -0.22366463487563418 0.4239844243777408
Ni 5.682682189308722 7.922412646831521 3.6339792497378802 -1.1827547624896793 0.4029358312375576 0.3245927752512797
Ni 3.1049424688980736 8.496698557883025 3.590465382349704 0.6905661703318753 -1.1880854306739732 0.37183988116370154
Ni 3.552912120106765 4.255661848646904 9.259096020428995 0.24757846537875425 0.3228151145255666 -0.5849434526940377
Ni 7.281851475773537 5.967854284969638 11.511858618906311 -0.546630158936136 -0.41330689005923654 -0.7449594003707751
Ni 0.587641544866592 8.999707302512466 0.31031392453895573 -0.3709387095056708 0.1958607252894885 -0.158809586073462
Ni 4.383246707942945 0.5267487711116634 1.7755055166059284 0.07113651093550974 -1.0281425023270163 -1.3856471978149683
Ni 5.787441319871331 5.319627148644292 0.47103641383823674 -0.22585187233494006 1.514913523013675 -1.2389966157015437
Ni 7.8064807796558435 8.98595205986961 11.425679939621155 1.0256187074638983 -1.87952217653626 0.2508725627489937
Ni 0.06669571011097863 4.901886410121084 5.839010793787502 -0.45870048770268745 -0.8322249556576634 0.0015678587077521387
Ni 7.743676045296407 8.792517827526389 2.752208390928118 0.6276078243317836 0.9927664368205676 -1.88967597714081
P 8.666464348998886 1.6156248336581107 3.610664204072489 -0.12981062773795063 -0.0572065311179789 -0.33694846860315525
P 1.8170512425566683 3.3372864587567235 1.7319780570807535 -0.7597609841599818 -0.4809443867025523 -0.9373866744986823
P 4.938050555962739 0.9787697852884839 8.198800597421302 -0.24561928476985442 -0.024716014689441304 -0.15798554751026983
P 8.596963221811341 1.5696109192046095 12.525151526029452 0.3497949855485201 1.2178721750181025 -0.014533674839800776
P 6.32888862793357 7.737623013619578 1.3068721925890916 -0.30728359454887083 0.615031787438986 -0.24165567213641606
P 1.8575376879639631 3.1787658956512588 6.084536438107654 -0.5572824964436597 -0.17433904916762877 0.21361470683879982
P 6.836690866211279 4.127614856692902 5.807844023649098 2.0864111346154517 -0.635230630984364 2.9516117738681875
P 2.464299745018096 8.697970922562263 10.114209980156579 0.27870861112465545 0.28952369946228845 0.7152600735341295
