# total energy = -340892.4539310455 ev
CRYSTAL
PRIMVEC
9.07852203349137 0.00000000000000 0.00000000000000

0.00000000000000 9.07852203349137 0.00000000000000

0.00000000000000 0.00000000000000 13.28733466708777

PRIMCOORD
 96 1
Ni 6.3675027353137565 1.7223953228690205 11.469892569904136 -0.08625768284766434 1.1098151369071596 0.47405768688504807
Ni 4.725570351621997 0.28871787550456696 6.054705896300237 -0.3132968906224862 0.3583750139080473 -0.7773020783675387
Ni 2.9486040338985795 1.7862354885346523 4.7659143948815945 -0.20152023756811102 -0.7418761334597611 0.915443594568688
Ni 3.264854342624728 4.654013442381878 4.79341959253762 0.6835239187731131 -1.0301721311625354 0.6337622739689537
Ni 5.043681757327874 4.750690621587411 2.314919577196738 -0.6651934958950415 -0.21240037481572455 1.2477753903354383
Ni 7.3049781373516 6.067185232438459 2.5138835542603637 0.21421788764043753 0.6457027341602815 0.1619123933685018
Ni 5.250608505908183 4.394276932186526 11.987952972294616 -0.12883849363266844 -0.8523646638303322 -1.8347950088322142
Ni 5.3635362392294 7.878005358149238 12.853157893274748 0.7509019911074551 0.5707069973796816 -1.05802129216432
Ni 1.9543878702836321 6.576717271400856 0.42078222503832347 -0.2644256188430801 -0.6798295006406614 -0.6700161140946654
Ni 2.531382405130743 1.6447467254659849 0.39952668182544765 1.1873279836826585 -0.31747930413494996 -1.0883451399588417
Ni 0.5738361170946824 -0.10760045669826486 4.537451576763171 1.0161933003849402 0.9062734980336455 0.7891836602964731
Ni 8.681427306515479 2.4215050551519117 1.2346653541350106 0.5107884666471784 -0.2543818614538329 0.9607042661787003
Ni 7.044987428544381 0.44819482177145414 4.753437782299929 0.24712106612636153 2.3072642681842197 -0.02014844992341691
Ni 1.1786281780014625 7.588073684273015 2.479881766366807 -0.46216324944030734 -0.6615170754847187 0.39918613438713835
Ni 7.657914752883041 4.057400221811869 3.7547086854721847 1.0421395879370567 -0.2578263683590076 1.2227924951378555
Ni 7.649508041647777 3.9959113933059918 12.744134832202223 0.6801169499740932 -1.108068072309066 -0.6448262450925991
Ni 7.833221009851662 8.644023796483852 7.20843168886074 -0.13280030649389388 0.6295248388488384 -0.4647472081173996
Ni 6.855899975403913 0.8362707639845495 0.4034313540741376 0.30739440909512217 -0.23189267921238127 0.5403906057843274
Ni 2.1071793930584586 6.455682418065503 9.255917077183529 -0.38313422313059825 -0.01376002989856985 0.056137723533832354
Ni 0.2905172385357001 4.925542952463416 1.3814314619564412 -0.16102253456438073 -0.6179420191072454 0.3961324351624791
Ni 6.42334472322748 1.9626220896037014 7.020628846562377 -0.3284118918870537 -0.4958786394148815 0.0240333868001199
Ni 3.2593890724696215 4.077990309372968 0.3407087544485287 0.06808332593148274 0.5912038317814529 0.47208153699528377
Ni 5.796173198102505 5.548138902574814 4.4798783147322085 0.48222865273161464 0.4576967290285214 1.0983140782460954
Ni 5.163109712295363 2.576420952040185 9.619551822865764 0.24649937338196257 0.12310904734805896 -1.0402652537324795
P 0.3792488954160684 5.667802899110463 12.304908682168692 -0.14110934058022148 -0.5833293141293825 0.3070635081182647
P 4.020741150572133 5.972006009338561 12.867574585976259 -0.3686213742264039 0.3526730784272636 -0.9807694123596914
P 2.528785947880974 8.736597483812128 1.2376104266239087 -0.07276967566355855 -0.6974891227039537 1.1384610827786266
P 6.3378885970314345 7.830878751213759 5.799948047488706 -0.21523475894072608 -1.6547982471581757 0.4049731733825606
P 4.616637167915807 1.19377115245116 12.802705823784759 0.47537769124805224 0.28782214339014944 -1.182726223244589
P 4.0720892701689495 6.142473414159888 7.96550415176206 -0.27870732557307487 -0.847959849894417 0.7179273359536473
P 4.928166645278742 1.189377147874629 3.6969347881082846 0.4184370121969503 -0.6759103680919133 1.3852170522560854
P 0.20601435713415023 5.733667575149166 3.50578378695078 0.1613467506730189 -0.2866828875793837 0.024551978307751264
Ni 1.5597082112751472 1.1680244644779332 2.7066296517073236 -0.6531067399338365 0.3244045704998736 -0.4078687497628008
Ni 1.7844288626860372 6.529944726817616 4.751962522498924 -0.009026628978642518 1.4111288870258407 -0.20477628261156341
Ni 6.028492572303801 5.511661401772125 9.429609172966805 -0.7150430724273169 0.05492441995202153 -0.30606926252579547
Ni 8.631558985980593 2.3249731322960154 10.377395052272346 -0.9357429682476723 -0.48078857785097845 -0.9130884640729501
Ni 2.023520814189176 5.529228341556396 7.001721009100516 1.103447799928235 -0.1227022988279435 0.02697292904441806
Ni 0.6558115380125418 -0.26904381079836814 9.166653418922614 -0.3792793681608823 0.49480288985219945 -0.9639664818697399
Ni 1.3583012039810578 1.183684914673214 11.367314351494583 1.2855811483293023 -0.6541184690278026 -0.26307913211751466
Ni 4.15011008696793 6.977824523880795 1.492539859498449 0.16773157115344017 0.7241470916111141 0.5148844910934228
Ni 5.622619095851384 7.814492019270291 7.947739300201407 -0.6555320615458775 -0.18879764779512 0.6241828578106348
Ni 5.1056699045356275 3.1671785260154373 4.998203809960778 0.7895983792363885 -1.104119372073963 -0.5435070399261221
Ni 0.664997186422736 7.595763192281944 6.711871041920962 1.0427648802258815 -0.5700449383156504 0.2692433519466976
Ni 5.288229900464267 4.255266605583547 7.113135352828946 -0.9814229867832904 0.8942839297719373 1.0503951430776297
Ni 7.945104713159859 6.990906673870012 9.389016378208451 0.5655341949294905 1.0008016484202182 0.2861663529542814
Ni 4.379043172518305 0.37751398989008683 10.584876498537835 0.2953680740582074 -0.3440418851148268 0.1486149049286473
Ni 8.128182184834081 7.328954513563621 4.636376597979344 -0.39108767364971997 -1.5081080700560672 0.24696088639941335
Ni 7.296553269072631 6.042709537524559 7.162165725796862 -0.30194135640035097 0.08017625254027483 -0.7797243146557863
Ni 2.4531800178947143 5.399596128026881 2.6330318907548005 -0.5770866756537802 -0.9631555559326703 -1.0204194226511458
Ni 2.3390993122982513 5.189827802106789 11.310138728720752 0.37958841476086885 0.11810593770651272 0.7829489922406709
Ni 1.1778292680784568 3.526215908231649 3.957858768961923 -0.3961216365292017 -0.2962687314956059 -1.3952487254604746
Ni 3.703001964262201 2.587051901129271 2.6692797049546253 0.03709201975629096 1.233485198965011 -0.5126818270151493
Ni 1.0287054681319745 3.5743411525708857 8.095919841727433 0.05066538756535146 -0.9424337500042866 -0.34456356194625176
Ni 3.5258890814449644 2.4556947684478114 7.165487556942632 0.9472334853857752 1.0396916406171965 -0.4349357811829219
Ni 4.040750212734683 6.8402213681649275 5.777199995283305 0.34523744808482476 0.9681090432832036 1.001694849658449
Ni 0.5070191041136697 7.656961508088545 11.249801056785751 0.9901886487910624 -1.7877494774076372 0.8048144248551945
P 0.06087148901991747 5.673558681964845 8.220369127131448 1.581156196191993 -0.155374592249984 -1.0224765622904906
P 8.618867212431027 1.4844563436411282 8.045029279631974 -0.10031930314705303 0.46349636642943404 -0.07842815950091654
P 1.6912832284810626 3.1464341035828483 10.170484645031372 1.3654668662123517 -0.6704040935617034 0.34536548902225683
P 3.980196471979597 6.494974260642416 3.6262866389055857 0.187533950591348 -0.8325412013465016 0.01999289818215912
P 6.914129614564801 3.801149864007813 10.491599225766 -0.6499591954437903 -0.008928412837881398 0.44629440072885074
P 6.190689443717647 7.889598630554673 10.295757352367396 -0.10345810588635085 -0.6830652339691398 1.3410503850412
P 2.5234114629443907 8.733746827950494 5.625671294898139 -0.6576354810421254 -0.6264256310982244 0.6290959788415359
P 7.1176973100597465 3.9324434470363063 1.633385863219971 -0.8085206700621882 1.0637931616510903 -0.7635916707599817
Ni 5.234385187358058 2.886352609557107 0.9056824185109601 0.8997853192061407 -0.6895223024483931 -1.626474460512818
Ni 1.4602257688172418 1.1440844023533214 6.885603083200388 -0.49153707461673407 -0.15546818040505483 0.15085922087813372
Ni 6.982554433765862 0.5293695170619374 9.229754592909465 -0.7067772328740989 0.7088919652242566 0.5209427814723608
Ni 2.6262438799658088 1.3362131603143228 9.072352996738022 -0.32659617883455366 0.1788315377213436 1.0779033758002274
Ni 6.647947353854289 2.15089247577746 2.779125280106973 -0.16935368013789545 -1.2303564235280422 -0.1611498041708644
Ni 4.311035965322451 6.856308508887268 10.764388834680643 -0.44821372923875064 -0.325143248438111 -0.22275626412875188
Ni 8.446057548971798 7.0137119207630825 0.4210455021720413 0.17561277367372982 1.1162431519206906 0.7804871609637397
Ni 7.559703303484463 3.629556722476797 8.31888107560334 0.416932659737282 0.21928861729512558 0.1794671144228135
Ni 2.93508611486045 8.339802529212049 12.433769221340759 1.0166221603922427 0.6068646782471613 0.4693538536514755
Ni 0.1578473515943927 4.585951764054911 10.20193536828442 -1.1438853391179913 2.1844966633359797 0.4553161446114868
Ni 8.615390138561581 2.33264448326124 5.823081029020645 -0.07376263570444716 0.5636408345615196 -0.15132510477095876
Ni 3.3743776302513178 2.800197437178432 11.431678347871095 0.5899434770117905 -0.44554029617164553 0.18950521538510587
Ni 1.0686055716729943 3.5040189223026856 12.713613749586854 -0.3929697211637813 -0.2716599318079902 -0.6365305807427103
Ni 3.074895351386435 8.263542945652421 7.836777066861222 -0.041685038443612085 -0.14031769791686158 -0.32915648336256215
Ni 5.738379327990528 8.023661162748128 3.538071549918615 -0.5147893602764554 -0.48772592840076 -0.4644697860862969
Ni 3.2539601164019243 8.637868558667968 3.465801976713089 0.3513049944351434 -0.3159451268786107 0.458975595740945
Ni 3.652988387377678 4.348657359878534 9.268713253734397 -0.5331989731318946 0.4864226362083042 -0.2743570190241791
Ni 7.336961769837382 6.20414381310281 11.802235466465735 -0.19816880459737485 0.3643158048725145 -2.1876514069148776
Ni 0.6060167535046603 0.14666624408105486 0.2690247459024782 -0.39993329696580804 -1.1855143275126874 0.32625730743789616
Ni 4.749810004967735 0.3505889097804267 1.5327604348608561 -0.2584858563198774 0.18464660174122394 0.5534811204196983
Ni 6.137770739840377 5.591352666591936 0.43524794175783676 0.011915006270031092 1.1315769540642835 0.7875209278820695
Ni 7.784614603854251 -0.20564576914694535 11.657576483566231 -1.0247000523043708 -0.30407742890674727 -0.2533775885590346
Ni 9.184740558009025 4.885760869706476 5.689397071188432 -0.6912907072027257 0.4839026979999279 0.36441170702043046
Ni 8.323506582487104 8.895716736318033 2.4130465963420895 -1.1336703462582025 0.29999040332156723 -0.17212455801481324
P 8.655335634711863 1.710647715592097 3.6063020887520367 -0.19133224129151566 -0.19643305285319074 0.6406237769754773
P 1.8020230380358657 3.1125167459425183 1.7443480965601559 -0.8877720967953484 2.058882075957248 -0.2657741624511745
P 4.672397449132861 0.8542289880606566 8.27451433931097 0.6653009680071833 0.22152496282481204 -0.1504691845285667
P 8.649234868027092 1.6640385844022005 12.476700643328273 -1.2769245010955685 0.6731371762221504 -0.02812426904004189
P 6.589136689294852 7.829417109195533 1.4057864125297048 -0.35358633427015235 0.3004010084964246 -0.23396884501511964
P 1.8206430863550083 3.336719921607825 5.998540713008571 0.20929448219689115 -0.04171717723312815 0.49292058522782206
P 7.087974229515196 4.161639809720398 5.997637400084263 -0.49497155421957983 -1.0068144302732016 -0.6495951272361522
P 2.3919181524351463 8.266003225074405 10.425362330331353 0.30979659077871163 0.9622847232919427 -1.8331140215853656
