# total energy = -340859.52695613797 ev
CRYSTAL
PRIMVEC
9.34790242049055 0.00000000000000 0.00000000000000
0.00000000000000 9.34790242049055 0.00000000000000
0.00000000000000 0.00000000000000 13.68160009284647
PRIMCOORD
 96 1
Ni 1.1932690581328012 9.27434351406847 11.307444928132329 0.843329035990625 -2.9086113590472618 -2.019165988314548
Ni 8.050562903298044 4.192814554091275 1.1783273713264348 0.4295909719312408 -0.2053522097196915 -0.23874466913720815
Ni 8.8620823331786 8.574727820899007 4.368179328959938 0.18409021501712167 1.8921329233217352 0.848653533527332
Ni 0.5817414513512462 3.9810658744505028 13.100432388252841 -0.0690588024708746 0.42977711980011785 1.5254401335766117
Ni 1.7480296594907947 8.49355063857513 7.180554584416766 0.0039024203781997304 -0.18754192101114797 0.6012959259101321
Ni 2.2527602885091533 2.5031812393698565 0.5341503466841468 -0.558336905850103 0.47262429687263124 0.4359580517998492
Ni 8.040252167219826 2.022250369241018 10.819942482787729 -1.1836811309586905 -0.24675031305050407 -0.2832309244750413
Ni 5.676036841303075 3.174631703342884 6.420296245589808 0.4044234715266776 -0.21580297273937027 -1.5625318962225863
Ni 5.822200639416404 1.8033598923529583 4.567150361143489 -1.1667555588479455 -0.505537245550568 -0.7387553284425923
Ni 1.462890600022206 8.249598436006472 1.0202094759358409 -1.4123840995891805 -0.30593247983761507 0.5317738106495938
Ni 7.019311685335376 0.9973837684509903 0.2103352768347646 0.23254753918756077 0.5342852642175379 0.6811932137574075
Ni 3.882651160550713 8.668262929873295 11.639703023209133 0.8223033256685773 -1.6760836388995135 -0.09029354347993482
Ni 1.4967019621209465 2.3748345427661213 3.832585666182884 0.07427891321923337 0.16918681554272796 -0.21049647292479232
Ni 9.310706853455835 1.8909216918494758 1.3960016861439812 0.9981611254735778 1.20894119107706 0.8255645129183524
Ni 3.775346591700438 9.060491556442567 8.209684763380206 -0.3279732616877384 1.449581277464768 1.345614864483431
Ni 2.77633628827428 6.170606300677714 1.2658452356828187 -0.44489314950594994 0.013646130028524885 1.2424539781225248
Ni 0.9981409485256373 2.1655817530010375 11.448092529183322 -0.6999308993762269 1.7542950544039335 0.5865807311871446
Ni 5.5327708928581485 4.947321128721564 8.876553820506512 -0.07652554316156497 0.9773585869059296 -0.7034227145795692
Ni 0.6175887865395931 6.973151744488382 3.3477099813441566 1.344055233305795 -1.1070553147738353 -1.2797172333493574
Ni 6.141964328471317 0.7334747295691998 11.641317405911497 -0.5516651502568822 -0.34648366178710005 0.6076293243273277
Ni 3.962893552658976 7.008000723726453 9.521668439735063 -0.9685093640454158 -0.7368282866232083 -0.5513051958143022
Ni 5.874735849533883 7.998794221157368 10.55661301383962 -0.521454945222089 0.9000809960696887 -0.6497776755606035
Ni 8.106715751549947 8.518201056560859 11.181382858815555 0.7089197331383985 0.35271061653341834 0.3974071881098446
Ni 1.4758841840192336 6.295924276982862 12.315724611336512 -0.11537825436270452 -0.4664521066236483 1.2220630731709985
P 9.13904197826057 7.801076742652954 13.029192960711152 0.0005229623830055509 0.4240646427963729 -0.28500755675948974
P 0.9239167358254934 0.6613743602389298 5.897945755797351 -1.6179173149714265 1.3007503998705727 0.28131828083336063
P 6.918354342049117 9.114877651186962 3.5793528663536156 -1.2817265504699025 0.9744257295298508 -0.6550278682159494
P 6.622035191601791 4.038069381798615 10.586780563677898 -0.5594609921522171 -4.178765374188216 -0.43729399700245336
P 7.101750834450331 4.204994870600719 4.866079445872809 2.0092423014429333 -0.49518418445101814 1.2461627944326796
P 1.31094045047423 3.949283007119644 2.1273927683225784 -0.8992664705881932 -0.21310999928823943 -0.5992238738724518
P 7.680199019871972 7.165054827851678 9.45324646990323 -0.1709225672869121 0.023270540492166373 -1.3706239849332589
P 3.614833763777442 2.6619553574918107 4.643439525429923 0.20423223718263536 -0.33761001344655406 -0.18969007770240232
Ni 5.580884545255776 1.9829237448701575 9.89231649938668 2.0993029029764556 -2.3779202399388852 -0.728395582474823
Ni 5.684674302895344 2.8727505511126576 12.710233191241665 0.1420886737743553 0.5333686659405396 -0.2094289508922264
Ni 2.1256475149900282 1.6418561868014123 9.412749488182422 -1.107806334007247 0.5859433547134618 -2.246158916232467
Ni 2.1621417250075794 4.976916586947888 4.090278350130845 -0.3337374178650252 -0.8928312564858107 -2.835869194187529
Ni 3.023850041564425 3.2674470238511497 11.916317730701541 -0.5864030679586998 -0.1520018191230092 0.8462433814239426
Ni 7.242016106303138 0.5332632307695296 5.820987281716537 -1.2558687088665341 -2.2823500214410437 1.387343868791101
Ni 4.278282423504819 3.500004133691479 10.16247367606963 -2.100041580914693 3.4065106284365974 2.050819867774403
Ni 2.043208365875073 4.802120164530317 9.18087290561906 -0.5206900420316065 -0.7639225717368392 0.28804017293822654
Ni 5.528153029193017 1.2606019973634424 2.2539755157894508 -1.3292829600926268 -0.8458507739712142 -0.7673840479228784
Ni 5.897329729045261 5.305018604726073 13.147442988196044 2.1905811789671628 -1.00167685193632 2.3254226842608015
Ni 5.8377368527999 8.174413258964679 7.88846841033023 1.5918640695278006 -0.49381147247320767 0.08521355785386615
Ni 2.9467859361892472 1.474098734707412 6.458330989882691 0.7588906657398866 -0.24205779267084118 -0.0006995971701858918
Ni 2.9028321002511004 4.146262001353723 6.136471501164372 1.6186318245399478 -1.0530948013969799 0.4770936454978945
Ni -0.11389764424099687 6.1823846573944445 0.695227787897373 1.9223654969540311 0.4603120551641814 4.086058850391415
Ni 4.3887372353817105 8.834739719371905 3.4521550269248698 2.0182223934543564 -1.2235653687481378 -0.1720523100159811
Ni 5.912529417951137 3.722362682279464 1.8731204817735478 -0.8333516130629389 -0.76685928576766 -0.5919039431722709
Ni 9.468396614927679 6.165913653795334 10.528319718383644 -0.9786852761371533 2.309695760443848 -1.296090532501058
Ni 2.478942129078998 0.1802088577659724 4.485813329692743 -1.0956696986447132 -0.753324998726651 0.5050615914657303
Ni 1.4172447937937982 2.8612713272649235 7.460056858885205 0.6132456420728406 -0.25479375218027084 0.16322802685613177
Ni 4.4995566154426925 6.1279892147478945 11.891156917258089 -3.1168568311543483 1.3588542459918402 -1.3738255225896918
Ni 8.25064540104796 6.166474527924703 4.827306217309592 -1.4881336838166692 0.18500115686716526 -0.13291497769488722
Ni 0.6765460054383371 4.810823061437679 5.869310327122461 -1.7137243320704227 -0.04735792045867328 0.8059002017202056
Ni 8.234165049546693 5.855834391374177 12.556137698148856 -1.304989891873217 -0.775738847645477 -1.7688528976134505
Ni 5.462736409904385 6.562358184237024 4.205299612211009 0.37677382813020915 0.6586091578093045 0.23843459409595708
P 2.697598908413154 7.606789944239843 13.208189395567471 3.3151320794226002 0.2496672295869829 -1.2825935264558876
P 3.554502403261746 1.105520300593161 10.661468432324984 1.8836146014380788 0.7550476378447125 1.5867172352195382
P 9.113400682646292 3.9977051402884234 7.71809167605208 -1.6138822256701046 0.5772059748404639 -1.4852949288162935
P 5.876726952693139 1.080888578411745 7.952990435382521 -0.25494261905330934 0.05300637699370226 -1.1716725365335887
P 1.210609416632432 4.52885294080002 11.17989186842165 1.0112994626277485 -2.703302600970996 -0.8219793666702553
P 0.5586736332005516 7.08671005988111 5.993648643281645 -2.2888999067444193 0.5152408459915772 -0.26026865925191306
P 1.8425743418979452 7.714636691415174 9.822389517307712 0.48281100759764595 -0.8969941296142487 -0.945361722284359
P 3.36215996849711 6.945949349214027 3.727976097524223 -0.15051237906167625 -0.16627632676415235 -1.274087802977722
Ni 8.706897809484602 4.077826009668657 9.691812411249522 0.28017722525038197 0.15222190555361523 1.848075013770572
Ni 5.085389643567678 5.439385350318359 6.48158950523737 -0.8058670344894251 1.0283052531571257 -0.18582493832004124
Ni 3.4771952524305085 3.959416133056894 2.4067305197130704 0.22855333042650314 -0.9707770770336701 1.0794678920738698
Ni 8.93834251896835 4.0179713921629245 3.6314113334611324 0.43643164900215803 0.9823845793656114 -1.1478209267269717
Ni 2.448355793224124 6.450211402069871 5.654468426658225 2.605563399846293 1.7988666703667215 1.791720032019611
Ni 2.498591419411194 0.5068329722132733 13.050563199830291 1.8134527957110125 1.1873179563803296 0.9683730955778677
Ni 7.53837264835909 1.8189895847580164 2.8298474193768595 1.2693484885205237 0.5493632415965829 0.16022780657722727
Ni 3.9728958079660406 8.395360274327087 0.9814465300649956 0.20505678996645976 0.4360668094635716 0.46554913519340474
Ni 5.261653686623762 4.149739420955805 4.142227446783135 -2.561831763286298 0.263023853399547 -0.9792835718427844
Ni 0.1614214440125721 6.4141378476493465 8.146954731171245 0.5563566421952806 -0.2927275511115668 -0.4483749374069633
Ni 4.400263198740225 8.920731071306191 5.907632986801754 0.7155876320768773 -0.6169215482625311 -0.04793898977312389
Ni 7.010543353112922 3.075656115313726 8.1384444010483 1.2779316022038443 -0.057758546966706986 1.4860325783132664
Ni 5.396207390259171 6.095505254755325 1.844949643835819 -0.3694726664831056 -1.3403253339497174 -0.21104823166320427
Ni 8.414934781442033 2.236270589105731 4.991239442631517 0.6379166624569594 0.393690915600522 0.6727029168982093
Ni 8.719293127743637 1.527045252519761 7.325676091439686 0.855843623517868 0.16418242034960112 0.49538010251190817
Ni 8.653661506705411 8.678321272593296 8.232642276285459 -0.32291924420359874 -0.1866363784777431 -0.6114263294759147
Ni 6.153714641481578 8.192464058028174 1.48227814909403 1.1471434410439727 0.8375828775354672 0.5999381263306571
Ni 8.444642414494231 8.813510633575323 1.5754225157581914 0.308829598879752 -0.7972376409492012 0.43499157412152184
Ni 3.7816844693622973 4.345465796300961 0.2513314365307107 1.5064214263822637 0.17092796660355078 -1.7005602838846392
Ni 2.9472346354927415 0.8836693430922538 2.3242306092340996 0.08039119676455832 0.9752032311258236 -1.5780163650114305
Ni 0.24804190976196672 0.5729460102125388 13.215440563269986 -1.5662453405184316 -0.23934476461505227 0.9188204814607208
Ni 4.214314729050386 2.9791670692580996 8.083677846686152 -1.4530455818642845 -0.7920730660291262 -1.347744509231924
Ni 7.386375759300333 5.615574610157193 7.213281589865395 0.14888692764311132 -0.7044156746204578 0.1595670330647768
Ni 6.602871992181713 5.960250458458207 10.863395271170308 0.5880179778543034 0.9655255988267435 0.7296610794508078
P 8.47127458773706 2.398587562144861 12.953875043458739 -0.7579236738409271 0.5078437821965577 0.3777127950047108
P 7.721862619781866 6.391310270584064 2.4372673116865164 0.12408940898345726 -0.39843820047752027 -0.48510546005877747
P 6.537679722544828 7.260824085441283 6.026388735793293 -0.5260140253476813 0.10946266020921791 -0.1484210437502863
P 6.318770549852456 8.424245291989545 12.989556920778922 -0.625794939492761 -0.5829835007541895 -0.272537192206621
P 0.9149558368186222 0.11792191611921303 2.6110513563005773 -0.08227118739609056 0.9113272584074692 1.9357321480689242
P 4.400029501186322 2.1382017475857173 0.7333401197781515 -0.2824487948933781 0.807542622419635 -0.593757451441242
P 9.48307282131281 0.6534763177072114 9.651958565197058 -0.9138554241459618 1.477089767297682 -0.23615968201885135
P 3.160955722488459 5.699528119421442 7.672257976990335 1.896586331107398 0.5629481793698692 -0.12547574780802262
