# total energy = -340859.0160500247 ev
CRYSTAL
PRIMVEC
9.27608182055227 0.00000000000000 0.00000000000000
0.00000000000000 9.27608182055227 0.00000000000000
0.00000000000000 0.00000000000000 13.57648338509749
PRIMCOORD
 96 1
Ni 1.612730287626616 7.247513942252782 0.6088282012673651 -0.47285286794366943 0.8086355983734977 -0.08350505980319167
Ni 2.2059449881828694 3.43196470597493 3.0600717490419487 0.8006034720976405 -0.43413231144502007 -0.9134391625441494
Ni 5.749064981123845 6.311789201144557 13.025305093173543 -0.22271924024322934 0.14738231807312682 0.3691805891639835
Ni 2.9365941151506174 1.9648596248975883 12.411050384113878 2.899240459355323 0.35766487521490015 -1.2710140491484045
Ni 4.218483672999132 6.198222132937489 7.208610055618751 1.4050957934578834 0.16928863122791488 -0.7311199233845215
Ni 9.247687610167956 6.921997683368323 6.22464134121655 0.5197171365953759 -0.7206946142861395 -1.8103566732841918
Ni 4.540855340188566 4.650340932449288 3.7275591081318273 -0.35785745084168047 -0.3300049474057865 0.43240118768652624
Ni 0.38663079553196783 7.8547169740069664 3.8057193725043468 1.5661514952530446 1.2919418004400074 0.02718941593059834
Ni 5.108746337714084 2.225545348807025 8.37054039736332 1.4538433951752316 -0.17998519170981261 0.2558823572587593
Ni 4.050141342375766 2.1245566473800586 3.7074114586875937 1.3300794878519933 2.8624531153236443 -0.8106971088882168
Ni 6.705345519270938 0.9683208921888128 10.70884486766167 -1.3785766641214323 0.016118245718101276 -2.4867943746344845
Ni 2.224580636310616 8.616505907228992 9.968098725767565 1.5088950847337368 -3.652043781250549 -1.7987049479778765
Ni 5.222972007721585 8.421884437160177 9.91464808781749 -0.04750781577297625 -0.8032514512434489 0.036580884447827325
Ni 0.6549989703022308 6.8435869647900045 9.92488424396929 0.632061489227763 -0.7221673421769239 -1.7588104257757837
Ni 7.030685532603169 1.7824733065861142 5.0211671399872015 2.1612245801819165 -1.4644893049248522 -0.05680132525976024
Ni 3.736340774673658 3.676055519729793 7.272243048446789 0.14716840229010783 1.39976306839106 0.48750609908047005
Ni 1.5586692835009284 5.7577102892647405 3.152160977689542 1.6618271289804991 -0.028478052835034826 1.3246058663319316
Ni 1.4229509322032388 0.9698978260771736 10.699436137997173 -2.446318783117942 4.457943982970755 0.8657454560126122
Ni 3.9412772475886912 0.9726806505860456 9.979611270760767 0.16641568055549402 0.7064427323528156 0.7093020561784816
Ni 3.0825718128043484 7.7319387566755315 2.494189950811836 -1.420341149652728 2.216016845431448 1.4850650721936747
Ni 7.766204602461443 4.953000926034212 6.593201401996073 1.6701305066398722 -1.975873239064184 -0.3586130980607824
Ni 5.752367266207707 3.1933931608293293 6.059659734991732 -1.7721624216026577 2.0893589043898664 0.5661831413673991
Ni 3.166817186769601 0.559367206054843 0.9371374883505623 -0.19117206156456754 -0.1570838616316069 -0.044943140369593564
Ni 2.7494584430106688 5.343245682995034 11.410518298234871 -1.0014215413924044 -1.7498681289808315 -2.643182238640332
P 0.6219826127208032 4.879246800467406 5.453496551995697 0.3657095998962476 1.2975396062427589 -0.30322202288498745
P 2.0400329909639185 8.211660597678287 5.603543666689569 0.2665874023810893 -1.6186315674296319 -2.9992152346787635
P 3.8332480001542786 7.152990669768095 11.61263113188157 1.555943187261475 -0.020225068797623234 2.044597541013776
P 2.951955306439591 2.931612859279736 0.7123335036585215 0.50815642834097 0.7040693470246326 1.4126779766805153
P 5.345481218683829 2.2682060485280333 11.465258311540724 -1.2767388674473237 0.8151659432928478 0.31120478398014795
P 0.9775784217216604 2.645213836908322 12.137497807283586 -1.490002104483976 1.3987842494175586 0.8728926085803547
P 0.1651940284956623 5.9926270582220225 1.71054193107262 -2.523292469560519 -0.23991786350970296 -0.8301297636915317
P 0.9762797702841868 6.009815637605156 12.390509428805725 -0.7434406497334035 0.4788160275056399 -0.1196668544357294
Ni 9.161939510967912 0.5132094235343521 6.0592794156421865 -2.5008079153047578 -0.01849188815660041 -1.013059896962281
Ni 1.853880583483771 1.2820565273190472 5.320039709415552 0.7965385579996477 0.29720615570821074 0.46768160815537513
Ni 6.827520791292117 7.050480690942946 6.444240516468831 -0.9107065941043346 1.7797818858211287 -0.06790977646809594
Ni 8.136088360099018 1.2150461131454082 8.713712750148401 -0.01044819191651749 1.864636774783995 -0.4396455279537654
Ni 1.188609280311124 0.7219537279856922 13.31200002255107 -2.510537998108328 -0.4857317807888667 0.7522718748717883
Ni 9.259236331879775 2.2150077200000964 1.4017717824743832 -0.028980703503066217 0.4174517654655456 -1.290075179544914
Ni 3.555076862247429 6.819571189278439 9.636194029418903 0.07298050612278398 -2.307885446707987 -2.0021910510231065
Ni 2.714524719342628 1.5595783395071598 7.803504654570194 0.5728947490596198 -1.1209287303218178 0.39765401401332806
Ni 6.450893322261375 0.7250389527578617 3.195333717120183 -1.2253306881786767 -0.6973685379656892 -0.6998766490995237
Ni 2.8273497010139974 2.993975956523559 9.943225840307267 -1.7940178269148523 0.29955511555636155 0.050104629965875
Ni 6.598633475437391 2.7050074595222857 13.537478378382426 0.29650784408960545 -0.6249271921758269 -1.843448570742154
Ni 4.902418452544614 9.112952523530069 11.99419811441556 0.3771065288792796 0.35459832047443446 1.4443933055059253
Ni 5.719919532434259 7.304645329419926 3.5710085325607217 -1.6366825113940717 0.12611492405391828 2.1522241764555194
Ni 0.24628460707602406 3.8666975507509207 10.44426597226432 0.09219307449549284 -1.2524092895630237 1.9317410246316602
Ni 1.2000837933693729 4.159283719613727 0.5499454898759719 -0.41376274664973256 0.8105569837659267 -0.4473336406266425
Ni 7.618232547243021 7.7164569763245066 2.4515459480378805 1.0777226272479892 -1.1966230358313392 -2.493697786622538
Ni 9.143814047333459 1.5421114776731397 3.591645031510347 -0.6968147223447483 -2.2145741994476507 -0.6160358032234681
Ni 2.107971013307181 0.8844706793038196 3.1498391744409733 -1.0169900852546228 -1.0482896666988526 -1.742900696524063
Ni 9.092879082739405 2.9603316082112956 5.188714510409201 -0.6760049846882487 0.2876663345385755 2.4553860355265322
Ni 4.911759466812728 3.1074038835051834 1.6523261699551866 0.17815868002403512 0.23396601680164222 0.2306886316019511
Ni 5.8943376965686625 4.914245456707321 8.014265579182297 1.0332209452911882 -0.3762945745009455 0.9089381893500024
Ni 9.271629177025952 3.9140612238919226 3.087726531402949 -0.6325682536608526 0.5105920343656561 -0.9647493827823513
Ni 7.329885547715395 8.398963239288769 11.765380369173556 -1.515319757313158 -1.2764408765909308 0.354885255587234
Ni 7.04792976847648 3.967714080422976 4.120734179300492 -0.9670811162393217 -0.738017164724987 -0.32213454351877424
P 3.803814992932109 2.170167141080471 5.631742027437969 -0.24407765131434742 -0.12636046440582108 4.258641064768937
P 7.173537190725268 2.765561720835341 2.259439223716917 0.4639892469054525 -0.22341343809677652 -0.5323481950958251
P 8.865346074812331 8.941771711907654 9.876090199030727 0.8498786641836846 -0.7986345212967277 1.7357095780922625
P 5.859710083596597 5.403688631327735 5.456728338858667 -1.2784856749351012 0.004229978920947553 -0.08340941476559184
P 6.0133034443229425 8.44314521640796 8.012446539561664 -0.7337697023025428 1.0576006596871335 -2.815185183475616
P 4.232332862971618 0.41246375544782704 2.7951672631770617 1.4275680064184706 -3.923569244363204 -2.312078144633096
P 2.803630760116711 9.01053530552188 12.377028499276578 -0.6966630272582324 -0.6961300375728978 -0.3560533077534061
P 3.9326412155294923 6.021633365686165 2.069992879626435 1.5366532286836116 -2.311581150392019 -0.6062931220144074
Ni 6.2149005278273295 5.418326288244403 2.27864998890983 -0.14285357696483786 -0.10013366949880818 -1.3429663711169904
Ni 7.155652905214916 7.330655462496182 9.353246637046661 0.7082545887505738 0.0273213135227723 1.1350857385484903
Ni 4.70046887793577 4.193976265157665 12.486874931115285 0.8528310619437893 -2.4800105189434323 -0.562237783566406
Ni 5.38356881012859 0.9858990670031879 0.37225101368645636 -0.022924470006657295 -0.8367279857343397 0.41537945631754913
Ni 0.26860193202900823 8.252660878775668 11.76620872326903 1.9549835400993685 -0.46173618920521775 1.197482555618157
Ni 3.435786451633781 5.7000316132775195 13.429110553966101 -0.7371496745183692 1.473047478907508 3.2731071411410664
Ni 1.5110458800724311 3.2542164285115764 6.78184722023617 -0.489971272791511 0.4478105802630611 -0.7284644880395454
Ni 3.933763621414737 8.761491064141225 4.751212755246883 0.14519842304793057 0.2226757885998036 0.3122463378707848
Ni 2.014653631443005 6.4701226396176805 7.33470818258927 -0.8367254146311783 -0.4341073717443556 0.3393905023857446
Ni 8.468645164990924 1.4111703084490135 11.813413775413027 1.397277325854729 0.6031517481719483 1.3547798188121505
Ni 8.235296053840306 6.018089902478202 11.221166570177692 0.7579388433495785 -0.40939521370965626 1.520104323185995
Ni 0.580310743308614 4.653485524144314 8.457225380814684 0.3266476008977794 0.7709846207899432 -2.4694142314848246
Ni 7.659566767281467 4.428438506111831 0.5942118793385995 2.7586612802469586 2.29615144610051 2.378622408212232
Ni 5.9807351214874425 5.866759905685741 10.78172333111635 -0.8675925365236801 0.76408789367011 -0.9311910872109317
Ni 7.809486799656098 0.32065744729196866 1.351001004526352 -1.850267907656833 1.8582848644240382 -2.6682386673883274
Ni 8.12599598321351 5.873383028016856 3.7057964928642786 1.0163041149311915 1.005405465740817 1.1593340695728938
Ni 3.1697855329123987 6.181747811844966 4.999295994563807 -0.355245210029814 1.0189832044252518 0.16275828630856484
Ni 3.6608427457479595 8.446892753413241 7.958330806553969 1.2004681206090422 0.9805138447054595 -0.6394148442690407
Ni 4.77702438017484 4.189987550028282 10.017937257505123 -0.7605037758632773 -1.0205374362862487 -0.5945544934212406
Ni 8.61902900145037 8.28667627035578 7.883076738576881 -1.5886285933096382 0.12165920227540983 -0.077305358750383
Ni 5.190858212889202 8.051583255846271 1.2197722767696424 -0.16152904188715408 -0.16281433635748088 0.7143707289506407
Ni 1.4276168012964476 8.753476529555673 7.3490044796995155 0.5776178655669021 1.3519379784879815 3.1264514168213187
Ni 7.130709521533726 3.2945117274000433 9.928061301950251 -0.31303566654129955 0.661227312158442 0.2693387398739813
Ni 5.487136262267112 0.6799562681059649 6.301742277059359 -0.8771395567821668 -0.5944735036716601 1.1069858949884808
P 7.639150111468042 8.268448769822669 4.463241437027955 -0.5808302018566126 0.5534788064268532 2.0821585299866854
P 8.01578685658048 5.501940888654311 9.04123171507108 -0.5169843110452451 -1.9020951767407694 -0.4466939501601146
P 6.982477736027809 4.565427680601906 12.2237904124792 -0.41897334431639455 -0.7839136701467855 -0.6736470259790334
P 7.452737973700399 2.4897003272708558 7.1035148328248585 0.4515397082881901 0.016383840674662108 -0.2113487936227586
P 0.4662028795386551 9.228504673220131 1.74577248935494 2.6531771450695145 -0.37561246083225636 0.9073826719374244
P 0.9153702350421651 2.347470166622405 8.78181217631318 -0.33928611559739635 0.19130447337737375 0.21136370602109406
P 7.065990299539059 7.740741758205264 0.2107460828813888 0.6509570405806854 1.2474858841194774 0.6544485986737116
P 2.7041076795977506 4.93701823727159 8.829098857976103 0.8469751173836446 0.22283699676801622 0.35199379297205186
