# total energy = -340874.05859363946 ev
CRYSTAL
PRIMVEC
9.18425993927395 0.00000000000000 0.00000000000000
0.00000000000000 9.18425993927395 0.00000000000000
0.00000000000000 0.00000000000000 13.44209278034745
PRIMCOORD
 96 1
Ni 4.884171059808431 2.3252250066134126 5.9888556804876565 -0.39551459907282205 0.8059788774769411 1.2574496802004085
Ni 1.6741987418013589 1.700125907570766 1.6870098659713009 0.6248197200636851 1.2163305415625956 0.15502312244783625
Ni 7.702544903116254 7.220160019054415 2.5850761911087776 0.10232347806127538 -1.2996026594193748 -0.9507013893297175
Ni 8.310983754654224 4.76057847399231 2.1936825254058636 -0.5857368951296106 -0.10531161415532185 -0.5678134778819705
Ni 5.396937475703498 6.054548854882065 7.282898617030821 0.48983217611048546 0.2124091165664729 1.2513780200850322
Ni 6.876292143187474 1.8284667557683203 7.601933172485471 0.2469871116516585 0.2358172110777681 -0.40237070276270703
Ni 4.918685508608089 4.9813129770394 12.281838944145044 -1.0755557015036574 -0.5114584961310094 2.8822950897502357
Ni 2.9633014649306513 2.841114070883116 3.608153151794858 -0.07741951573074408 -0.21897545693008094 0.18813790272393405
Ni 3.9549719303758306 0.8512945630413793 0.1997640823594208 -1.1652195818193931 -0.7909973164664442 -0.9383492955222678
Ni 2.613105633975109 2.599016979249544 12.840236437053472 -1.1898376374783894 -0.4652524298885923 -0.2623314553182127
Ni 1.0658701013824945 4.135295689751155 0.6148834467276232 0.04754509676881489 -1.3095865101049637 0.7318935683257525
Ni 6.942703526708049 6.569418466300048 11.599934279037798 0.019045703777541393 0.5077018573020546 2.4694548549147726
Ni 4.113372861309222 3.36700479421158 10.380629176063577 0.8990620678868708 -0.49784424778168457 0.04572244173777932
Ni 2.013079564528807 8.90542579406588 3.1290773565841405 0.40535395376074707 0.37413947583115564 0.6445164271616641
Ni 2.6797833610335204 1.3470002976990207 5.408385655700511 1.2725358851095696 -2.378487939516897 0.2577255811150852
Ni 9.044007092080259 4.43677820606237 12.018709897282301 -1.0794954028776957 -1.0210388014026996 -0.3932566562765808
Ni 0.5131402152740303 7.85550875217381 5.033203127191922 1.1857305572885515 0.23433317033307385 -0.12485842593899786
Ni 3.0375929434672204 8.479781267823169 7.069169867454829 0.6907674877094039 -0.07681916314258384 0.7166944919878109
Ni 1.6636552114069985 3.1604232357095343 10.359054431072817 0.150305919477825 -0.1599565551937116 -0.794687877944154
Ni 0.5688354043136474 5.158817168617626 9.81364164484692 -0.38637149912097324 1.4124314078873481 0.04717434369295747
Ni 4.646996731494875 8.130641626759049 1.7768695835074173 0.061225679579701 0.46743092559714977 -1.5869617471301767
Ni 8.136694054049888 2.3440619237204103 3.8143682583258807 -2.262627346201136 -0.5587056020434313 0.3681930284397336
Ni 8.081055807421809 8.094446458393042 13.131325126407111 -0.9693719691560272 -1.7663748683866032 -2.2018906904427107
Ni 5.473396439582462 5.735322348394974 1.2214330959989375 0.4891171523213318 0.8472286281553473 0.11665737818544424
P 7.920257784647886 5.9420049337562 0.0484175814747293 -0.3283188179526152 -1.3673360582106064 1.252369437464024
P 0.9774256783008822 1.7184025848223141 4.415552462948775 -1.6028082272441297 -1.468498168973929 -0.7988456088662694
P 0.5205666078497097 2.3152600845943527 12.722820266037182 -1.3277007032071715 1.0624081083781058 0.8258684173120163
P 5.096786677081466 7.351421461908246 12.779653384881556 -0.1220320122337963 -0.7911983767336567 1.540551021076121
P 5.997220704427712 0.4084708786082046 5.500221825972574 -0.707639323764078 1.1919156030533409 -0.05236000165895498
P 7.516728956305541 3.3824435351461792 6.205071527651448 0.8576868473741939 -0.22033865582619475 0.8884585813394118
P 1.6303530849174943 4.850721985160121 7.974589111088582 -0.1395003442218888 -0.3057306482394541 -0.5704627425793595
P 4.832316728269617 2.3265842770823726 8.54370004319999 -0.6943999422556686 -1.0057422802549454 -1.6095357757759507
Ni 6.642892545703257 9.007499658876789 3.508399231041107 -1.2745894252044887 0.3898692278615866 -0.2833491952204604
Ni 5.656255054697197 1.8415359576421662 1.2697055661668455 1.4487166154716276 -0.6211576978310658 0.3985639274221071
Ni 3.8001344922934943 4.134175210040256 8.081682173948721 0.14188349974208467 0.03983615816033139 -1.0993821144992937
Ni 7.092342673672609 1.9271057073671278 12.473899269279038 -0.1937807028320082 -1.7693036119976238 -1.0930646569216982
Ni 2.757675069460847 2.006319949223712 7.5841763243457 1.0062953245449378 -0.9803690915974792 1.7745437773506405
Ni 3.1300600723961587 5.903853518026085 6.704996511318818 -1.052997356587167 2.018957471848168 0.06288018446398848
Ni 3.0104350868678096 5.658826647476309 0.7593729791520103 -0.8402753367659658 2.81813629568414 0.1588877476095651
Ni 8.250523771565309 2.0733191253795127 1.1903058022597681 0.392473241143337 1.3238551042088362 0.7847053128101453
Ni 7.55313536264983 7.206594867144598 5.310137035148532 -0.8743483671902749 1.1856050874542805 0.5150739813964097
Ni 6.20855052531119 1.7443021978119453 9.992044975471844 0.2277855990225432 0.3514600319557689 0.8776321801478691
Ni 0.8581946975233331 6.256822995479098 13.100059150343068 0.1184808045474282 2.172503752640162 0.812759390733884
Ni 0.1934296982888717 0.5468179779944834 11.673409276867 0.1473362953265398 -0.37499719584576063 -0.28051172577166533
Ni 5.484252234814286 2.074099787473172 3.749174707671414 0.2627430889343346 0.3597322992668901 -0.37920789149299855
Ni 5.3134801057613785 0.05780481354448172 11.712646272120297 0.791786645136959 0.9591436065597997 0.18084522571726275
Ni 8.17441380956351 0.5058102574275677 5.404339989203372 0.027901611506274526 -0.08240951274616774 0.8748276208195386
Ni 4.680684596901246 4.369430028029404 3.1497915364198903 0.9197368226274031 1.1666845964006938 0.750699645288662
Ni 6.269414615836822 4.1184793098277455 8.566874686269756 0.8054134918917742 -0.1633234147834155 0.2560402229928623
Ni 3.473937132523025 6.678490737174111 3.2688617926487447 0.11777015163364879 -0.06790617692367015 -0.2135604565620967
Ni 8.892880095007783 3.584001303469031 8.199756856401661 -0.3826909649455925 0.2397962503301741 -0.39827570675772694
Ni 2.182510791632606 3.6654473204874876 5.919453901935371 0.5497661334619564 0.006997514363755691 0.4952847145846245
Ni 6.013403370416268 8.678473547049297 7.386523703343129 0.3257556852111293 -0.38124857607211116 0.2141420400971796
Ni 2.1699926453542844 8.62886017493228 12.474464101264449 -0.15025526874554768 -1.0805590682555195 1.0211287900133446
Ni 8.879792524614087 7.594326768415254 10.590123981813958 0.37941460818716594 -1.060571055169367 0.0035280677579165045
Ni 3.8834540983367325 3.730076957582535 0.9635941828532282 1.393805822366361 -2.1623599793379404 0.44975664824583833
P 1.3459349235476743 1.3943451576144632 9.140448250278917 -1.0151784859671806 0.059515895977445894 -0.5628239950871791
P 4.6426617608100855 2.799582847500452 12.32599594744038 2.406924083370403 -0.8492029782728987 1.3463280885003717
P 8.788032583699405 5.84317311269896 4.217846573238638 -0.05500540970160204 -0.20955493494712943 -1.1662253973760883
P 7.669674436843244 5.689896998803942 9.84606391923557 -0.9891231836410256 -0.7401002725062609 -1.476330006313522
P 1.7357975731210238 6.626452720436788 11.163644277115553 -0.5238424716176591 2.2914699814644406 -0.5739810401452631
P 3.7779085832740233 1.2387362416983931 2.35602258542126 0.11413409754295827 -0.2758014647801895 -0.7210756517746421
P 4.196067937677534 7.187160973142449 8.916381697730893 0.2325197712734189 -0.04489326096826462 -1.6129183190949383
P 6.699136953486413 3.4678847052321853 2.5956279873370707 -1.0061677978281383 -0.13849658554772276 -0.8542215145334127
Ni 2.321340064664968 4.737085137103134 11.824847620350944 0.33861634322388134 -0.4784961822723759 3.498393113670207
Ni 0.6551417316846262 3.724676612746399 3.8746427193643025 0.7606901808424705 1.7344787910089547 -0.028961677339672705
Ni 1.6411262218099896 8.445542346821275 9.374784642275525 1.3822204315216065 0.1884469493239206 0.9644735034131453
Ni 4.244744515282159 0.14832304251724945 9.358466049240073 0.1618637995187535 0.8079853663840085 -1.033426119323459
Ni 3.8335284613822522 7.654942883922901 11.044506975789243 -1.5701385049252508 -0.7384352260990121 -0.32305397000925007
Ni 8.55822403184602 0.13507199229688083 8.781289500062176 0.2243277223809298 2.037954067555329 1.095969746383635
Ni 6.41098998258688 7.970385475320725 9.554437950676295 0.04233167088867548 -1.0615293053175783 0.20416975937581613
Ni 6.669453425407517 5.133670664941877 5.25682607998555 -1.111909043321711 -1.1275369796669548 -0.44459413020829236
Ni 8.63309411875789 2.4483400109134137 10.341431673127955 -0.6317187611763636 -0.4591704853605705 -0.1585344780352044
Ni 0.7864986908416823 6.345947053795189 2.2755712237527246 1.409025724639909 0.7111599353228267 0.026171259078729123
Ni 6.704371981643892 3.7263481480528218 0.35451335154647334 -0.031945442558344986 2.8013652468733885 -0.054449794308448166
Ni 0.32094763679711014 0.19053206428240765 0.6939066559777589 1.3899849059583738 0.6297510959270315 -0.2493550976632028
Ni 4.4105846967551265 9.184994666195092 3.9738997716560895 -2.3021966238533254 -0.6353419597512476 0.9672850047200114
Ni 7.845938753331541 6.005018141104377 7.557628302605337 -1.1851967962722685 0.14383702392402972 1.2747143808181272
Ni 0.9562559591728328 7.115973774460665 7.630901246716178 1.153218186483143 -1.4001636462635885 -0.2435652304543031
Ni 2.692751536048187 1.1612945620074113 10.854597604329777 0.7621212568620422 -1.0462654371799724 0.39570460359644105
Ni 1.7862283443714009 5.7289760247865225 4.607761573093561 0.7372136949870851 0.6447786796841153 -0.6648080875311647
Ni 5.227478695819923 7.449270567153469 5.45000229270048 -1.4436751963929781 -0.3304636322097599 -0.9589255770117228
Ni 6.829406496268302 3.929935637819187 11.1688462419373 -0.4833506821511998 0.6360469562380723 -0.6403818361680004
Ni 8.733533185302075 0.06939994170030055 3.0602670443710505 2.9645058562220363 1.0634532618131685 -0.5917090535526455
Ni 0.5737636781896176 1.9899627822965726 6.672869970099765 -0.805021398659678 -0.5163063111416141 -0.45580568265339566
Ni 9.403947422816652 5.018950074213692 6.155295594133752 -1.0061909377565896 -0.8579555276545483 0.4752005422402397
Ni 5.255839690469562 5.79977748455144 10.37346453489577 0.4091851545813792 0.04256435572477186 -4.045670162161723
Ni 3.018553972641864 5.328808635576873 9.901391737878171 -0.14197143147020067 2.1663991824043207 -2.5414411154450876
P 2.119405741685175 4.512245269869391 2.5050950635484224 1.3472014922442603 0.9809581313317298 -0.6264390008346631
P 8.417117062352158 8.118527587917445 7.168829190331349 -1.3973020084450773 -0.23869890350093725 -2.1299404253566543
P 4.053693540313967 4.613492551287012 5.333567000644224 1.3881635364789189 -0.8712221628564674 -0.5959372327013801
P 1.7992240721658435 7.9991597616670065 1.20425577466046 1.196798642177255 -1.2299373337127528 -1.0467022676070747
P 2.671728765078944 7.8886822990243575 5.0427474101064 0.7730476739665589 -0.33376647133074777 0.13742957773578912
P 7.360642458873349 0.10844957805112077 1.1857899016544486 -1.5535949987442728 0.5622030736737285 1.9229573649017595
P 5.6775074321645755 6.873794024487765 3.2982725482078563 -0.18010191979333498 -0.4445190539959828 0.17178542950783962
P 7.42776103040818 0.19095362181298356 10.793221032100309 0.5186197897661391 -0.011751226998657181 1.0516084466594406
