# total energy = -340868.8533341424 ev
CRYSTAL
PRIMVEC
9.28899819939727 0.00000000000000 0.00000000000000
0.00000000000000 9.28899819939727 0.00000000000000
0.00000000000000 0.00000000000000 13.59538781114754
PRIMCOORD
 96 1
Ni 2.5589425634697713 8.119885046269856 10.816966162488715 0.004531826432082517 -0.21182419059728036 -0.28748635731728556
Ni 5.600931620837689 5.904059505060952 11.596662393138017 0.8205701450275545 1.3816344771111495 -0.15376688144323195
Ni 3.494725549543251 6.372708051465884 9.42638917109813 0.1800183589405932 1.6082815916538755 0.983743407386351
Ni 7.63260276910919 4.280844193674365 10.71765190738004 -1.107382616206267 -0.9103309559324709 -1.7012056307781218
Ni 0.2984118597443579 6.366215041596364 10.391729750025421 -0.020058461312771905 0.8660113080794892 2.039002820534817
Ni 7.822311983079457 8.069529386037138 7.506557563354563 1.2299761573704882 -0.7376759793354843 0.2968762831726177
Ni 2.0841725671306284 5.3045568384386605 2.780338408723169 1.100156787881789 1.1037023391412024 0.443199820963927
Ni 4.277490865258203 3.825358157977746 5.8916289674251985 -0.49538447338728225 0.3545918927165313 1.3852736165256336
Ni 3.9497285573239687 0.7657738798732828 3.1789553385211065 -0.40334309397830537 0.19158575206321843 0.24879408295341024
Ni 6.951013223778812 3.2526914076831286 6.882393534925991 -0.3012209332945586 0.44256604403467004 0.2733018382867874
Ni 1.4287965752362828 -0.046424556117152266 2.9273999733186975 -0.4041879584771039 1.0916371804465523 -1.3341994235576375
Ni 7.661946715000199 7.094351757822547 0.2561506327023402 0.4807160727418302 0.7716790757538065 -0.6429650235141443
Ni 5.4836487272574805 2.2530279797316917 4.674964319355228 0.25248798686522966 -1.694627206229656 -0.9294149691471154
Ni 3.475738836848974 9.148149300241684 7.417358098584829 -0.5781027756231205 0.3431954779541315 -0.3113567361769799
Ni 8.093532157858082 7.716222332550425 2.823123535273972 0.6028295889458392 0.058829925654014806 -1.154626122574263
Ni 3.0142706861938837 2.9170798961154967 10.608875878518726 0.9624677858370263 0.07147563944248336 -0.16097162672178728
Ni 5.178328639415894 1.5553034442105307 7.082327149416117 -0.7558881314681369 0.7141719826762732 -0.4399013527183134
Ni 3.1078573448997764 3.068295500787777 3.4976172147397917 1.3667665588603815 -1.676740555757222 0.02346645855305636
Ni 3.6244928569498334 0.5077793809919728 12.159796773292287 -1.5504556817843427 -0.5447393696713263 2.183447910356491
Ni 2.6282849363967675 3.861492361686522 1.0788224143692906 -0.22046232588825257 -0.1395779915373596 -0.3719411826282562
Ni 0.11167605415639911 5.415671837092743 1.613894730409368 -2.5640272282757195 -1.0151664017823225 -1.9672525872747086
Ni 7.154210063400787 6.828918629036355 9.794525181603014 0.07488877888909039 -0.4510825661461134 0.14691154908429535
Ni 3.186637340183615 2.7447596871176794 7.779403312850164 0.19947672477552097 -0.7015794907232434 0.5047062650088405
Ni 5.645360900102233 8.529808544899238 12.680350384860175 -0.08551309137215594 -0.8238426451312393 -0.7209342411007713
P 4.916917646929421 7.643155071271959 10.543169219558724 -0.0866196941727734 1.0791233642502576 0.31739162951715016
P 5.287390769427397 6.905413530718045 4.577254274267246 -1.0204147946654556 1.0973283172940584 1.7693537485092687
P 1.7048284511771559 0.1359574959288262 0.17188919947285922 2.186055780292983 1.1046263936173686 1.934736359814558
P 6.448775659221969 4.127064825448454 4.953928732085526 -0.07169803986593459 1.3853831455203043 0.12660060544108517
P 3.3005483273508966 6.375234659025983 1.3335146743255442 0.2626549000959025 -0.2739659542333475 -1.908421118958797
P 7.008019806853557 5.154520936560986 0.9102094446260164 2.974582523731748 -1.0787376987760648 3.2872502654106674
P 2.395846329865994 7.447826013280147 6.6063114983938505 -1.0352058369317012 0.9817150641024124 0.7597422151069044
P 8.431410185031098 1.2713294746524328 3.4844296237358456 0.2171605152085292 -0.017146172761983373 -0.3629808881111749
Ni 7.467527978849894 3.3283967445022875 3.2543690007910477 -0.1425920957733351 0.05428061572043554 -0.7176049196172222
Ni 6.0682239734787435 1.3932290004288521 2.2286099896830387 0.040416199033517494 0.9754950513346295 -0.5561380984265711
Ni 0.462955319296163 8.73121260783335 12.320888441045074 1.8858483758646039 -0.07957307173863715 0.046434380203139385
Ni 7.5789123584570754 2.7004790318272582 0.914451730187404 -0.7998581092911837 1.9924792230519814 -0.5186737829325261
Ni 6.192594372824965 8.832583447183959 3.63370754334549 -0.7634001235744658 -0.4132626670848624 1.7591464689589638
Ni 5.367238999525248 6.22073074892622 0.4374802412315566 -1.7854771364336928 1.617550675660627 0.7469892863166103
Ni 0.27010456607286043 6.375021012063181 5.945114091213055 1.5129769681125942 -0.05422919365720983 2.0214396148400735
Ni 8.990449974698267 4.265238676391397 7.757460840870506 -1.5070433762369788 1.8937398627975388 -0.14109699928504735
Ni -0.07171942761313396 1.2933165338243282 1.1972237033547783 2.0242251480050104 -1.7861402239389883 1.6061858854671112
Ni 8.827130805133303 1.8702004893846995 12.495684168111886 0.8369503861577908 1.0309102948801405 -0.10413173491460777
Ni 3.559748538222283 7.216372040577942 12.681478998163676 -0.4837003521811346 -0.2843745511611812 0.3805160687814608
Ni 4.4856387410181675 6.743450554916959 7.109898754415703 -0.41516785452737526 -0.9737006784383683 -1.8436650576283347
Ni 0.8551981384038788 3.147549234989134 2.876784221131262 -2.089513170579543 -0.7726689504709016 -1.3864810065701734
Ni 5.148092949680144 4.022526437649336 1.8097504746094804 0.6545457863732083 -0.5210245425528898 -0.8208421677420186
Ni 6.001027359178155 8.717390578239863 6.189300493998454 -0.9429124894129179 -1.3167938264866805 -1.5709198631759653
Ni 3.8182056292230526 8.833075764098243 0.8893584299563274 0.2243950852837555 0.6167785949267636 0.17753673016932006
Ni 3.781281860651745 7.65573237508216 3.0448779358649425 0.0931739503515234 -0.6148723790429862 0.5522138236715005
Ni 1.7409998108794633 4.865168636939294 9.237209430035678 -0.22927761018703738 -0.5171375487936578 -0.32246852981942525
Ni 0.5070371900211936 7.880962718867944 1.1584820777999727 -0.007224028552264978 0.38405930604802885 -0.22152239172165072
Ni 6.545427687394159 6.002764401875723 3.210387451248551 1.0625009252022282 -1.3964676854692402 -0.6605850505887526
Ni 2.1241431271714672 2.225318897556041 12.84550691830524 0.2806515937836392 -0.19146336755274124 0.10857614383920655
Ni 6.382777325712752 4.1307154018128625 12.91488458942609 -0.8919586240728703 -1.6992662476635638 -1.558850076495625
Ni 4.428084107038841 4.870184696065962 3.860125021124586 1.2423408495834283 1.5849778839309283 -0.3996116519603311
Ni 6.147524152672014 2.414944510540864 9.458936892531337 0.6274522725905258 1.2232311253371708 -1.8653476848080905
P 2.7060617198552728 1.1505632066787048 9.088503712726409 -0.3836265893859845 -1.1162768333721031 0.4478185506828611
P 8.680615433642679 1.929789414009841 10.382825316175746 -0.04056095214149789 0.5819743427633848 -0.7020155498193974
P 6.26886633854547 8.603284522106545 1.529984421318754 0.07405111347914342 -0.7213535880263771 -1.2912468312555117
P 1.666037593930922 4.0974793655994945 4.587328193013305 0.5555097208139529 1.531463456952556 0.8477842435485011
P 3.8845383666740476 2.1411512832102257 1.4256262400882607 0.5975089480638742 -0.25085842168160666 0.17977101881647747
P 3.4281884541278362 1.5769560994406482 5.538611730688028 0.5862752841315838 0.1716897844702398 -0.3809485283331891
P 5.190590117281083 2.9108469782006923 11.497660248374999 -0.9671546497897344 -0.1502814939977928 -0.9917559932781822
P 0.6018936548060038 3.2520133108011904 0.31905944534946534 -0.8178301203885722 1.5182523575789206 0.8167484572886193
Ni 2.776992511505714 6.203276720965092 4.960128209606152 -0.29653561200374734 0.08150011355802093 0.238364402979654
Ni 8.944534455692487 3.6641568800440427 5.101138920655177 -1.336909366289633 -0.6599756991395279 1.1276524221988966
Ni 9.182602195243188 5.5653919130254055 3.785010464602568 -1.6376435897557604 -0.40015569738925927 1.4144453529935834
Ni 0.7855130014365602 9.124415909373838 6.643128443483757 -0.42440685662714 -0.10534478138610245 -0.46889825417129566
Ni 7.649248654211022 1.0727864232202 5.981753616433851 0.9117172947570362 0.2797529932287698 -0.40585583309783
Ni 8.696592510860954 4.948240149475949 12.49318264084742 -0.6330259100235615 0.7652937410527529 3.161547232083187
Ni 0.7275069221358342 3.7828981463703384 11.206216066317518 0.6069268989436644 -1.2163400546442922 -0.6037664989378119
Ni 1.345790085688307 8.428604907519517 8.797983786008007 0.38592489850185796 -0.7624282465794999 -0.08853927979298945
Ni 3.860182612914559 4.847677452984635 12.743868555801207 -0.6231042800344753 -1.3883419710383123 -0.4156147122568068
Ni 5.028729320462207 4.553448429212015 9.839607477453862 -0.2950574847963241 -0.7418509366487804 -0.42773926343448276
Ni 5.350258710481637 1.7479944266616505 13.342119994341347 0.20924537412651062 0.030849638391004935 0.539885898233767
Ni 1.3598814962348915 0.9637614492022288 10.755760023245143 -0.12689782496652985 0.4906883534631936 -0.26985424605781916
Ni 5.531329155955976 8.200197726286842 8.435910704747524 0.09407795022303153 0.8035463567760484 2.262392861592826
Ni 2.5426775273016307 8.940633076371745 4.85625862969059 0.9359838806138848 -0.8314001457635231 1.4699243598974943
Ni 7.189285321293933 6.084767679598365 6.181279443894976 -0.991093419993519 -0.5726363531919105 -0.5585703620171476
Ni 4.551934322475631 0.8836364069525725 10.294128386218517 0.5651415874767622 -0.8933753019147389 -1.845748165409608
Ni 7.432304096982624 0.37016658555134613 -0.03165133308927621 0.08227170161672283 -0.6746970645101026 0.435687828857598
Ni 8.37706025549381 9.054265393587544 9.592076106350849 0.23859580226416974 0.8845165659725281 0.8900104992075639
Ni 1.1684631065622042 6.12793365508286 13.400797668225144 2.5690053982166012 0.4153133789663041 -1.7435100479732877
Ni 6.847858896738718 1.2404992890201887 11.276123210346185 -0.1252273792426424 -0.9088625989170606 1.1393452851557926
Ni 8.282266026998164 8.077034896730375 5.088590412739963 -0.3859174423026902 0.9040950023250881 -0.09486882155544306
Ni 0.7683905907176947 2.6569229184106895 8.873111347127761 1.2202265341828922 -1.8339393457001385 0.7252449526609832
Ni 1.023155304861333 1.4201299397452058 4.836981171346933 -0.4610522757643156 0.8818904412035907 0.028286248539202898
Ni 1.9037709295398455 4.344789658541002 6.757288375807695 -0.6305771913727528 1.7632355514266729 -1.5145340281870692
P 0.9808067612345179 7.216836490497077 3.286372386919029 0.624735387879995 1.0303965884685158 0.16750325719271797
P 6.879237133275543 4.573419775734861 8.67581487927849 0.3415486863793279 0.24938595090113821 -0.5169285181066452
P 3.5993196713326654 4.885102827468608 7.971614982984736 1.3889958025722273 -0.6925821723206395 -0.3418461630150887
P 6.775348975363215 0.7213659653050186 8.09636623126465 1.285995095938269 -0.6778137557622133 0.30050848060856633
P 0.6312701121913521 2.6139148558987015 6.687041254438222 -0.5409629333480297 -2.338500343380366 0.724560782109765
P 2.2098898712423454 5.448480579380506 11.428609549997221 -0.012437968653036644 0.5834969500554983 -0.45174231121729935
P 8.165559051317684 7.988167049202902 11.559560275797763 -4.691876832541616 -2.1415265875323573 -1.2675482020869913
P 0.18049174087509515 6.359415494780213 8.323654088192205 -0.49456531992009667 0.9881721325816659 -1.5234241315878474
