# total energy = -340873.821878818 ev
CRYSTAL
PRIMVEC
9.21049424241269 0.00000000000000 0.00000000000000

0.00000000000000 9.21049424241269 0.00000000000000

0.00000000000000 0.00000000000000 13.48048933479628

PRIMCOORD
 96 1
Ni 4.713028412981809 8.28645156252938 8.51357590744936 0.3320410039992088 -1.3738828581901885 -1.722422631175369
Ni 2.01880221828216 5.45468505473528 13.142614742913121 0.4612152837047412 -0.20010638793971988 0.8955108602005029
Ni 8.190690052099928 3.9334521657230916 10.491594977512747 -0.0018617357990871166 -0.06240118794504091 1.334601801202379
Ni 5.184384675147595 0.940253322322852 9.721670407351175 2.3951615435178364 2.1742166215662104 0.268660225749718
Ni 5.071749538950445 2.855842740194081 7.925921495457702 -0.5070392840173913 1.1006429834895883 1.6796129922090106
Ni 1.0782449496436237 3.560187669073673 3.797413163218233 -0.8134160504812765 3.1848506826958185 -0.5141064752768177
Ni 3.8663537139121305 5.871432295516414 9.258103460311885 -1.0720821411327603 -0.23177312291538146 -0.20159917043516246
Ni 6.219745562796458 6.981738976217547 12.789209914320642 -0.328616294588376 0.27372504186713503 0.6773820675414334
Ni 6.104273594319585 7.72420614147951 5.8639856107821435 -0.320022639382094 0.054225337002467906 0.8536952097162974
Ni 3.552782431564269 7.217813158560271 6.141360571129745 -0.04980612488884971 -0.5974667819720291 -0.4359781064045072
Ni 7.728028496661602 1.0121504417238627 7.5144564732233885 0.02731642842676586 -2.26036966051521 0.5054385151891747
Ni 4.134535679784438 3.217759907724611 11.65322253309249 -0.08873442652293105 -0.6240815563460801 -1.3081322941569407
Ni 0.3366021236317754 6.442602685654113 0.9557453739283478 1.3620128462254801 1.273084301413872 5.16714679456721
Ni 6.136501114276559 4.749732233224319 8.99038109811087 -0.24606614249928588 0.09158860814227453 0.5436885598093089
Ni 1.1145527186263016 1.4513252364047484 3.793530939822444 -0.18646360034530465 -2.2776716421287677 -1.6019453650232025
Ni 3.6141795873325417 3.565585018800677 0.37896855584043143 1.116946605745618 0.381494116424014 1.6920802714380858
Ni 1.0587923854398145 4.684936405017028 8.845128838043005 -0.5595743778016298 -0.003284070067910473 0.26999231429758014
Ni 6.244070478545634 2.335016912527036 5.980255208075328 -2.579338404711493 0.5662613029035023 -0.28732386359749224
Ni 7.97689605574632 3.181765295552032 8.317974479663631 0.4404148020196222 -0.7095756215548424 -0.7485368333093882
Ni 7.806105857814865 0.9012441153283477 4.9971233500543635 0.016507767847036087 -1.4768367707466115 -1.7140004685499448
Ni 8.555223000044228 6.030819901362493 12.708489141270364 -1.8730666507189033 -2.0538771665434887 -2.9452079272243727
Ni 3.1316141534640867 1.2491733049912994 9.123298664058593 -1.4636583243831243 1.4154092595687495 0.583024381294454
Ni 3.604913829951371 6.404609396193548 3.526334496852508 -0.2774827091373544 -0.9643801723683907 0.4806795630769399
Ni 2.743649707728835 4.810189918562294 7.274867566212021 0.6848819754629043 1.654428779633899 1.2757461645167512
P 3.0192553320993762 3.544041672364735 9.212148619479269 0.44526544524370415 0.731952446588146 0.276722176822246
P 8.366039444766653 0.6169972050979515 2.8554908993074406 1.7347793529685092 -1.9002964329691339 -0.0032539881609234284
P 2.467749347537024 7.2738590170736135 1.6013070853545537 -0.3215606732931753 0.421195548778694 -0.041065659692058304
P 8.216083385201207 2.5996436275552757 6.157644725254904 1.7668060423867507 2.827963566187207 0.40883522744112816
P 8.275564758131226 8.281017370824719 6.175600584116327 0.24068739468587577 -0.5220396140809654 0.15320740939533617
P 2.548074069327469 4.91400140111018 5.231899773734059 -0.5647001290639695 0.42323237670306463 -1.7395369222581525
P 7.8314715594329 7.920988354649198 0.42517208002224416 -0.16098756756138727 -0.23268200788289603 0.6672701759184121
P 8.238953042832865 5.251262075092604 8.53250255242209 0.765807704574694 -0.6909310098704617 -0.7471381531896487
Ni 5.8893651281418 5.608537153438135 4.390608608649762 0.9467143796575116 0.6377873359679467 -0.5552402692026502
Ni 0.20749033397619904 4.030945249102505 1.093632001612792 -0.6319481035783504 0.5219524536837978 0.3436305086090211
Ni 6.877890651692002 4.717458660795272 1.0764700873699142 0.45460369192549444 -1.4681613544598007 -0.27297479396467184
Ni 1.1589473017050707 6.201923256104047 4.060755014275625 0.37942129305538524 -0.40649243824056447 -0.9658217899109238
Ni 1.8699145760688194 0.1864029070137837 11.172333409207509 -1.5204856177848136 0.3231372737516757 0.5226731338999063
Ni 6.294875565737022 6.6500322303671755 1.7867180221198762 0.2020390861860585 2.2966520398860126 1.7495153736271032
Ni 7.246365691245787 6.933586511417587 7.9103106284742575 -0.4980293672092972 1.7001357947527107 0.034493662901495435
Ni 1.4552120650477445 6.965445611597974 7.405628034367826 -0.8083602332249241 -0.7729779970708881 0.6536790674975387
Ni 5.9540412199217005 4.765767704000281 12.066966231644997 0.36287881531567184 -0.43137608885612155 -0.6438070597994654
Ni 7.850408335949488 1.2891376402566064 10.196736656667195 -0.4124031472980446 0.9337747887777079 0.10119244978062572
Ni 7.598556576674412 3.0706683119221334 12.958079724166636 -1.5291273526202118 -0.8456751676252984 -0.3589918215564398
Ni 2.301297292474884 9.179712942348525 7.452715766013448 0.26320357351052087 -0.15517867418909403 -0.9063480600253229
Ni 1.3174691210761693 2.3241853710953695 10.437376481091276 -0.8576516232608842 1.2734434845255038 0.8418177415524212
Ni 1.424218751342338 6.909408963579047 11.430363568135952 -0.052116261079265085 0.014765074124316508 -0.5735575794545993
Ni 8.525924417311124 6.095505203636808 5.416474397606529 -0.0002771649207866194 1.749397102881684 0.38504455277943367
Ni 6.0144436422931875 8.999260935776066 11.40146103666268 -0.5213330749322441 -0.4545065042259979 1.2796596406385443
Ni 8.238326729212666 8.265350319825343 11.758748088650947 -1.5114299353404486 0.008407507337404875 -2.304416257212463
Ni 6.298449237569919 0.047880755214726414 2.48053167168572 -0.21604337088495051 -0.7592174529516861 -0.25723270063906667
Ni 7.627707791496881 7.734531105718369 3.937219257938697 0.4033348664481892 0.3438516234808917 -0.7702798814134346
Ni 0.7289461594612086 1.3973056866626365 6.128958640400374 0.08276226809989617 -0.13307361475993856 1.3515307157472336
Ni 6.938762809278638 4.893692260925805 6.483670438150299 -0.6966874527382647 -0.9202389590748022 1.6199880814575263
Ni 3.2417164036972004 3.0414249921555165 4.273557961430212 0.555965577404449 -0.9223881442073212 0.41563425264083254
Ni 3.183331079602528 8.656741069482857 3.578598526359182 -1.1585126021128627 1.3499703132386494 -0.3478777139211493
Ni 2.3851496336261526 5.002062938208957 2.027357846543959 -0.6235171992021777 -0.31438832391445215 0.3399728572517758
P 6.206150873040387 2.908047822536501 10.488494725092766 -0.2782938921847401 0.7514838317528542 -0.23459670840710564
P 0.17781412097209237 3.860477418475563 12.40338506643792 2.529538964690863 1.462863853506287 -0.9562053498670823
P 9.090592198392057 1.0876488644410143 11.996894632236977 0.767081429080795 0.28084596918263244 0.9138068302962132
P 5.126625664673122 6.167816795286479 7.2982290642454215 -0.1684100852777035 -0.5564294044147449 0.28352145913226656
P 4.188730228920429 6.122998529464634 11.850051719783695 -0.7087482405575407 -0.10270297288788117 -0.0977001203566511
P 5.698873682657339 2.853208538791482 1.0013981105441625 0.08949007374203298 0.4151133471403561 -1.6003983322510567
P 4.583068336790641 0.9566019499089132 7.382226010159001 -0.27326147196715517 -1.4829138301786267 -0.9016084884578085
P 0.8280814739947595 1.765845199677323 8.546212373358344 -0.7407052530801114 -1.157043473766504 -2.25039120914626
Ni 7.991872319664594 3.9632665361434185 4.400557784716502 -1.2444005603259343 -0.6412092171653021 -0.47072296608486025
Ni 1.121267169054605 8.280455530665423 5.399232352062243 -0.06800027929937322 -0.03452168792595345 -0.7349266987251214
Ni 0.7336471958104624 8.373030210027395 13.077140101267467 1.3604683845564955 1.326078080002084 2.6448429141722065
Ni 7.160146253029945 2.2210923071118294 2.4896712452934096 -0.38526309654814295 2.5838496623182854 0.11740659764664296
Ni 0.5804168054805988 4.195969677530369 6.194703149532377 0.04878951069887726 -0.3011044623213524 0.41427722439230585
Ni 5.736295921464194 6.770192340501122 10.379019709529292 1.1651383349594966 0.3233925842955915 0.04857765179838731
Ni 4.331732365202788 1.9603247892433415 2.4427050921740614 0.019265275987515207 -0.6800197622745966 -0.6052631380879964
Ni 4.488154191847339 8.306502808870144 1.4512423419550164 -0.48690831759547115 -0.13677523198124186 0.6365591199878005
Ni 1.9400893330142843 4.598330126035769 11.082094511229098 0.5531569043110602 -0.5890415340228115 -0.6740517176166197
Ni 2.646681622531059 2.5765621285520814 6.936978736510515 0.5066551612050951 -1.374057693205156 0.06923338037552593
Ni 0.064741486290244 8.914708597049282 9.074324623156844 1.029191769527137 -0.8842075193725418 -0.16816094538137488
Ni 0.809985615618233 8.376585460871462 2.763014772235705 0.06489721489401726 -0.2791804085547515 -0.49281234178473193
Ni 3.609776971002323 8.145917838750158 10.666531740029692 1.9485802076761858 -1.0350286879238884 -1.0359594272682737
Ni 2.02838113247343 2.2986907225555284 12.815429428770917 -0.8698494508786568 -0.32001158363850046 -0.599070121903407
Ni 5.081761346379205 0.7154794955775015 4.5336770604919066 -0.5736892199364572 0.4764177024767924 0.782093329108595
Ni 4.597270919178081 4.1796302604387225 5.924432243526821 0.5406520869758302 0.7050468804465535 -0.28124911815832204
Ni 7.057633450194531 0.7730165331365808 13.45537550175249 1.5871715491481375 -0.7517391422967699 0.63932922653377
Ni 8.576342663737094 6.328079398101952 10.31094310321149 -0.2421056151896411 1.0521116115481042 -0.5741170515024951
Ni 3.22198752466095 7.910958126231609 12.97759952497967 -0.5130312399347681 0.39977234590791155 0.15338018752777455
Ni 4.225139313341669 6.028931750007483 0.6525948449612574 0.34771444887040764 -0.6497401374544488 -0.2502704103886206
Ni 4.876680477741886 0.9988504877890614 0.09604519365742505 -2.0903513502101223 0.3393326525646156 -0.22697930107116393
Ni 4.757266417655529 4.623935300508586 2.572306880132498 0.4251100533417517 -1.5689370284179818 -1.0547981572413319
Ni 2.411823225451072 0.6422873806617864 1.155731918104905 0.1088013724761352 0.043366797021409186 0.38056440552089293
Ni 0.008679969936396687 1.6174180821847162 0.7577814543252548 0.5020109775648645 -0.6686940528491322 0.5799226024406786
P 5.5403702842750695 3.145871998818015 4.006347702718654 0.29367628817808134 -0.044848266662942116 0.6596278288818059
P 5.149467690821535 7.8140637249891505 3.9521559167309874 1.329629544798768 0.015004186718316095 -0.8932588309415327
P 1.8919276577199102 7.451686032737886 9.46853378410525 -0.11415826591267436 0.29894859232061416 -1.1733743497160438
P 8.139792859964393 5.678748752361258 3.046415238029392 0.2430402111887685 0.38806457055268007 -0.385869105563258
P 7.128323994827218 8.541996730064744 9.451346080478011 -1.1015300140802318 -0.13628697949091367 0.8477289648305336
P 2.650771082051178 0.7949798781178324 5.16546724066928 0.7465755958179594 0.2555884801674243 0.8339049144632478
P 3.855724803357587 1.032155635592553 11.628715249553903 -0.16734590567924726 -0.567044718036746 0.004267517027102328
P 1.8704856267225296 2.831628350377881 1.7551195789314251 0.8310476475201107 -1.1179585919499004 0.24741005812169
