# total energy = -340872.56157677143 ev
CRYSTAL
PRIMVEC
9.22069667929799 0.00000000000000 0.00000000000000

0.00000000000000 9.22069667929799 0.00000000000000

0.00000000000000 0.00000000000000 13.49542163245527

PRIMCOORD
 96 1
Ni 0.3642654562936433 8.472455348823111 12.749988054927027 -0.6151765405469662 -0.780093782180063 0.7994418476893715
Ni 3.390072025846335 7.834327832236488 0.6655480236066118 -0.3556874397735552 -0.9526644265933594 0.5727301984572974
Ni 8.694047125238592 4.506587714203429 9.290180824110127 0.6799889090366612 0.48685432442908416 -1.0418271989029606
Ni 0.45078693910060985 2.8264200742608696 4.100813448826498 0.07100821288776159 0.22073563415429728 -1.5057169441160714
Ni 4.430452423846296 8.958035663802807 12.377487594658822 -0.1412936886768857 2.379841111110682 -1.147179693598547
Ni 7.930896185864955 0.524141267416843 0.5484064521211945 0.2879545552029557 0.2676477253248036 -0.3852065322785947
Ni 1.3733213044085069 5.423134159254826 13.199790223649758 0.4260801305645049 -0.8517298584598105 0.16767243578073057
Ni 5.730376984735029 4.693620320428946 12.600188620853878 -0.3366499635261299 -1.4033464148669446 0.9398526195406718
Ni 0.25553131580588073 6.842512842291634 4.665475066670181 -1.2867476578335773 1.246363597589576 2.3663001392014538
Ni 6.96874417630994 6.389739765181707 6.157879821230596 2.2545728513277754 0.7163419937443986 -0.026051959892045454
Ni 6.575444591122444 8.33012467885185 8.547959021475332 -1.0776796898251955 -1.0700831084248603 -0.43711324845021493
Ni 1.0068631665056924 0.4654423139938674 7.459702001442993 -0.2995155205676777 -1.4440816878027776 0.14197040302893613
Ni 0.4168298803870076 0.2015985403634795 4.663073075252228 -0.3439254141416206 -0.730899065622967 -0.2036470541031267
Ni 3.051275977209767 7.06005673297782 11.453766525721402 0.32034454149788705 0.13214801762187567 1.8855221028734364
Ni 7.002602573571826 0.5072019260198356 6.523943313326545 -0.9577580390661827 -0.3123358122607976 1.1435084153945467
Ni 8.635689337583234 2.2772169539688067 7.17867361589077 0.6063959661408589 0.21140252967882947 -0.7657040891172942
Ni 2.6672063091407754 3.050160272942695 1.8056603961774569 1.2557003016094697 0.6464786930943576 0.5988356372950977
Ni 4.03236729721574 4.764398386164849 10.847632981580121 -0.03942735275768693 0.12309310650845896 0.08362538743113986
Ni 5.0691147408254 5.311047373547994 1.4673843948190946 0.32289559005451485 0.026624801676379952 -1.2561235051898174
Ni 6.478258450833697 1.8181738032918646 2.3018601872264637 0.0017676334233840527 0.37120199046938646 -0.34091979454607735
Ni 3.2184933068242283 3.1695037467337053 12.894753910823361 -0.44748173616873255 0.8639973629732539 -0.40010736064982705
Ni 4.330666047166522 7.060195043424152 2.7938083151552493 0.9416547057464169 1.4325762582663393 1.1779084901409713
Ni 0.45315850222036946 3.5722361043609916 1.59355302810173 -1.427175398965742 -0.32109144696624053 1.1147917641861447
Ni 8.432585057494029 4.594838999659178 4.991200778128447 -2.007610165156149 -0.10789968659747223 -0.44339419636292027
P 5.476669522681435 2.6603737730920125 10.515753377329755 -1.2133560323153039 0.4154342208148845 -0.782177404181969
P 4.6633948775573595 0.47950848638575383 6.334777960018602 1.4470325429009852 1.3913655883559843 1.228164043862414
P 6.643382682360345 -0.07986598412950754 12.233977597615176 0.24967648555836355 0.5536155891150337 1.3904662164701667
P 1.9782819759649006 4.42409014331506 3.657758063675804 2.0210868594863447 -1.1260146294851574 0.6883493651862145
P 7.734771972967265 8.274357906891098 5.186492362139223 0.3633621827099936 -0.6416223934433208 -1.36903067230421
P 1.8472282177178458 5.639507021495408 10.338895809606008 0.5652200061231814 -2.109581402084328 -1.1900523245923569
P 2.394679405689713 0.42518659755434074 9.223985444495998 0.5175227000472183 1.1869649439162848 0.21547104332124828
P 5.292596760007408 6.724976624999351 4.7946127642007275 -1.2480867509282698 0.05669385314761849 -0.257679301258182
Ni 1.7238184168046973 6.166857091267135 7.583320190095281 -0.33599741754379553 1.391244489397088 -0.20117416708260194
Ni 7.267706816403112 6.397853978033139 3.6072185045167298 -1.348090579717433 0.043183734476325626 -0.12414263081889589
Ni 1.6311688591556148 3.992616874940143 8.544774192931145 0.7133350885972747 0.9004620335581912 0.9758447213645647
Ni 4.891090755004258 1.8700955448446097 4.434906020218162 -0.5573228627632918 -0.18814741580563082 -0.48572946679602164
Ni 2.484276912823086 1.4813694250824665 3.765519420691037 0.32528440200166553 -0.990353713614017 -0.015247413077373742
Ni 9.208561985590782 9.031543055679647 10.46573939786674 -1.039086660043346 0.32186792012094895 -0.5126941683103236
Ni 0.6977983314124867 2.0028459112333277 9.471518728225364 1.8267752238515311 -1.807685297099616 -2.215968508692016
Ni 0.4599486230655908 5.530748907196948 2.967427574295562 -2.0040622999038904 0.20327372992410797 -1.0758678334274376
Ni 3.231669682011384 2.5695314719416578 10.077894776682548 0.02990784330302591 -1.6309360958285977 0.15531211444316478
Ni 1.6894713226324407 7.615834209818827 9.76658193580164 -1.4867864257601555 1.4511653341224364 -1.735450668003921
Ni 5.044255743271467 7.4615627379809695 6.980735692006858 1.2452590516714876 -0.6326641558087684 -0.9183124314760508
Ni 4.396898309566339 8.780813878570386 9.899026175069144 -1.2210253759351035 -1.3097837137174346 0.6299524133045602
Ni 5.291213655544096 2.006589513980693 12.553521754192078 1.0010078508937532 -0.49080122489197403 0.17819030459291893
Ni 5.479859883643477 4.756247290527728 5.91901122592906 -1.879918383533414 -0.06222172494438316 -0.560014807773158
Ni 6.898408704002296 2.7236738540296073 8.69659756986894 -0.13970860357795292 -0.10325910250166732 -0.21790279269119245
Ni 8.525963050160454 7.694993888602403 2.1666359079877013 0.3164938002932291 1.2140597432505478 -0.12470698796279814
Ni 3.1318372018494993 8.23991860575462 7.477461984821566 -1.661318307664881 2.064358011470154 1.2907079280329061
Ni 5.619037075438385 2.632103117861908 6.610785676369001 0.06103876037987552 -1.5864644957787837 -0.2218275816668954
Ni 3.515925311311335 1.049979142975349 0.7161309200388706 0.6452363360468242 0.7491983781527871 0.7144308927646147
Ni 1.2972044554442181 0.5886889085803453 1.8625843655391816 -0.2290498104469475 -0.42119503455806173 -0.8041220267738601
Ni 3.528151954767016 6.326670201654665 8.908273409352113 1.9355503710754212 -1.0091600476872427 0.6077056860912179
Ni 4.607840181614314 3.6973793962014914 8.483005669669259 -0.6596373419635028 0.5125422161134915 -0.028854976558479337
Ni 2.693393086979489 2.3335646298041515 7.38829785042003 0.5605246575300412 -1.3652861176601132 1.093961971924987
Ni 5.8216711000100645 8.99077835679762 1.2186634853905638 -1.1061325458492497 -0.754882315911442 -0.029857192570748575
P 7.876724594385222 4.921389963447221 12.21520518176946 0.44443395048134426 -0.124680762710553 0.5424156066341561
P 3.5904377590981817 5.487411634013161 13.139317208235175 0.39833947011612686 0.27279970183938823 0.056499220638309144
P 2.2720994674545514 9.173633987543933 12.80492773041872 1.7911145372251283 -0.6633147908150899 0.19109312869751607
P 1.624576061213826 7.790990559052701 6.040604549647059 -0.6156586223897075 0.622125975281606 -0.48302698026319396
P 6.269575649409132 3.542444034221244 4.203081114913455 -0.05082145352724151 0.43448095303369044 0.4281647810076755
P 1.2190959360527593 7.519994291207704 1.2676355261578847 -0.23759204359000372 -0.7436465950966226 -0.6544293154000019
P 5.2239671165378505 3.1847824407050958 0.9732011700775968 0.017852197690072482 -0.40433476846761335 -0.11903539149931756
P 3.3794221214788296 4.693813955053809 6.962084989353912 -0.12193276765177065 -0.3541740884528223 0.4431669108434626
Ni 7.473946133275826 1.7489448145548714 4.628942667445892 0.5624115901401089 0.5558195387448879 -0.6517365990591872
Ni 7.56120158351799 2.994504149339007 13.414044169852547 0.5774042068941991 0.5769848599685934 0.49353019378736296
Ni 5.191722341149828 6.986696872243734 12.49948570694975 0.06749248642501925 -2.012996883389359 0.05250681164946441
Ni 1.194264600588092 4.536121604843359 6.159958166204134 -0.3734205953872601 -1.666712996317891 -0.8297232722817323
Ni 7.144610519168315 4.122287528723885 2.323372071979182 0.0386958739083011 0.19238176560195253 0.25883064125380584
Ni 7.934187974487639 6.854739485747315 9.696176386201186 -1.0288233304441248 -0.20261527040450267 2.08240792699333
Ni 0.15776519371218495 6.327804347314581 11.460932850980646 -0.0615331835177908 0.0275128607082881 -0.7331459526756148
Ni 4.1484097616876445 4.81099056518563 3.5259491303917807 0.4697166363075329 -1.2468513358592719 1.1076628664508472
Ni 8.272227926017596 2.5463690825293877 10.634203365637466 -1.3146685526135615 0.08110724899497646 2.5985296329279635
Ni 7.429760556021208 7.191248801671207 12.53066088155281 1.119063652088621 -0.342924483680932 0.666871912038729
Ni 8.3773715273186 5.550425873361671 0.8977924705985237 -0.31734020745392444 0.7010441870450637 -0.9469648051054208
Ni 1.911026216262233 7.896005070603795 3.3195493734013235 0.5784884410973133 -0.1727483076417412 -0.17224360009118078
Ni 2.486692735285671 5.737430817497921 1.7993036480640734 0.9716098573476106 -0.37625189418846816 -0.3286656597690727
Ni 1.2938850047322685 3.6581914364076424 11.006136753075715 -0.40484127579038665 1.9995176179560017 0.86486896694493
Ni 6.02264539922577 9.21852033772663 3.8498924812316586 0.080698443592332 -2.45628077942666 -0.10102918472988408
Ni 8.708412970264197 6.791964984505779 7.706587070213888 0.41791944913058354 -0.17189418717156202 -1.4689216296645928
Ni 4.952583579443125 1.177436829617792 8.49848537482265 -0.5646119402255373 0.7184047898106982 -1.4775723633610554
Ni 6.153616171205026 5.411488419673736 8.354353902840156 0.8317390171601805 1.0621160310589837 -0.3778017551740913
Ni 3.5587277841026412 8.541057330203403 5.033967290203708 0.2045831927641509 -0.24382774008707037 -1.461248429390051
Ni 6.551489221817874 0.7075934772216645 10.300595802877606 0.3928779327809234 0.8869022925958855 0.12165663117224855
Ni 6.743510224807737 4.38131533261302 10.450125070545587 -1.2197753055780864 1.0382741914443796 0.5828482607279059
Ni 1.402578574155774 1.4948039797694406 11.80416128838731 -0.7763181171877146 0.27141953366241 -0.34207781940992055
Ni 2.982259064490482 6.1722788607633206 5.2595433295431695 0.014887715745109845 -0.6658928359549112 0.05984216896861308
Ni 3.0999796957112054 3.104184333279675 5.303039198705416 -0.07136765310970934 1.8873534996552206 -0.6540169104529316
P 8.149647987782435 4.399489325260944 7.143599008770812 -0.4264200304024269 1.4578023798229796 0.5678312184937834
P 0.9511609394198935 3.1425147683062704 13.18385224988419 0.41385402081195827 -0.2441164749720828 -1.6386213802879972
P 1.1260867712432159 1.8626544428319893 5.810750107167751 1.5869360360985636 0.763488312412898 0.8667903523373587
P 8.140178332556957 0.4655584947687856 8.5777842861222 0.9549925605059035 1.4243045051758503 0.2075733857407264
P 5.366814145508748 6.850442641214625 10.005221857831907 0.8363793441456693 -0.8019255333431737 0.5181521061011012
P 8.71064437879834 1.5766468812118424 2.3826574616946017 -0.9659336328984396 0.6292330186400323 0.4798526963002704
P 3.771384705685124 0.018575092942284672 2.741931755014972 0.5393958459712259 0.2793567862316157 -0.3244336239655961
P 6.628758657834923 6.95390807576681 1.2261525350245788 -0.2867962732287964 -0.3636941121281156 0.23668830082881173
