# total energy = -340865.242621467 ev
CRYSTAL
PRIMVEC
9.26381042388380 0.00000000000000 0.00000000000000
0.00000000000000 9.26381042388380 0.00000000000000
0.00000000000000 0.00000000000000 13.55852295566215
PRIMCOORD
 96 1
Ni 8.135950928491145 4.291738177527128 0.3116697912646503 -0.06272977492905325 0.3557892554587421 -2.125885281450674
Ni 8.982255610208828 7.375114163424008 5.308921256920147 1.4848133611941847 -0.03967932086749295 -2.1747462688174353
Ni 4.5412403885773305 6.317409323678417 5.777639503006503 0.8950676020154972 1.7936871830483108 -1.3734745670081765
Ni 2.909281193179156 2.127434105657712 5.347088156616684 0.8807861523958186 -0.7861294468511816 0.23480445354253757
Ni 6.326135833269228 4.843842762020871 1.5075175011473123 -1.0899693058258262 -0.7093583633377138 0.8598555728907384
Ni 0.9369510684969591 -0.0006234544537808143 13.116691504503647 0.06335481010756185 1.2912319188571761 -1.4758083294820972
Ni 6.220028146588611 8.924329002489788 2.071077713836381 -0.9048812456718094 -0.19554756492444386 -1.3970654669542393
Ni 7.777339556123995 0.1799189504456886 6.184788611043556 0.23289129568022474 0.18468465406801096 -0.5311449188163433
Ni 6.931877881171455 6.568829143524052 13.391807225498257 0.0024739154617892875 0.14166238487021407 -0.292502065364322
Ni 3.89276438234983 4.639640584833792 1.545509314823397 -1.4308646748918712 -0.2212691380602641 -0.09842928521319178
Ni 5.750880986071199 0.99774019369324 6.8130630254826485 0.510933476865475 -0.0758655409800629 -0.6162561467643903
Ni 4.989377226640435 4.096707172839944 5.718741121554897 0.4007218543053744 -0.922723930280185 -0.14879925302531147
Ni 7.806548350964574 1.7702586239344866 8.074168722797905 -0.96109944473459 0.19555527823392774 0.2800263014948145
Ni 7.941827777243343 9.067241808707864 12.465692962648145 -1.4154347134900462 -0.8282482303981027 -1.0383562096352246
Ni 0.6901483318573314 2.1884548261191417 9.081092131944828 -0.9358154733568207 0.3951430746660162 0.29168291189713635
Ni 0.2683716668734742 7.559334301134042 11.061463244232995 -0.3378727801896375 1.0778396124418277 -0.34550175748980494
Ni 3.5429443662477333 4.9923694374661585 7.333113898898726 -1.1267023995808014 -0.8299161050188287 1.789692202956305
Ni 2.7799028142563795 6.0347704620907106 11.58163639994907 0.23792294456686122 -1.0675274318825423 0.4359045728540944
Ni 8.499787090040051 5.870226658107727 1.6818531529407912 0.16033733557189805 0.8586456117430373 0.9055096232844276
Ni 1.8498347570396454 6.494561173896106 6.741325002531188 -0.4810855402661069 1.2721291365894543 -0.7312217390697084
Ni 7.054651163132184 2.3643560619050272 13.038309476585594 -0.8567064857387956 -0.2934428320110366 0.8335668143975387
Ni 7.740988363306226 7.2782517597281355 7.06154992289044 -0.9687196802840091 -2.4725453209146386 0.9942435355867265
Ni 4.714436591666277 4.945670568201535 9.641831514304384 -0.7681422662451416 -0.37484010144260604 1.4359024944260947
Ni 4.723978316590412 7.976502220341436 12.686127188778979 2.8473910787841996 0.1736988444804686 -1.475076593522395
P 0.6224613732838559 5.56335366797484 3.787030953617695 -0.08814924344342237 -0.2895375834193594 -1.35930521748633
P 6.065387356143393 0.5569634531565678 0.12343842356223766 0.18964765450024113 -0.6874870171859192 -0.35284508522875363
P 6.427871001343831 2.4252748804497917 3.7141812733935207 0.5519011775270882 0.9717235001073394 1.8052633179216846
P 2.4984311928050236 4.314999605958683 5.509003817530759 0.884497796919451 0.6396483004360854 0.16038490098038186
P 0.7110586051570944 0.9776933075419519 10.925973529453469 0.565197380415362 0.035275535372842476 1.9263540492881341
P 3.1668243918353287 1.2590444994554306 11.08170652316913 -0.5252187831398955 -0.5944657903621762 -0.5136357062879863
P 6.729537729916172 5.260723503099482 6.248757076039801 0.22122105843114803 0.48149717388222874 0.16595519597930775
P 6.1302988770593245 8.704470985378642 4.914883220033703 -0.07056186937896235 0.4489156404017817 0.3804209379644932
Ni 6.84347333655882 7.152477003131076 3.4735176640424594 0.3861233876659092 -0.9530763173197974 0.21987122927147293
Ni 2.589142426258541 2.0853300864536437 2.3362014887114073 1.2018670578390978 -0.496969301375899 -0.5484633554901328
Ni 5.713047583556477 2.079262290506743 1.8617887782455707 -0.9046591023586741 0.505787156777845 -2.465742953280824
Ni 3.8841675661075032 8.766269865930973 5.696152245773336 0.16609017889527525 0.33293651923028467 1.3215238849724982
Ni 1.4990327770133172 9.05266057081409 5.42913124248621 -0.09017347296230276 -0.8245476416180639 -0.4867157419686907
Ni 8.012927523644054 2.9911547513145917 2.2005617002000655 -1.2612842234551502 0.5001847229894031 0.34019731455775604
Ni 1.2188302976149772 4.504453796661081 13.11275994328248 0.022626479150264257 0.41533497623285887 -1.6525426183547798
Ni 8.976345299042228 9.181307108698997 9.533404169448037 0.05332827910949525 -0.33313526550465206 -2.329920572131155
Ni 2.441708880464757 8.35461391403412 11.531971258528422 0.4906477300332453 1.3809420790298153 -0.4425387903411605
Ni 2.8130116733620647 9.246941206842193 9.37108182724836 0.3354759978226868 1.4625113552628748 -1.1630022624531002
Ni 0.7229394422592326 6.932869108906291 13.270987681194322 1.1963165603345138 0.09099648308423038 1.8252179066667404
Ni 5.275036090485683 0.736878698078014 9.371067931532451 -0.21827894508368856 -0.0702970457533499 -0.9970406387158893
Ni 1.067895031412142 4.382921865321549 1.720658329188079 0.06799333732083773 -1.0234558954846245 2.30840918042194
Ni 4.768463135120211 2.5264264284562215 10.697376959797728 0.7755431866949031 0.7803496069446109 1.8710740457689066
Ni 4.178515884301138 7.286746674053797 9.927319924034483 0.9710763534416438 0.7180826305845891 -0.4945861458557031
Ni 2.850187345323765 3.445025888142782 11.835194307282562 0.1519578532589512 -0.710228424647493 -0.2570522091971444
Ni 8.63999486356119 5.783471071782952 11.913833869135457 -1.5750662812441714 -2.1923395564191663 -1.158047489550986
Ni 3.8793133293499826 8.968545170512012 1.345168293896879 -0.4672774307384211 0.02902518358775646 0.9600869443096756
Ni 7.864206308176042 9.339866491030534 3.4675517700122245 1.449619072681239 1.4822715686089376 1.9115905178257144
Ni 7.750391131071271 4.454160568881347 8.60987914166229 -0.12900510111751975 -0.3220247574137873 -1.0261087597264393
Ni 7.827317814343126 1.8026726972447251 10.910706769574855 -0.25933689146626304 -0.011460435231115748 -1.6632988284300192
Ni 1.014044500359722 4.250810662270015 10.46214935451024 -1.7413446648908524 -0.07514948874964476 0.7250094396114094
Ni 6.385980049783701 4.433316995017948 11.660086053684546 0.8222272210150033 -1.002670583308157 1.37554507638396
Ni 6.312934903155741 6.478062327206899 10.79991993215717 0.6157406405805526 1.5498033929123245 -0.3501413131443453
P 4.941029399087952 5.200749593236525 13.107701902691627 0.06732793582269696 4.204627329556642 0.19027808899538845
P 9.049038420867161 3.17662550345643 6.922981843846555 0.17826795190838976 -1.480720936292366 0.47009587402382264
P 2.5850015029176787 5.047368681033717 9.386891446428486 0.7155516366326192 0.6071415860576318 -0.17863381988824073
P 6.3740297341020185 3.452353562332093 9.801280222454093 0.897994288743989 -1.1771682695408372 -1.2109348244683211
P 3.9107176473041725 1.5408125628461773 7.413772971463722 -0.012512787755030062 1.0736307165668024 0.9779465981989157
P 0.17205119609805047 8.484964993070523 7.26850715735173 1.9145025492661867 0.66977340195624 0.27044662822617943
P 3.8394140970701316 7.248014681910297 7.643576615641421 -0.12291595750064638 0.5488662473555064 0.4178004070542159
P 0.3464433571362259 1.859533966744081 2.8136786677256937 0.08266636595198021 -2.5744782484057143 -0.09437516974847618
Ni 4.232551691565677 3.6325439424285366 3.752795615142325 -0.8621160867901411 -0.923817677564996 -1.3357369432480866
Ni 6.10912180601411 6.249663076717064 8.301856512633202 -1.2944524826770027 -0.24478599023528164 -0.7093300812029397
Ni 9.012353730867577 5.018030192844655 5.667381629174418 -0.3179685850665427 -0.3355981252228479 0.7363508327661576
Ni 4.709813950173905 1.0057348622461797 3.7591413254074046 -0.21241503010374385 0.5922032195802447 0.42919733603724786
Ni 4.593404906099467 7.947682505546308 3.561688760627824 -0.7836753288837341 -2.064931367475121 -0.35989607853826405
Ni 4.984032007920798 6.875590967929669 1.3201448886880718 -0.34948722450011427 -0.5569747353952537 -0.008915814432391096
Ni 7.549894478126573 4.924456441913898 3.7387627948364237 -0.28018236745670455 -0.7089570141342372 0.6176265447493557
Ni 2.8778490837931487 2.881202583232504 9.188624592696641 1.1021046556367795 -0.530338620864964 -0.5314153988689105
Ni 6.94453224645919 8.442610850980094 8.855112588785268 -0.009760164710557384 0.10333109339018334 -2.149240411236847
Ni 1.4160105063627428 3.2059917830773093 3.9347238861084457 -0.5861266743688615 2.5375181262415976 1.0014133138622883
Ni 1.9504397402203237 1.1097211362980317 7.327148004868491 -1.9870084297453972 -0.24338808144649055 0.115439189507627
Ni 8.219816205906861 0.6569496137887681 1.0846977310892243 -0.1146208073713897 1.765532832101282 1.136538668944933
Ni 0.7043340050382313 4.78871382510483 7.965551469824136 1.7620849827619975 0.2563068463906876 0.8099023809010631
Ni 0.08208384663619112 1.6465311694813431 5.353746057299184 0.4724556325052508 0.9361453458924136 -0.33590562916093764
Ni 7.2453096492133575 3.083450096381728 5.633389928917985 -0.29092880733993126 -0.3335044759186127 0.3627340622076914
Ni 5.284216526796185 3.4962362331725054 7.84928694119515 0.9163133987681509 -1.85579295124012 0.8151096361336155
Ni 4.0809864862416365 1.0736293301772286 13.111932684995367 -1.491584361369431 0.4350077720714379 -1.3394323898218028
Ni 2.4175210709726067 6.842055973536108 4.182276065026095 0.018974227109657644 -0.15331950949316822 1.3762163914193717
Ni 4.6762141091061045 3.2930623389626863 -0.22319947359671333 0.3369926915775293 -2.586121489071598 0.33785683935003746
Ni 1.4935763925664096 9.13601633864648 1.7118039790109065 -0.8092344082997612 0.6661574024702075 0.9046675869991064
Ni 1.866000106547038 7.161953881380969 9.470994803776774 -0.9130393560025695 -1.278254789871218 -1.8603042088469122
Ni 0.18587465428425745 2.4529644103509933 0.3357695945560439 1.536176546157509 -0.8875682083146585 -0.6104811919538261
Ni 2.1031166028170785 6.466297287737336 1.9279814841683054 0.706367656140506 0.6215906716034263 -1.6244679716057504
Ni 0.15416370419901074 7.534201582960083 2.9309733320940614 0.5327832257507147 1.0164632662168753 1.3316113511154872
P 2.366301462132278 2.3851533167153978 0.2267771572527334 0.19481402919252902 0.724984242800429 -0.2434680427548065
P 8.446612817161867 7.936667834735827 1.054772843688806 -0.015088518902006272 -1.5407641655281916 -1.0687582189658498
P 2.6330528885307705 8.948683560572844 3.5133390803132203 0.4014695311046763 0.28961291674198514 0.44409276509184165
P 2.9085030330882558 7.535878332679761 -0.15089728457935075 -2.2302700129163524 -0.8325005779165533 2.702672423586165
P 8.595936180319265 3.56826236063381 11.902525535528769 0.7949154205739277 0.2150550388297522 -0.035550643411100064
P 6.354686897556783 8.671751206318406 10.734879644273818 -0.6171069248004598 0.3115536826791344 2.7990926487891277
P 8.84078795844528 6.157895768854467 9.405791472826754 -0.031106491596817398 0.6997254682336401 0.874944606013377
P 4.971794514110331 5.608060817959182 3.197072586225895 0.5344261606707764 0.872345220717317 0.30197632340334446
