# total energy = -340897.30107634974 ev
CRYSTAL
PRIMVEC
9.01622579183673 0.00000000000000 0.00000000000000
0.00000000000000 9.01622579183673 0.00000000000000
0.00000000000000 0.00000000000000 13.19615782042924
PRIMCOORD
 96 1
Ni 6.244177970308264 2.0045052909106413 11.330009890779767 0.3528237450725149 0.22087935882101317 1.1964240324466555
Ni 4.598843039365221 0.32654244304193414 5.829917570767464 0.3494157478322305 -0.24796310241168265 0.19300217279477083
Ni 2.738101464432171 1.5370049812741338 4.731455487614929 -0.6052893633402414 0.5376199850177257 0.27725413806631605
Ni 3.398900633074234 4.3658006582505875 4.884702469598494 0.25573271905477246 0.18490576893988153 -0.2184686924969915
Ni 5.0003535943927595 4.723194821789989 2.3522412736689082 -0.06729399726096798 -0.030663233411811704 0.4451152928190851
Ni 7.34358946200846 6.033847461288177 2.774664062176437 -0.2817101169551406 0.4520824681655375 -0.9816803542097351
Ni 5.139951814178338 4.560010156034051 11.670589695339764 -0.31859516290694806 -1.407602876150453 -0.9360255324850977
Ni 5.637070424660654 7.86252733825846 12.431241758413224 -0.5807173304278321 0.4810649714408166 -0.6696885555519175
Ni 1.8620308951829583 6.486317722976448 0.41508358093112496 -0.7178633154849314 -0.9128334106393504 -0.5252509219294116
Ni 2.583689586110926 1.5815631678129396 0.275912730235376 0.3060489508108213 -0.32018024800588085 0.9221328336634055
Ni 0.589827047808623 -0.1423175134035683 4.623669216345108 0.9535851386354158 0.2918873145984586 0.5159335011832277
Ni 8.560193853067496 2.4789300617494563 1.463639052564114 0.3590098192785688 -0.47202625827731615 -0.02620236942698068
Ni 7.1589281470547395 0.5013165650862134 4.929516716942176 -0.8833495422476205 0.33509855987861 -0.5576599343877363
Ni 0.9138756028706637 7.341894411609977 2.4705314476740017 -1.0956488727091065 -0.20446646468062848 1.0037075092131036
Ni 7.664440863499747 3.7491268973221854 3.8675297741463264 -0.25451015950158107 -0.11012549060419743 -0.8643534607610921
Ni 7.375065105312176 3.8247549970161354 12.606553247498725 0.9475376468897553 -0.3165526785556226 0.08317493015728257
Ni 8.038316687296724 8.579623819071367 7.091892510285006 -0.23702434401199177 1.1616789156559866 -0.07953501941185012
Ni 6.891011005613903 0.6097619224418283 0.4124237944015928 -0.895527058150419 1.2295151585736694 -1.6441343396864263
Ni 1.9162815241598896 6.452209341819771 9.21727833679374 0.11068239154893195 0.26615185750556747 -0.13881591656035447
Ni 0.07103072629934566 4.859096389110794 1.4185741541508685 0.26533039004553655 0.06044252155677332 0.14097692876741527
Ni 6.380854933024119 1.8621300736637205 6.821357958574599 -0.06207517206418987 0.621534107333878 0.901521585170957
Ni 3.2766856960986144 4.239248916798002 0.34461005736915246 0.15797372043572794 -0.4177708393678612 0.0767487149159646
Ni 6.008962678842385 5.553228543514487 4.705168682100181 -0.6353568721495833 0.7449707132246848 0.24655439498961407
Ni 5.208475128159505 2.756467515824228 9.205137989125891 -0.11552377880163331 0.5212546562858248 -0.2676824352174809
P 0.08722386734015812 5.537441132622247 12.459693359676246 0.32465088218272475 0.1516781172350033 0.37266623371973884
P 4.15133170171506 6.07339262643573 12.677746265857499 -0.7758110956443091 1.0000308316924647 -0.15100911619243668
P 2.3236706582289712 8.501507241132837 1.274359626897085 0.35026421187545487 0.3669774108650776 -0.3091684702764095
P 6.3498751821242125 7.722847972443168 5.718198421924145 -0.053950228964210305 -1.1924992434709527 0.372640522688126
P 4.595858668716829 1.0107639623498235 12.595837463463644 0.5471387231414383 -0.3112484927338898 -0.3721777241190945
P 4.030135598223635 6.3090226642757035 8.035496411952867 -0.5161936968231496 -0.4533808752619869 1.0319042833622938
P 4.6478552413128025 1.2296057882644116 3.749160257356624 0.36519975013936457 -1.972880474984447 -0.06395979068141243
P 0.2573591413524228 5.475030819546242 3.70194408753339 0.5573637433035562 -0.07987697613230113 -0.32744875664283607
Ni 1.3477814562053523 0.9748703685394257 2.5393099208374927 0.3028250445568849 1.293153047139289 -0.2463780173127499
Ni 2.0007725735437725 6.41490020060213 4.814366894287036 -0.9236605831618415 0.005522986700758231 -0.9007571962011068
Ni 5.805078771071845 5.733426826833907 9.263636161947103 0.7926983583179509 -0.6314781059204673 -0.8228599695029957
Ni 8.586241728605863 2.4023642746010268 10.130412805926344 0.28785891016535586 -0.12731640056118718 0.3877609232693322
Ni 2.2938900653237355 5.258632390748614 7.0444121650539255 0.40063469390820683 -0.6321087975259306 0.1667057009920871
Ni 0.503270381157229 -0.18743470592485206 9.110812040940608 0.0757639824051921 0.737943116953942 0.06443081678056
Ni 1.4775700226209956 1.0924780142723642 11.395185480223931 -0.7028100206962348 -0.007182633791368275 -0.5420679934867503
Ni 4.033147017548596 7.038786941949603 1.4855710211508493 0.7973769947405429 0.01903721913710915 0.3122604789381719
Ni 5.81387860718311 8.05127300337448 7.87843556657272 -1.2962180592178578 -0.26149970344553675 0.048554511869935736
Ni 5.224695317876889 2.9629030154180156 4.6837515399908565 0.8334081773324873 0.5661543450119926 0.7294551340875889
Ni 0.9502200079572534 7.339820679739495 6.92457841323915 0.07976204782099165 -0.16444518709268455 0.25337476034555717
Ni 5.043442136171181 4.641913548692592 7.035029880773819 0.45358296397046394 -0.3306181555097532 -0.26820076961479616
Ni 8.105785102891602 6.88083168699749 9.095332984961283 0.09698278257465233 0.9287868486448133 1.0193555001630057
Ni 4.470361825650533 0.45212223538305013 10.330150151578472 0.042345554845746425 -0.7924080807710417 0.5070901918599848
Ni 8.3084428039909 7.029563343238717 4.880532465293719 -0.511431499547816 -0.21993422129892445 0.4385042152604706
Ni 7.248152714838637 6.107446910239265 7.044821501692707 -0.522724555963132 -0.3538370168283777 -0.8011452035337235
Ni 2.4545141230309038 5.227896077937851 2.478700147998598 -0.8123259027408914 -0.4415319463432009 0.7175200732128997
Ni 2.41451814660716 5.261274144827098 11.448709401423642 -0.5847300511316511 -0.0017820316010872536 -0.07508006896429005
Ni 0.988403723050706 3.25639918866998 3.9431831192717435 1.0064069104221376 0.3102118239392593 -1.0904822409065025
Ni 3.6780700239688207 2.736199040846641 2.564356093720161 -0.6521842281195671 0.38320544268816586 -0.15534990965963566
Ni 1.0545016723659602 3.0996791566146333 8.050144171938895 0.14136413690350494 0.9806148890596983 0.5460511465042145
Ni 3.5352800603478034 2.835548829893808 7.234093714379317 0.46284484888836414 -0.769196675651585 -0.17185562062414272
Ni 4.125247761274598 6.839627536353552 5.860440199033313 0.8003589601870023 0.3708636332933613 0.4150917498738012
Ni 0.7998771522149172 7.318957133877334 11.305108879128031 -0.42501672229699705 -0.0004954515791797919 0.3174199116519243
P 0.31430291689332446 5.420717076990645 8.116705555246073 0.2742462044779277 0.15159609904415827 -0.8093056278573287
P 8.39781163138318 1.6039414395631046 8.015108922798365 0.23421824202176436 -0.9713987697780689 -0.3384875309555009
P 1.7900723992772096 3.419205172953917 10.271479768849757 -0.18230406965097634 -0.7320498913979586 0.17701582466884352
P 4.026375832180194 6.164528634030681 3.7272814845004794 -0.06888139635274589 0.3151064330273992 -0.5957564841491416
P 6.776550022588784 3.9365471772861995 10.154337360353848 0.4657339975107011 0.15260499992464685 1.0127552212376687
P 6.321014244222408 7.789468862838804 10.090824362896278 -0.5535618530589628 -0.5584073540767222 1.0311599489971015
P 2.5037246819400103 8.390165872138965 5.676340594929728 -0.5702429132590696 0.9427420252733247 0.7765741990625787
P 6.880011210474821 4.0007787679180185 1.5989257133041936 0.47162670884605223 -0.1878406831984894 0.3434466747329892
Ni 5.303046317679039 2.798383948284549 0.4615198472465462 -0.19451860943929725 0.26998922897378663 -0.051702827690930306
Ni 1.577082103727592 1.029571808792549 6.9654065872787445 -0.5402746490317534 -0.44548167501956826 -0.5319648436144774
Ni 6.742973598738011 0.8119697138874883 9.39222016063276 0.6235871332081647 -0.34645306565948075 -1.606478991227498
Ni 2.615877511231027 1.5535227064338044 9.165839868557693 -0.09578156317769956 0.09761398840074802 0.4689931278779471
Ni 6.414710859866129 1.9247207112502016 2.5700967245111888 0.18559945257279648 0.5053909497806909 0.6752313397470177
Ni 4.102553921631099 6.941601047028155 10.301276590960935 -0.08588358733769724 0.4636300637938209 0.5797464818741306
Ni 8.27021400776983 7.201187196084966 0.5299511957273695 -0.5844521148799161 -0.9465104911768216 -0.4934923985708921
Ni 7.756478493647082 3.843977589832958 8.116151057376358 -1.2335880430914625 -0.039634326562170454 -0.20557358170187826
Ni 3.0901670386869844 8.071027553497208 12.369140701872688 0.35945744833894866 1.0891180135691243 -0.305594379771906
Ni -0.04001851698755356 4.874541183433129 10.350934354656024 0.8874918465507682 -0.7550581793676738 -0.7096445271195648
Ni 8.63862599889936 2.3493939496484804 5.824031778745503 0.24788519798589567 -0.5040182378028804 0.3798830631831522
Ni 3.531547342980934 2.572825034354702 11.411403866696212 0.25762633653305955 0.8492937382144922 -0.18750129758119968
Ni 0.8861876759095106 3.2929329344925704 12.512002795297896 0.7362963253791384 1.021245775207183 -0.05111044552257004
Ni 3.1585190443831976 8.413256425705514 8.022709600914961 0.1684288543307809 -0.7840255131343014 -0.23821347922408653
Ni 5.58767954124107 7.90368640777478 3.5896974894969254 -0.44953141960890974 0.2130963724414846 0.0905074592629538
Ni 3.02519611756221 8.438114159474734 3.4351972521655476 0.6576028280319771 -0.4829943272530456 0.36351130669334814
Ni 3.582678357926618 4.405093369083472 9.418982121232618 -0.3546821384374924 0.6598679699170701 -0.5428398386557683
Ni 7.134944987161331 5.922127410822306 11.384799690043023 0.00462798569031461 1.5839389011434528 -0.26938887638562636
Ni 0.3967986755687821 9.110535242817024 0.24242105890452856 1.0068463119524016 0.6090442023969833 0.0556129613786139
Ni 4.615045196631557 0.5731461289669709 1.6779042424028021 -0.32687514352755315 -1.1365839203605714 -0.8322807485962634
Ni 6.2204021836019034 5.823390725110759 0.4480766549905042 -0.5440078908219405 -0.36817580204855305 0.4441246467710416
Ni 7.851491478217283 8.719654817682091 11.309832479679969 0.37197640674156585 0.3935855003709093 0.5647009003949178
Ni 8.985552324605587 4.751505769934839 5.976196813666207 0.691891316901202 0.33905343076129996 -0.5245945192923352
Ni 7.910268252407182 8.98936618800217 2.29089217033706 1.0732949304939388 -1.2036714580376884 1.6875101355689002
P 8.536553309743994 1.4981991466195363 3.652986884561504 -0.06841062736391443 1.6056384976040734 -0.06145296509915868
P 1.7549091197342428 3.226834985177316 1.65160481417232 -0.5359366837780319 -0.3008170129879207 -0.5163559334326269
P 4.63882999956344 1.0123057369143997 8.125256543532881 0.38364098756368764 0.3299488973568705 -0.907605843691824
P 8.433957679508246 1.7282661733113023 12.375475501925736 -0.9200414983520153 -0.6039734727422954 -0.5090486011379363
P 6.256566264178016 7.797953131056735 1.4652745958741382 0.25719490542259577 -0.63417493602634 0.11196331514388458
P 1.8825247757986414 3.309450659652241 5.975048146534471 -1.0038514909901357 -0.8801284642071616 -0.2227174404710164
P 6.841268489398891 3.9608278726218944 5.8714985996383 0.2846871973055936 -0.6069688079251934 1.4947545315672965
P 2.3581306721810793 8.48255513508173 10.238159405803861 0.4194351144441615 -0.1435007236305335 -0.24227350822607305
