# total energy = -340868.1649527985 ev
CRYSTAL
PRIMVEC
9.26535068938663 0.00000000000000 0.00000000000000

0.00000000000000 9.26535068938663 0.00000000000000

0.00000000000000 0.00000000000000 13.56077728991779

PRIMCOORD
 96 1
Ni 2.48077906878843 2.5410038471140375 9.587008273063864 -0.8233232822926594 0.26868979343607274 0.9280553697954275
Ni 6.473802321332868 2.7659943535879963 2.7696393424792722 -1.005336045955462 0.4525743202002916 0.2775315600974188
Ni 8.49391742803347 5.369113110532014 5.041707125642682 -1.5117479808014995 -0.29467439042529253 -0.7781950224954534
Ni 8.347330317588941 0.8306099507812179 6.699715656717785 -0.8978677904684537 -1.3909961208317076 0.7141141328551444
Ni 7.359032439915207 2.455382743036047 8.146311125958675 -0.23767071934673906 0.23113857465517615 -0.576570141028678
Ni 6.935837555296418 3.3930825415657577 11.398701173075406 -1.0350202032834563 -0.9420498843023066 0.7375319975584524
Ni 0.4106625715167557 7.072835027961409 1.8527958479512447 -0.10821541806567814 -2.034825549228676 -0.3603735323953149
Ni 3.9394880572882287 1.8214845224322356 3.2660184511842885 0.7333318434341758 -0.6913369870596286 -0.13555575775184395
Ni 3.7268297323452524 6.960149835038941 4.126449859122245 0.6299722107989021 0.35089593192218277 3.423977931983426
Ni 7.164886285294472 6.5521037985066695 1.8483614511963777 -1.2050305431687438 1.1668720298211517 -0.9847499942739942
Ni 2.022913242555114 0.15536973619450492 8.602061672670185 1.1295972046300935 0.2865985553956935 -0.35379665050874554
Ni 4.648500474489841 4.970341689861888 2.6362155155066187 -0.39820551564142387 -0.09178761152695805 -0.3663793722697626
Ni 2.1254436113168333 1.0852227093759148 -0.26492324064404105 -1.1366772514053263 -0.030273711282876894 1.2489642684372169
Ni 5.452788491002562 0.9337156978097093 7.733222885677976 0.8550090434317146 -0.06455680083546302 0.6688580892308222
Ni 1.4455058640207232 5.770284256984655 4.80454287513149 1.4555783755884675 0.4332334537798345 -0.15180718661369982
Ni 1.2223128355460213 5.622010852747009 12.943286989327317 0.6487039828804506 1.8102535720474242 0.07007773065369222
Ni 2.7248839933678854 3.795939981811515 3.8097101457419025 -0.15912917419640982 0.3894164565948842 0.10787269001427874
Ni 9.17510599764865 3.019021810710153 5.752277974800349 0.07811782734934934 0.8228661401505829 1.719391300548213
Ni 6.243928975139279 1.5017558069768406 0.6891929059221795 1.2210035215582327 1.9344095726027586 -0.6808083196141629
Ni 5.6220757102005905 5.996627504633311 7.949775437440991 -0.634244612922011 0.5745369126487332 0.3587177419594467
Ni 1.1826941967582831 8.009321065574095 13.226178524218565 -1.7648275785041414 0.4526380835586914 0.5724795158990721
Ni 0.340064306758325 3.5691519973382997 3.6087400604693496 -0.4645096381852968 0.020501462387461464 -0.6822329678758315
Ni 3.012146920630522 4.546998559634912 0.9071278479815303 -0.06606552417050558 -0.02326385562394703 0.4072108044638278
Ni 0.8436138702242933 0.09597142713453485 1.604253747011769 -0.19841974426591635 1.1192135474029241 1.0995772612292354
P 1.4497215985035155 1.6253370521009873 3.816545194814333 1.0908072283460892 0.7601517918404973 -0.2872577862462472
P 6.446469537323553 0.7141880419974089 11.876094652047039 0.5830644905037701 0.8651988394805229 1.8073587669981326
P 1.146142388989895 4.860019161319886 2.232009040226368 0.8146648352867131 1.0042057890057607 -1.3476691759092985
P 4.674480517324456 6.525910652610286 0.9737827795622105 2.4725931434334383 -1.9310987630619707 2.4675548096785827
P 6.74332210236573 2.070722451195135 6.0682032638707195 -0.40203234558668177 0.16815091807904586 -1.2471886645940329
P 0.9946075813721544 3.4345357197547997 11.19728264483809 1.8273886890658142 0.4294372199621959 -0.3093358490922092
P 8.102067224195531 7.865393110726405 5.70706677044379 -1.0570586711407342 0.07279718646738431 -0.5830179535365508
P 3.3356929604967096 7.996442228362928 0.40770877777364745 -1.5762711001855498 2.4956279137657145 0.6087459544302742
Ni 5.884211006875681 7.8182046805706635 6.126107998428214 -0.36634029150171105 0.8190331395577378 1.203200689048857
Ni 5.31929332083097 5.672794238901263 5.270979150588065 1.1047420932596264 -0.7018455999004364 0.22470618876627105
Ni 8.690593023343881 2.0926998626087263 1.3707780325392578 0.5166528958477554 1.1337299958515443 0.006452697603879209
Ni 7.8291470595249 6.165933254532362 7.099893557595578 0.7393968186813331 0.6797909340932421 0.14872880479869224
Ni 4.043037614606227 5.7974965914373175 12.70418350095404 0.5298801931713067 1.0757464773582248 1.5930953708317401
Ni 7.028101915691249 8.392841719302078 8.391449137120178 0.00887519100244278 -1.4618451824337857 -0.5230999370246797
Ni 9.258642397861525 1.9643284312700655 12.363726343334022 -0.9332621108073477 -0.6919388823096858 -0.2596932463644173
Ni 3.043788092627745 8.953154526142507 2.5885350952387096 -1.199325779474483 0.12864180424083008 -0.46535218869125017
Ni -0.1945056502205871 7.031863647998972 9.436605691278643 -0.31546021682239217 0.5187110639283647 -0.1077176524936532
Ni 7.996395901610369 4.4744786611803695 1.927216996330775 1.5847133174156323 -0.9102193700552712 -0.34363256549155013
Ni 4.923431220221495 3.305914123952325 4.840247829863115 0.18561205097828676 -0.20611274203479985 0.4283015636958559
Ni 5.714979379780724 7.697912634878146 13.036340757585737 0.05341492528603058 1.4608630210261744 0.2811100214772965
Ni 1.722697355277216 6.1507658757448205 7.516751868999463 0.22961005382579164 -0.32573408794457454 -1.044747457873549
Ni 2.6907226460314986 8.265276373457928 5.985523908580172 0.625069374180646 -1.5030735929559533 0.4920253271070623
Ni 7.8175375753338265 4.829739995847873 9.034067905625538 -0.00787451765207031 -0.5432846395026708 -0.17836154006346056
Ni 1.0003706293903896 0.5091291575440731 5.595488786907462 1.1507504416689407 0.6872319637523197 -1.0159174210157342
Ni 6.463035984038352 0.43883201667727034 4.57881021408155 0.6008105016332813 0.7956751815580877 0.704629847513793
Ni 8.120032738837587 0.1742034141794992 0.12403710036931918 -0.09838840467292732 -0.9466526731816406 -0.5444277519681785
Ni 0.6629552863433401 8.968479415888746 10.902688045715598 0.8056227796891029 0.914715715263728 -0.2964116848313734
Ni 4.241973955441477 2.8296751076544426 12.436371324020472 -0.3071334421242517 0.6102315378368652 0.4261894024488596
Ni 7.496530241507825 0.7951551605134071 9.813012408883795 -1.9229630213287139 0.17224745674592268 2.1303626004957374
Ni 6.225101782899644 7.376933097103681 3.8364119593813744 0.4987379632405475 -0.7351670968707016 -0.41453587737033126
Ni 2.098296134317752 2.315531542413474 1.8231105914470274 0.11742151004497842 -0.2802067929367368 0.29716398961636564
Ni 6.009302504133224 4.031205762002873 0.41227103636557505 0.23914807522321396 0.6818125925089612 -0.34266403093069375
P 8.296602523537755 7.2669163251285624 13.60023925507417 -0.014775358536961651 -0.017039986201422268 -0.16744232204779552
P 6.906383006019941 6.6023683250322724 9.863051787391965 0.2146331208009852 0.7725979880236501 -0.46156778194815345
P 1.3860408444370693 7.891178581200276 3.75011077857583 0.8533452825760465 -0.3235761610613072 0.4202504112566053
P 7.436703873254218 0.8701452014143514 2.563556636794401 -0.5333151869947848 -1.8489201353796867 -1.462869509933242
P 3.430514557632751 5.745295606654783 6.198115522999465 -0.43293057782743505 0.2158914186881185 -0.019123608203328358
P -0.015966978536695334 9.699617490112134 8.839524267467853 -0.014362696479575264 -0.20526170688841425 -0.9397798573212073
P 8.096924954661576 3.9742701831088953 13.271213686915402 0.17807537628160944 -1.3657663997306413 1.0676696138873611
P 4.110656142640117 8.493046485085376 8.093655212466022 0.07854643024633569 -0.28264985516059066 -0.7070402567274985
Ni 8.491601090405561 1.6032577218317685 4.265053943565952 -0.4089331864715732 -1.0984986834530759 -0.9788503409601079
Ni 8.548156789928564 8.358411676800852 3.4903131298348233 -0.9646452531043194 0.5735264691063479 0.6815909634164584
Ni 6.90927379537957 5.817102073119931 12.620974167614227 -0.23009907764706822 -0.00912484511940364 -0.4432964944427914
Ni 5.03331827728945 9.032475191872589 10.657116416150151 -0.8054695419406902 -0.779793991551457 -0.563359812985991
Ni 5.33439584216493 9.118642951630765 1.988823238417667 1.1663565236373141 -1.0395797976296806 0.5070475115475074
Ni 3.612625021938877 4.583587428805346 8.65450170349592 -1.4539105009677413 1.392832402709498 -0.11981032199212914
Ni 3.4039693284169257 1.2126120135603424 6.5888019988131425 -1.3603917656822893 -0.10883711081007708 -0.2108685115522304
Ni 1.0832213936654025 3.57216323625458 0.14052479160476822 -1.2961671513752646 -1.0191066173769934 -0.1234224648234197
Ni 8.654921423874098 2.74324791808194 9.90942949937794 1.9494312428225715 0.6924636444649042 0.6703429013064648
Ni 4.473867148046601 0.5339297212585583 13.415378834736192 -1.3936469281909936 -0.5424341185769174 -1.372999684254287
Ni 2.7216967127918843 7.265674768160004 9.42891637688904 0.11083665773860911 -0.47111377376537567 -0.21392298210783803
Ni 8.74974302101014 4.951523762972763 11.517452390977839 0.7265644428033552 0.9286706347819231 -2.0194778631280124
Ni 2.8363276293217945 5.01015490101037 11.125722636696551 -1.3557789495006263 -1.4937821403516982 -1.9120926542731134
Ni 0.8845222458032507 2.281833462602669 7.839756812395771 -0.251786847033147 -0.05242402212767101 -0.09584712630831235
Ni 1.0792094968938657 4.971045856500771 9.44208429303617 -0.06965658395587358 -1.2041514829979003 -0.07611750908986892
Ni 6.356262084742306 4.030547922116547 6.677163793572473 0.22565415450183715 0.7137732045759578 0.6403440409515294
Ni 4.8113946018348415 6.624957249579632 10.415965285313806 0.22097191853481946 -0.30499865516943603 -0.026816605972211884
Ni 7.691426889520003 8.16684128962235 11.504176996764773 -0.42595003274454385 -0.9562745125421208 -0.07798592975717536
Ni 5.646703011860508 3.735224139908791 9.220067037541396 0.9823382995087082 1.0035632703257555 0.05507302971474386
Ni 4.636613029783416 2.006856390118456 10.167843831287557 0.15028972152790893 -0.5022848000515414 0.6462028137251515
Ni 0.40053832301269554 8.06208723673784 7.160808604534303 0.054442852329912694 0.11113824813942795 0.7916010114887141
Ni 2.9487070656773784 7.8275534192369 11.879010457853047 2.2529240028704423 1.237885642025552 -1.6475353949481755
Ni 2.858351367487944 6.558543217112254 2.3166693274563026 -2.6460886136538493 -0.9129231421396794 -3.311556960476832
Ni 2.5184890453707722 3.718083241462272 6.3318386207936435 0.024373029527725763 0.19426664132949123 0.056972046509669624
P 4.6511318340351435 8.887064780943037 4.0842350691211475 -1.56285508388996 0.24562159876269957 0.5231518733085377
P 6.4850504568539895 4.844527495264438 3.4737689199612536 2.3318075047412226 0.8993806275685542 2.033223494848879
P 1.2613477572515266 6.840367383624563 11.076361481845833 -0.75537853882157 -1.1141343331078037 -0.11111767931413766
P 0.3029973455014902 4.4902390224006545 7.165961992488873 -0.2491157279588871 0.9162002702290545 1.119901574608884
P 4.271363647264374 2.851569130913429 7.613861081176826 0.19628110065635876 0.32553637011147163 0.03636671155449221
P 2.773323245842697 0.9982766601747608 11.393304106402379 1.5107786749096948 -0.06441256194811487 -2.411304728936602
P 4.417153937564902 2.964393304093571 1.2601191717736842 -0.6353735843201316 -2.129152125127404 0.6920484113043566
P 5.133226551856376 4.709355296650238 11.383553251523939 0.9350909364859702 -2.364002858526845 -1.240066965947587
