# total energy = -340892.8820470676 ev
CRYSTAL
PRIMVEC
9.06954233093076 0.00000000000000 0.00000000000000

0.00000000000000 9.06954233093076 0.00000000000000

0.00000000000000 0.00000000000000 13.27419196470656

PRIMCOORD
 96 1
Ni 6.368124669573448 2.1543699951659594 11.3709775878079 -0.08870203062309885 -1.4109370827300085 0.5158134306655955
Ni 4.809405930843356 0.3431370612703973 6.182335096699206 -0.7408176102882597 -0.2658775207982582 -0.16892482013059296
Ni 2.67589588283926 1.502133864667978 5.004264139007663 0.7514403801094284 -0.32783699322019016 -0.8216096420356626
Ni 3.5073461680843745 4.57868584569091 4.736722619297631 0.10443281109479434 -0.9934413514004051 0.4745207425643957
Ni 4.894732184277619 4.468899036823802 2.6374092803256235 -0.23416039220063542 0.5803987707461489 0.2877516951635302
Ni 7.274661695059025 6.272722154705781 2.5616006045225164 0.2612824452284081 -0.45914477432895767 -0.7545133626077973
Ni 5.3452979734316095 4.276860549343246 11.5414323786555 -1.2629577545028314 1.6017476471900993 0.03800450426823132
Ni 5.752592976538101 7.966821950516361 12.476997381048143 -0.01923185164641849 -0.07385699519046636 0.5432280752331226
Ni 2.041608376442725 6.618262644670915 0.3708000720697005 -0.3137704878247951 0.021081760370963692 0.5410290106992747
Ni 2.556976044932154 1.6311934508041983 0.12813812064420046 0.5550348380600635 -0.5630759631969852 -0.10315985791964169
Ni 0.5864112067973868 0.19656781687735445 4.790655559207515 -0.7201652241452307 -0.8553288886649785 0.12490522001653327
Ni 8.545585719293365 2.5394264806894564 1.4850903808825118 -0.28361633283891796 0.30809194938277906 0.0039669550675480066
Ni 6.848719713098276 0.649071767208949 4.775948389504177 -0.5374474639956034 0.2465397397015947 -0.45854056508605545
Ni 0.9415817367175056 7.570102033666711 2.452048696799536 -0.7075958721206522 -1.1292943286776937 0.11283414778461212
Ni 7.794228561607558 4.0329080020563834 3.5051694779457456 0.4562767087525432 -0.34517497027800553 0.7681214403095352
Ni 7.395304745992545 3.9602337600529025 12.698622529238017 1.6640323641619341 -0.9512400354420069 0.40626952359648094
Ni 7.875310269271495 8.770873148641481 6.765550196809705 0.4712284449663691 -0.18075780820977902 0.5265470150330158
Ni 6.792570177063888 0.9324214990507745 0.8239660989851282 -0.461824635153966 -0.3350700206335197 -1.507926035952248
Ni 1.9297265033171864 6.387460933638271 9.224036454694236 0.8411587678121837 0.801244191005433 0.1992702651916697
Ni 0.30818939414048185 4.920281084779779 1.4176701247011472 -0.6071498135877479 0.3938197278689024 -0.5441955813527144
Ni 6.48270019674554 2.0216825921320236 7.0818740633890895 -0.6729566847802281 -0.02349705468067566 0.23906528570142055
Ni 3.243631088247209 4.312204555469236 0.6397219761093125 0.41366015963359726 0.5288175562347474 -1.5040387850827002
Ni 5.888772153336087 5.685115582240597 4.652644334876183 0.5741293927976692 0.16607295250409462 -0.08375368547888802
Ni 5.289837722607787 3.0635099792756466 9.294417009464137 0.6965604402420972 -1.1492939117280723 -0.6198952861788745
P 0.48728473788421517 5.8498093998546254 12.40497161131513 -1.3199411138664106 -1.2250972320116322 0.5111121685351843
P 4.106325946523896 6.104690745545855 12.74676819424182 -0.15176142097742895 -0.35503720778406594 -0.4550379512494357
P 2.1096934300705956 8.802915841390552 1.1603472582377552 1.6126010449648356 -0.9387444740781574 0.01629153807117194
P 6.247681148569302 7.621644242241 5.7900429303732155 0.014208944510530367 0.7169611153856361 0.3779022853076976
P 4.7413571553844625 1.0496725411849317 12.82529863967244 0.3544504820426605 -0.26875355679447266 -1.9941013320364365
P 4.054810946576339 6.091757578305501 8.089664365444122 -0.24666340976365264 -0.5139619792791535 1.875268286355912
P 4.561145350990458 1.1248590463900803 3.8569625103340917 0.48751406950027004 -1.1631488153332936 -0.29978342951708375
P 0.3523934360849178 5.71686804963785 3.525612226164371 0.17812576990357065 -0.48739811274769607 0.38741356723224246
Ni 1.4261855179143093 1.2056686677866875 2.674709586713707 -1.0126168958875916 -0.2625589979479865 -0.29631912511756714
Ni 2.057570770792672 6.676752122604329 4.904681472119603 -1.1782275640432869 -0.46587257997109444 -0.38612621587938667
Ni 6.047969828350077 5.448246347446524 9.19934643984261 0.08953738204020063 1.06531602605352 -0.20440398687380926
Ni 8.525342501004113 1.951466196076745 10.195216642525978 0.5820702449113008 1.4450152553606403 -0.42615957765218865
Ni 2.300217303996357 5.172450637339966 6.884685889822225 1.97404518471651 0.7174262279475129 1.0831684808539086
Ni 0.7991228088695741 8.962113516404543 9.090232591010029 -0.809503859911064 0.1605006006226397 -0.7968486330408986
Ni 1.23640534645258 0.8273118531190461 11.366597905858134 0.4791896087949747 1.071232648648271 0.6445778765272189
Ni 4.198644817028505 6.838262530890613 1.6063102547027692 0.36710802290567096 0.12533022336909383 -0.24841998744344315
Ni 5.4954351757435544 7.89850108879014 8.095253017375052 0.4491557814370458 -1.4020662626029403 0.08877273596003421
Ni 5.044152892752266 2.7231754065587337 5.258517872375587 0.3477471018805559 -0.04300144326219046 -0.925575026575735
Ni 0.8054787440743713 7.2857356061393 6.942428944428935 -0.77416533251077 0.11620820646316761 0.1083023213525296
Ni 5.0472093284885915 4.505240692596665 6.834523158623292 0.38580251399138077 0.41085380053305376 0.8182461248800682
Ni 8.276329149144939 7.19802406309479 8.90598756117999 -0.783738835131818 -0.520569200183026 0.170334555993926
Ni 4.772465685282371 0.06204655240162399 10.57678316819387 -0.20419212797331932 0.7048422206349152 -0.5270656065406472
Ni 8.048701777897795 7.0226281856325015 4.705063568185494 1.0702322324082147 0.8284523759891087 0.5216616619162564
Ni 7.232225306898 5.874650876061731 6.923977867687156 0.31007709813360795 0.862293750018586 -0.09844162650836595
Ni 2.4190555160232643 5.2325454242506195 2.6049276217319295 0.0018936174782870614 1.2925359823805804 0.5688707155018913
Ni 2.360611385801071 5.2946355104550165 11.426610159934363 0.2360763782764257 -0.25727846627533757 1.452384294131202
Ni 1.4582644888323564 3.4608647640823977 3.808962864960421 -1.485375918565874 -0.26963750206132275 0.04328169350677062
Ni 3.460801277286688 2.4877119508125256 2.497127949570545 0.6604894055511528 0.4797375108786448 0.6394390126387567
Ni 1.3057692055368955 3.4686373617857527 8.464354364182398 0.19210382935021755 -0.403584263454834 -0.36383346591945726
Ni 3.6733006520703593 2.679523699736975 7.407901433215637 0.05749989398868162 0.004408413480340795 -0.22067289923716188
Ni 4.18112246141254 6.7975221471292695 6.119986528540847 0.008343229758372726 1.1957815137666503 -0.7355561047790041
Ni 0.5129007529989826 7.540861829471125 11.044207422471546 0.6681561780677912 -0.5826888523319063 0.31798118347203297
P 0.46834027804434614 5.398173404715809 8.02847035001346 -2.317951829805053 0.76624762032559 -0.0011770510272366827
P 8.49991150455113 1.48771329249956 8.022497149491373 0.7410310118506463 0.5427693904291491 -0.7107146202552922
P 1.781239957693701 3.0166113763304323 10.455868937947248 0.26399033107787434 -0.15458706335168215 1.309952378084815
P 4.050965460664761 6.417589952973795 3.7814857797771255 -1.1679755472979756 -0.1134920930835852 -0.8270526674281046
P 7.220099328917387 3.9528874308350295 10.301914365304679 -0.9842278032219371 -0.05930815084201398 -0.1147341930208024
P 6.496767056766431 7.675290584615964 10.275764154151725 -0.21353448842016773 -0.11310514205781165 -0.5837725723143881
P 2.247976740669257 8.659208944529807 6.069664173398414 0.720473756524585 -0.10315034483794493 -1.0041314841243996
P 6.651330195693589 4.095551330337681 1.5243814517932168 1.5294885926143722 0.08932192359528487 0.18149185816232616
Ni 5.0226943558022805 2.8114220525956575 0.6810228575813518 0.3964430244243624 0.15951458256028658 -0.9678475620917009
Ni 1.5269209236216175 1.478970253776066 7.198209081756573 -0.5900154679003066 -1.1710251327575767 -0.7482272724887695
Ni 6.903526956880509 0.5038448150680609 9.038277718263625 -0.04426256936280119 -0.30717252289230323 1.4410662980152213
Ni 2.8147868527682887 1.280501460844309 9.24406744569497 0.27081352464729486 1.0922437036822996 1.473674828078862
Ni 6.1707260826265165 2.2568558225264153 2.701829331932577 0.49407886720198135 -0.5184601242598234 1.449530883842807
Ni 4.255166204294908 6.595398328673065 10.602269488854546 0.3227636924623409 0.9460554059172738 -0.3387289575423457
Ni 8.233466492498433 7.328117577046859 0.2396390729954788 -0.29393314138389376 -0.6584055264389306 0.46451915126699356
Ni 7.8847244541210655 3.793263487335558 7.994806930065337 0.1152584409553886 -0.16689287730222868 0.778650107755001
Ni 3.224421797773806 8.3365690487315 12.455306663816705 0.39471112933492025 0.36893042082639044 0.4000574812484981
Ni 0.1966440010322065 4.762044781243684 10.382953446120068 -0.033199626680420244 -0.3216015538334397 -0.5743803324662108
Ni 8.591477603049464 2.309159872649225 5.8784092943677635 0.12965353333479607 0.5165477377284587 -0.81676234124569
Ni 3.7138959231557926 2.462752570556244 11.30994319632074 0.21449993765723058 0.16161028874705072 0.39562592783970574
Ni 0.9312787367279942 3.5113095580451286 12.622734041463161 -0.2159060739761378 -0.3333676932304323 -0.7446135869955822
Ni 3.0269143763199438 8.35854454958941 8.03290354226247 0.6380081937295012 -0.8837370074940263 -0.14960220854258105
Ni 5.6460077160832265 7.970966731322002 3.393852637302026 -0.8646846188482658 0.6449445158380183 1.9141932455558839
Ni 2.8795343148502615 8.340886150839783 3.5066695802329506 1.720641113794914 1.5415992598349773 -0.1598763367750795
Ni 3.4638758521075013 4.471492925905669 9.57224520398764 0.20611094226258694 -0.6911608664930806 -1.0279800086072233
Ni 7.492557447478047 6.149757300957723 11.42415412789461 -0.23171475887362028 -0.5162440904451109 -0.2882422616467036
Ni 0.1828573898666641 9.356865342587183 0.455378995223034 0.5540771021324845 0.5753822913681639 0.3517585370327942
Ni 4.406636629316765 0.22458907459530708 1.533819217452623 -0.2538391015764854 0.35727175354153956 0.4477257338587386
Ni 6.205689167978248 5.7941949668126504 0.27831704285047 -0.9117322071553717 0.5923155767883929 0.341099000436419
Ni 7.8439387226485024 9.009864656320719 11.607271813623685 -0.5771218997670899 -0.4487109805901433 -0.4258189064833182
Ni 9.368837138349642 4.772093834050356 5.780512655382918 -1.539801030283974 0.1602388623208208 -0.8735513252102761
Ni 8.10630244069127 8.812783503352339 2.6981389351933767 -1.0002802286991095 0.6040212952610953 -0.02864723142304744
P 8.418213068014582 1.7642164269011722 3.6408189934766653 0.002981194115510995 -0.16774519800019497 0.04558411638770214
P 1.6683150872100696 3.0696591289172734 1.4211083881659567 -0.8998071735830117 1.016162704257321 0.9958476468490527
P 4.842165117429725 0.9167856082216218 8.441921758395376 -0.38344249839963634 1.2589378347101607 -1.010624548047911
P 8.35289422477122 1.7994697376047202 12.510182836119995 -0.23620287655196096 1.1248810301013465 0.23719892191664313
P 6.340743721537942 7.966441029742102 1.4415901354162326 0.9085391541393708 -0.9297854651126567 -1.2727546859885952
P 1.9885606238558837 3.31095430032656 5.941435357331771 -0.08099052091145406 -0.6476518874668523 0.32895722286756246
P 6.9310711566764125 4.068233869097886 5.667934241413017 0.5403425261552114 -1.363797963150361 0.8786585645298544
P 2.5313273794653073 8.386315487941422 10.385953650694479 -0.02236705484129051 -0.4710757214385887 -0.6277842020086478
