# total energy = -340860.18534237344 ev
CRYSTAL
PRIMVEC
9.39299778508708 0.00000000000000 0.00000000000000

0.00000000000000 9.39299778508708 0.00000000000000

0.00000000000000 0.00000000000000 13.74760171724084

PRIMCOORD
 96 1
Ni 1.771669631450553 2.7884334404361533 4.625449216747366 0.5631520678505592 0.21328637696510366 0.26368591246357814
Ni 1.48980456008562 2.536325385403002 0.9710264858718551 0.2872104779480795 0.8506510235733349 -1.147574100823488
Ni 2.810892097648682 2.161093918098072 12.598384303866172 0.045224419055438246 -0.8280757093759804 2.694867839940082
Ni 8.880393522571795 3.5370271685276977 5.268177287019904 -1.3218267609248977 1.026791901836393 2.2766033487652533
Ni 6.959666412532529 3.8890391458161617 12.097092233946363 -0.18694465374678126 -0.7576192552266307 0.611436870998876
Ni 4.539879948098093 9.322991568516732 0.15638965249925313 2.5823838764060363 -0.6331328679150708 0.011451436370051245
Ni 5.71587385205098 9.06749264135739 12.013190222367445 0.5809073349514512 0.07370401455236984 -0.17195306543395547
Ni 9.18074401317314 3.4524338323269315 2.628747785086262 1.5243481860640133 5.555411139835523 -3.3864256847612646
Ni 5.2021614214318275 8.421329551870038 4.241011672514792 0.7578879355069851 -0.05777551624757147 0.16117474387152889
Ni 5.749820145303208 6.2495276165313625 5.786118445149338 -0.9795149711273 0.2180866265672244 0.9684743970424224
Ni 2.730497431365942 3.9621636319723867 2.6155496841873394 -0.2916664568369042 -2.7882832168784497 1.8935256899042034
Ni 3.8181220140911134 3.937018577452128 11.942225186354744 0.40897998054910856 2.0056882655430877 0.357520636327552
Ni 0.8513409107141646 4.146163061556753 8.030083962991858 -1.0029631748479113 0.3445990431698775 -0.44299516115228865
Ni 1.1744910243401712 0.7213728211062213 2.2395395373830707 0.3114662651716507 -1.101535927617503 1.5983771880559698
Ni 8.015946562334989 6.376586694788942 9.651737090800832 2.0473126259520935 0.6737814946743687 1.3807469322998738
Ni 4.08880941833647 7.603312178668582 11.139543760301299 -0.14269365434820586 -2.221151852665168 -1.039259181065468
Ni 7.796338278926825 4.968078528753692 7.739748286409753 -0.40730387839826626 1.649473749621469 -0.09313024159778155
Ni 6.964175051370678 4.583059557970947 3.0347967381496965 1.6872406839575973 -0.9097516863902332 0.2371639549136496
Ni 6.247818090971897 3.901005824732415 9.835350468184682 -0.6076123550464633 0.3638031269021541 -1.1405632167232937
Ni 2.504116796702977 5.935547886442199 7.3043894236993205 0.045502098196857126 -0.005662340492099925 -0.0715507156547929
Ni 3.8978779565384487 9.126771849081466 2.4392093048292782 0.4238131889071991 0.08344463887890145 -1.6642550216957015
Ni 6.597312744909062 1.445460218512911 10.32700532258795 -1.0939969389279802 -0.4490544799724911 0.8958157930354314
Ni 5.34459683672701 5.626950343966075 13.257224182886787 -0.70932673876883 -0.5102973859433727 0.9813327410623293
Ni 1.7855149098827015 6.7344035445815225 9.47175410698145 -0.4828549734617039 0.479713856729561 0.9708662943133667
P 5.43037369062279 3.009197062546591 13.955327731089373 1.1861211078587508 -0.03582112346366734 -1.6458240686840235
P 8.870145762212587 0.948364000611852 11.232986239521688 -0.9056572046058854 -0.4031821429204089 -0.49630492831902273
P 0.21748264805592668 6.30663704181458 7.9438863028045175 0.03589594256566076 1.005531964016352 0.1080189857841559
P 2.677323672068525 0.43368409124201274 0.591272290232407 -2.6721508579585396 0.6545365304018276 0.5414637842438481
P 7.057691735271947 7.641335032870303 11.4022471166041 1.9595799012207995 -1.3393915092815385 -0.132702604573765
P 4.734352569983576 5.006308028902161 7.72304471881417 0.010978096278058512 -0.2886837200594964 -1.5592714803037597
P 3.0322005136187293 1.7190406660127457 3.1773730484085716 0.15880855763219748 0.7652258639292949 0.4341155992744717
P 4.342598819936347 1.0522787328336014 11.278284909648473 -0.39827904919183665 -0.46512181784799894 0.4187005502709822
Ni 8.315207465217112 0.7212544693367198 5.764863970226498 2.4934800141847764 0.02840323373304141 0.7526904504664457
Ni 1.4424074942995813 4.065449033356311 10.450637835328537 1.1085630096676133 -0.499960522793739 -0.30993234502562755
Ni 7.630551871649065 5.9826913412935925 12.970161026661371 1.4947558171188773 0.36341129078037415 -2.210038516360826
Ni 5.8967548064389605 6.246540643301088 9.062790506769103 -1.0720248055322634 -0.45839864019155246 0.5464054445198396
Ni 0.6795495600838438 6.5938936937901325 13.018057799918639 0.056084244588077606 0.22274238017168094 0.4278174249705858
Ni 8.435296939270719 1.3252956004786673 1.2068921694905754 0.9979582654341522 -0.34751904503014985 0.055982686013206814
Ni 2.5326339373542677 6.137685194352535 4.952105736369791 -0.018157387635317115 1.0562647144845292 -0.2553033448268377
Ni 6.561844786048958 8.355841572745927 2.393017360632686 -0.3121638054593075 2.0214427001638673 -0.04598623692212725
Ni 4.064857274508804 1.972923997588418 5.2860906727037245 -0.18491785312473963 -0.9566228970204751 -0.41976164454564485
Ni 6.317082055122958 3.9478111316709468 6.083589042692814 -0.21239137595465998 -0.8190891896066538 0.21632799200490488
Ni 7.448562543546705 0.895479545639883 8.243941853281864 -0.5480470938883206 0.19082547685842619 -1.150979012739979
Ni 7.941009227645924 8.570800322352248 13.610331383693019 -0.2682701894001509 -0.5744872903577203 0.4314426804279989
Ni 1.7337407072246265 5.525158429197288 1.4022007681606319 0.230808445009267 1.416955778120263 -1.4884640705728946
Ni 7.552712100707941 3.5077398020748896 1.049376296581543 -1.1362789875256432 0.6037839824393086 -1.9257716944221028
Ni 4.223861937534184 2.5224613209756943 9.934842037846256 -1.67074165786131 1.0638810933792064 -0.38612030234211564
Ni 8.955246320282646 8.8903688860012 9.467395756104574 0.37815399630718743 0.22969284334758505 -0.8048499060788203
Ni 4.070136139148469 7.427944913859755 8.3115244708662 -0.7008755226776833 0.9628195127494901 0.1754353675556011
Ni 1.510891839651545 0.8578991016241552 5.85803123461781 -1.1496656932451943 0.11370909419039772 0.3692050146440158
Ni 9.121032727560406 6.29281054937759 5.779684241807397 0.20412245107764843 -0.08562159192556222 0.015310919325457502
Ni 2.708743248971874 9.288885594305652 9.818481583831701 0.46331381810498273 -0.30257898998434984 -0.7863328211112394
Ni 3.2524475208622956 7.024543846813974 13.66728770311569 -0.17950182431549086 -0.11921948248566566 -0.749246200671587
Ni 7.298781804144372 6.469924911736201 4.055446430233927 0.12551559990702252 2.179037439993621 0.13672792368307418
Ni 3.517085834666469 4.836999247532097 9.574173473988546 0.6967172775349355 0.8505996015101092 -0.4210615943039909
Ni 7.119873379248081 7.757592163911485 7.404224777072302 0.7617577028750365 -0.42443873830634 1.9832273654364105
P 5.185404313750041 7.301740598381908 1.012553867470479 -0.2766193326957946 0.5802601882857555 0.27562431577237695
P 2.2819817969459355 7.223337247586016 3.0999738090539264 -0.17173786409935585 0.4307970764242 -1.7035005974598854
P 2.1794478353683693 5.92351545654289 11.541867450524713 0.8954992902362771 0.579171326096951 -0.13292706187974526
P 5.235628671807502 5.377453542260019 11.175109406336228 0.5838332503489945 0.4427732749494697 -1.5324787855909479
P 9.090073407538451 5.125026125309166 0.9494216521393011 -1.0422432033944566 -0.3893773758268327 -1.8533799709232535
P 8.677307521905933 8.660146515328229 2.0179549672841866 0.41311020066739823 0.021597780775433773 0.47073145072529254
P 5.528380227367048 9.11234420479939 8.556424339556859 0.1217417346868871 0.7722981973950441 -0.03625641122887304
P 7.519413924288697 8.153037362007447 5.436337304786 -0.3535894195939459 -0.3547844683433115 -1.3541632682740743
Ni 3.265550752485666 0.6581410400007007 7.435198186590627 0.03299985196478832 0.6711165462476958 0.576982031755116
Ni 0.30983272165782444 1.52964026282018 7.853070105707348 1.8913819040883233 -0.33377238486801875 0.5082369038699183
Ni 2.762940845005454 9.1397999367242 4.33199318636936 -0.7431521719587072 -0.8364230528994111 -0.12629592971647283
Ni 0.09815118890698248 8.59516575807341 4.36486304209898 0.19676755337447402 -0.4950923960681603 -1.2084781353977123
Ni 2.8741163643561385 9.22756810610683 12.191744531254988 -1.073801437816712 -1.2040836058744424 0.28766530609731106
Ni 9.252910413576258 8.176735894900467 11.617837075647762 -0.11081583180300271 -0.07182016726609566 -0.16222066863753995
Ni 1.177412246587388 8.032130697164426 1.039776653055318 0.43360729217948546 -0.6116772691444562 0.7991885940279849
Ni 1.590600817110983 1.6633401903664495 10.913671286807382 -0.6022629178090917 -0.9139037608853938 -2.9418976319042174
Ni 9.130679336074529 1.9616430074954665 3.767186606116886 -1.101130207538652 -7.4622556583358195 3.064430495033832
Ni 5.183572679222043 3.492401037027604 2.2956429726255263 -1.219880463697383 -0.855651819222036 0.2625111754291866
Ni 3.772359329883904 4.259480184355558 5.660918241112737 0.809590248977283 0.478598255067879 0.1428301799260701
Ni 8.366465053008314 2.879141618061159 9.802411104272975 1.3132037951425772 0.06489798622496565 0.2653123923234076
Ni 9.556529667335257 2.6657045340627126 12.388184046833613 -2.872734185534678 -1.4993035843905596 -0.09185703131231276
Ni 5.117098435352087 8.652153074388094 6.465634190441896 -0.5407353907182558 0.5214634298625213 0.23009547810264244
Ni 5.190701964384866 1.9728864255981 8.019553473405507 0.7652258639292949 -0.2786512755241588 -1.415354495071414
Ni 0.7519789644191877 0.4462754044973011 13.231984259090977 -0.5998648498905603 0.5156609642481312 0.06228908784720885
Ni 7.232664494182436 6.521097962549188 1.31003104011226 0.6177242466694846 -1.1863820748296212 1.080629516482139
Ni 1.30928053960566 8.566056858574614 7.646457034450392 -0.5450134492683194 -1.1333962666612094 0.5550134979038248
Ni 3.9439787886585203 5.814622435604018 2.1849201957581723 1.078452563435478 1.5338486693552809 -0.10774027820147251
Ni 9.378259966274372 5.991661653981992 2.8309611762769915 -0.6751305525030953 1.572326256605189 1.8275396128213814
Ni 7.205941416068826 1.308491527808984 12.835942605648716 0.37081298256108397 1.2489521842523588 -0.30385117182855415
Ni 6.093791716663641 1.3378822172351659 1.4141749614749486 -0.30391493518695406 -0.4343457130074068 0.2631099853554501
Ni 1.1864577032564243 4.357665188053827 12.999154392289944 1.9797013545610227 1.828626418127657 0.7325857092967706
Ni 6.329715636867354 1.4014352388579043 5.836777698994729 -1.7140853149542672 0.6786599058125925 -0.4850674077319904
P 8.986355928265871 4.637191403021471 11.081652837619469 -2.7411677514478856 0.3255703086732006 1.0788024905757292
P 6.273808515274309 1.3623134039393845 3.559034022556653 -0.16080064836156177 -0.3959519437205568 0.8984686572772462
P 0.9816058190456196 4.773202007972292 4.355391143339836 0.05504757579344713 -0.08337599042449512 -0.20223397580568395
P 8.299248762329581 3.015001935050708 7.558403317941347 -1.1540391397225414 -1.087475335759379 -1.3195847589682566
P 2.887585922885108 8.169982329640824 6.199219660795444 0.5153017811364996 -0.5002582565398159 1.2511656469639096
P 3.3552632723672464 4.205771024196111 0.4749165327166411 -0.5448715243738165 -0.10296471118970009 -0.08616718001638708
P 5.114440217037095 5.177204226863158 3.9231939636146542 0.004006550056231809 -0.14165210045756896 1.3721285945032433
P 2.3110531244544155 2.7327141787946982 8.404390220035209 1.4973683150410602 -1.7788408620640976 1.0878545734756684
