# total energy = -340867.61212523544 ev
CRYSTAL
PRIMVEC
9.25962942292320 0.00000000000000 0.00000000000000

0.00000000000000 9.25962942292320 0.00000000000000

0.00000000000000 0.00000000000000 13.55240363813063

PRIMCOORD
 96 1
Ni 6.6384506747410175 7.302653163916785 8.055196223107364 -1.4175903263804683 -0.005703992363312757 -1.2797293175342153
Ni 9.097002702574528 6.96201917067385 12.346456731083604 1.6690357309137964 0.07264060628486199 -0.9516298146812578
Ni 5.011144853649332 7.188315257902058 10.33698747809689 -0.18071872744172746 0.24683387390324588 -0.26325036758805626
Ni 7.556765178393798 7.030197823248067 3.2230326014745425 0.5098916658645218 -1.2472963938164905 -0.5084297366070147
Ni 3.9398705290168565 2.440755019786839 7.343681656608772 0.40706733690742797 -0.5360768089003218 -1.1085056740671166
Ni 0.6030593031540276 2.958201639799389 11.326476124491993 -0.39908586136384816 0.8619775043297478 0.1071016161762091
Ni 1.2314844355708299 6.361282182617693 6.708588664933693 -0.47069931193577647 -1.0249823594314798 -2.7672613632111442
Ni 1.1556480693365723 0.8119333973334252 1.255442801137926 0.9417022711549008 0.2997903714956192 -0.28116889973968995
Ni 5.815556653877496 4.7266890330490385 7.095103196766875 -0.06005711319289657 0.5654727455639358 0.3339454201107733
Ni 4.24502162172137 4.071764692709258 8.872826144556457 0.6586952897652075 1.3266786897005605 0.07181039707408278
Ni 7.371165163155768 8.38102962443469 11.056877379547727 -0.675753530799075 0.7336452609095364 1.5391376856683623
Ni 3.6452291158820485 9.02005518079105 5.7362720015888256 -0.5123275289995242 1.3652606637388165 -0.7043333993192966
Ni 8.46422739618253 7.47365074331215 9.294455043670903 2.7441787703600675 -0.9651918696364088 1.0468753028498294
Ni 7.036624006174389 6.271500814240725 5.632799344919555 3.7148411761927442 0.415239331195259 0.6907721156950942
Ni 6.027241045633462 0.7269651844104954 6.765739098681902 0.545162573251674 -1.4359374614290883 0.8061611686910761
Ni 8.003449709180195 5.147492899168189 7.866912767217969 1.204990433959428 -0.29938439430645214 -0.03113451662127541
Ni 4.530421924538499 8.588223095845892 7.736606629997995 -0.14562882571712985 0.7581864405840103 1.5468466242768457
Ni 2.6146879017580593 4.616879085897383 10.552118303981352 0.3792402873928308 0.21511597397467466 0.5366182832260888
Ni 5.193892902977697 0.3635756514824949 10.45360603087639 0.12441079687861799 -0.20771891017965513 -0.5491642382118993
Ni 7.037883315796838 4.089163536684126 4.239408434271894 0.31224453809857194 0.588532969817509 0.29754348444297146
Ni 4.237187975099369 2.4610428681896788 2.8041686277517393 1.3215418826946272 0.13210533730939827 -0.3617066493844416
Ni 1.5583308403738612 1.0839692767823124 12.297532552251452 -2.6098962228936924 -0.5678245336255641 1.4927421291229581
Ni 0.10710613531522079 0.8213078463170105 9.195956660010307 -1.407426498473589 0.19101728115425812 -0.7690696631554174
Ni 2.050072728681125 5.781759005922058 0.7960642441646498 0.5894716795816944 1.201215540298028 0.17202042833678116
P 9.0166383774772 1.1552591648943453 3.6375325117777852 0.1033596326352736 -1.5904841584611382 0.5327541722849922
P 6.148245884943509 5.601085113618903 9.331413003200915 0.019027963165728523 -1.0719494722096377 0.1146827709575767
P 2.716571605991947 2.6787274999114326 1.12358660192679 -0.44830448918034405 -1.511044784086888 0.4125702690035282
P 0.7676547746599702 8.862085900210289 10.82015772730488 -0.5576069696626138 -0.20863962222171165 1.600735403875501
P 5.379307725624189 3.0677986154707777 5.628990859274603 1.5436713118726575 0.07846595471738746 0.7147257982972142
P 2.740609604373404 5.081619894358603 4.122411162642701 0.6773280743750463 -0.11888703884691137 0.23603035552983864
P 2.311036869044993 8.090156880537654 1.7366046366907009 -1.8436182635507992 -0.8138212563394952 0.9625243501065747
P 7.088839057358148 9.292223472942887 9.077413956204738 -0.6930596261776902 0.6035440985143605 -0.4688121222153926
Ni 6.116392759199205 2.3787247612516382 9.351537882123202 -1.488710639366062 -1.5060586437262062 0.475167375009459
Ni 2.1671237061618633 1.7561628262828861 3.3442994883016133 -2.354645585681661 -0.7529686438284968 0.6551240274741813
Ni 5.652216788142172 8.384464947007695 3.6049663945560657 0.08085065289948011 -2.0552344519023316 -1.0535522006493725
Ni 8.794592460224758 8.681504604202903 7.2731140196037325 -0.8061264587983987 0.9451483207219722 0.5383211248498083
Ni 1.8032758215698097 4.080746533398785 2.4492849905530165 0.12157769830519706 0.24760494774131547 0.7014576204333983
Ni 8.26983073284651 9.246203113946029 2.095770852568708 -1.3694741875995318 -0.2583223341588196 -0.03250594304750531
Ni 0.27599529705594067 5.147955880647031 10.459135881659675 -1.3191810957719345 0.7043506257104774 -0.8843119061608901
Ni 1.6210277922385936 7.944271416554659 8.240959207825947 -1.9309421828794484 -0.009679174960976878 0.6682068288000685
Ni 5.52441538072273 7.016271340364512 1.2731277676667185 2.7924319489395 0.04102555048274224 -1.6355990485219059
Ni 6.9049057754439485 2.6681530029346896 7.311277582904647 0.8059585657619669 1.5049242730114467 -0.541151652320068
Ni 2.078777580369305 1.5331724268136075 10.078503066533697 1.9913919035250738 -0.6741476197645359 -0.0679012918276637
Ni 3.9622140151857534 8.954145137463158 0.8045423610051975 1.1863607346733824 -0.5883715045389802 -1.4888582206875198
Ni 4.379999242062856 4.703669593921034 1.669181569889953 -0.7228934217096712 -0.385553116984736 -1.2203010961745695
Ni 5.085036697672455 4.78000598015244 11.349053879289185 -0.17115808033648588 -1.2591224399171412 -0.29715370520372053
Ni 6.5626235681363365 0.2863216359600242 0.2776286957132939 -1.7927798407426934 -0.8465704257460581 -1.1392792078045475
Ni 3.6285432633845964 1.2814308775082641 12.01463975712373 2.120391091105322 -0.0999377514379182 0.8299582711106739
Ni 0.6333531072775925 5.895356141570638 3.9449559175804527 -0.4281251860189917 -0.30008861946232834 0.4835815672150833
Ni 5.923153549560289 2.157678883993494 12.263610825259684 0.5521523743059459 1.1155301850140658 -0.45234574912925324
Ni 3.5299004295026 6.683220983745003 8.29022228910061 -0.018038859779581834 -1.8525129949372676 1.651369423982285
Ni 4.6973823054383645 1.8558982964549484 0.681603185076551 0.08167212035951095 1.7349837556698313 -1.393257920282691
Ni 3.655136919529259 5.242904122327871 6.647928831575864 -1.595096460422169 -1.0731154674932808 -0.9832865223545905
Ni 7.648833675276243 8.873669696810907 4.826769887404317 -0.014452170869588011 0.41097824192606 -0.00030621838650915
Ni 8.65938334914385 0.2039664905036765 13.130354747947255 1.8529904487943185 -0.6083440910061652 -0.18916685820908066
Ni 1.7722745817465748 3.665757714653886 6.588744983172581 -0.5669719558172815 0.23955945172901968 -1.8866312767772155
P 5.8081489502160295 4.389870007191759 13.458797512889332 -0.7175604395325319 -0.5711646537423904 -0.741602053862768
P 8.885605359335443 4.701271349860634 2.2696889191326055 0.02420076561591961 0.8050995601957812 -0.17664147204856032
P 1.4147510241554975 5.215208570263565 12.360876752223605 -0.5249539595142829 0.9871673454662353 -0.977121274084143
P 1.5822299443116656 5.502090413812987 8.49219332943048 0.8564702013582735 -0.1607047462136458 2.6477973688148397
P 8.52059076141671 2.9968513336530878 8.768974769037493 -0.4026121293495517 0.28729506724208587 1.1903176624386018
P 5.913588352207421 0.8702144318529663 2.166189409537561 -0.5606632399904343 0.3069951167741745 2.1747074451597
P 3.1086521011637624 8.724182236922523 9.502417064336981 1.7538052592517086 0.5038392890228548 0.4432653840945398
P 3.9617139951886045 2.783815035978904 10.534920393968303 0.592343858923167 -0.23763575234374557 0.4316756223744114
Ni 3.0260099071905326 3.958917587056401 13.02518850502838 1.7206513982075595 -0.46568437521968836 -0.9627529211776128
Ni 3.5803654106963374 0.02122492291601531 3.162195909191796 -0.022232071925323 -0.6171730021517049 0.20829226618462193
Ni 9.061445724999492 1.8493146998258205 6.88010848743719 1.4286761518809845 0.2528255727103065 -0.10584923182634673
Ni 9.358429824417238 7.271864895573817 1.376165221745879 -0.09792689165547652 -0.5906176202606797 -0.06086521091648872
Ni 7.348377214767184 1.9465315507529841 5.149778175747752 2.4645489329727233 0.6596463408245672 -0.4702460264484417
Ni 5.430439400147458 1.0845804123343832 4.581362850692485 -2.0818973059054984 0.9200340421528477 -1.1793107698051368
Ni 7.1892875190076255 3.6859529667609574 10.7539541537194 2.023985264080063 1.4737139088469133 0.23232333899189664
Ni 0.32778255335324913 3.022407911285145 4.17453361753069 -0.24478727578686232 2.0550922698975125 1.469046071057599
Ni 3.915638078414286 6.464777062397949 12.383874894203585 -0.9538137097064541 0.7143208495493117 1.1271181469619815
Ni 7.938632302142368 4.941456881454091 13.10863073099705 -0.08586713227746502 -1.0540016294819652 0.8412724105719124
Ni 5.0875090187694685 5.768721447477877 4.854172835173995 -2.6188061237888123 -0.5695582284872192 0.25166883339804397
Ni 8.618261334193138 2.5306567633483046 1.9337921523811783 0.25104328399890313 -0.5205499169093165 -0.4138023416384164
Ni 1.9565412103255402 7.068106746735619 10.597194180761374 0.19542363775206986 0.01245853747832693 0.41764459820264205
Ni 6.470360619032778 3.497028744504845 1.8655153477334465 -0.20576384333581338 0.10494008974851604 -0.1392010678139151
Ni 1.1891679284047056 8.406762135028707 3.8039160177550144 -0.8528506023278152 0.6624290457760269 -0.3762884038533584
Ni 2.121223722349505 0.8014903870966735 7.7114806251412595 0.31511260367498634 0.9650373463364154 -0.1281448099997535
Ni 3.4986214007920604 3.0648818321540756 4.788348906401167 -1.5400841087420314 1.0467668022964232 1.284803132512697
Ni 7.983587803737889 1.4272885626025287 11.164687246710788 -0.2716131377304548 0.22297583633872567 -0.40839094081485794
Ni 1.4503820787671486 3.374431248907584 8.738739300580262 -0.7785920008235558 -0.5501965361311557 1.3918852083048803
Ni 1.8461664257696975 8.062526145880385 13.22233527834872 0.19734965113018915 0.05166117581971748 -1.0144971436294399
Ni 7.113673383883212 6.122374479905839 11.381986677842145 -0.6730803548422859 -0.2893259816291856 -1.312026229894708
Ni 3.858941366515341 6.831300979937708 2.602183697977505 -2.0222934781999364 -0.24805103413979862 1.9673919410660505
Ni 0.6785502852050693 3.6633502109639093 0.23013975946555107 0.7804833043089977 -0.07041171695434326 0.3127842126521258
Ni 2.9386267828739654 7.002502271183762 4.919943058095279 -0.45336056354701276 0.09366297417279998 0.04863293051635496
P 8.784156857691668 4.452437324242416 5.649454640639402 -0.06347436640456164 0.597238725121623 0.998637550889364
P 2.015238002213081 1.5900728505632429 5.751843920648184 0.2956364972282457 0.261086270057202 -0.5710762077936423
P 5.004329766280783 8.436142939675998 12.3968985632034 -0.46397124918332355 0.32126448220899506 -0.3594587338905293
P 5.8819018997955 5.4681631310434735 3.0152066973632428 0.9824725110937274 0.7736297717222741 -2.2188049496995466
P 8.271275235060497 2.453709241564827 13.199811229403075 -0.8599620165616157 -0.5970957717858555 -1.0288744953970346
P 5.575297045247424 7.77863516268428 5.83977151118387 -0.8455995771923567 1.4067513267834353 0.45577071565040217
P 7.470400613330682 7.508476210150617 13.55024931844196 -0.4110160371425308 -0.39977980210707925 0.9335395328384504
P 9.127994682768186 7.615378633615148 5.587276228030973 0.8193103044785245 -1.2688401814255375 -2.092599522814351
