# total energy = -340890.1369206216 ev
CRYSTAL
PRIMVEC
9.11567585829932 0.00000000000000 0.00000000000000

0.00000000000000 9.11567585829932 0.00000000000000

0.00000000000000 0.00000000000000 13.34171304525722

PRIMCOORD
 96 1
Ni 6.327208882781961 2.349492541248964 11.10773642102724 0.245224620434597 -0.8940041937479893 0.7086343406874958
Ni 4.702986864223871 0.4343373449443697 5.993137591910887 -0.6932506591425738 -0.37851626474261263 0.22605961747037193
Ni 2.7427792628529133 1.5617796385518996 4.535662251861883 1.0314281150568239 -1.8321660558497994 1.9532009942776491
Ni 3.632879437408303 4.514556727419791 4.795932118971187 -0.6130900903315828 -1.2531924475859515 1.0180699485823628
Ni 3.726561238769414 2.755103656687712 2.893176976611472 -0.4546348022737461 0.08967570739027782 -1.2029340656510314
Ni 4.946393642461139 4.6296694828530995 2.4369838870973446 1.2858955942459276 -0.2926481040238831 -1.2737291340867225
Ni 5.1688799444773545 4.713123495839475 11.175979105617072 -0.025673493506704174 -0.024200508505603485 0.06457299878537912
Ni 5.68604870174322 7.9258887774309486 12.447604956713054 -0.06462930594461126 0.43107758377909633 -0.058347843811273704
Ni 1.7583044955670015 6.932362143963118 0.291154688671198 0.5473863203758702 -1.092462247451009 -0.5648618514528143
Ni 3.1863115900910417 1.6696545473100384 0.4884325005167395 -0.5897529582675392 0.6700803916736976 0.2887207439450189
Ni 8.118010762979921 9.04011607566695 6.370841065541031 1.1271734256799493 0.03118336758133984 1.2459920731827703
Ni 8.57117835965842 2.4056542205508813 1.3791197246009457 0.42030671841583744 0.300673802541837 -0.2123327548025827
Ni 6.687451279200153 0.7662436627860307 4.725101493989567 0.05659512278622511 0.7476181781498609 -1.4550047624731843
Ni 0.5263053992337785 7.654679187658078 2.21421773383059 0.39071666346354644 0.3109304472728387 0.6215587899242263
Ni 8.098375597062645 3.910488231672318 3.5709894673624594 -0.38485557669707915 -0.3057095651935316 0.016466887306771642
Ni 7.5523921882347995 3.7945641810827246 12.522158423737674 1.7909330173419413 0.3257034918169552 0.006317200467279444
Ni 8.229668677242085 7.628827130767925 9.32258899459831 2.153329750814872 -1.3577754111053648 -1.1296290863092933
Ni 6.9977215402615665 0.8357005554075145 0.20723942248360933 -0.5920003595408192 -0.17802138311522245 -0.1405822644321579
Ni 2.1425758136926856 6.861232524811541 8.883926261433073 -1.5649929561685691 -1.4323628567039524 1.874257585703211
Ni 0.4179099853809895 5.001698448227205 1.3301165855937522 -0.4433468880647526 -0.8565079965747442 -0.6219773655188836
Ni 6.5679538836525415 2.0389852726138034 6.880361770715627 -0.6018703103563635 0.400505110308878 -0.07229119336524324
Ni 3.4152517906538824 4.599578636663256 0.5049346086226089 0.842946970060858 -0.1923380568482107 -1.310012799009105
Ni 6.3442096183602885 5.551127582550283 4.360792594546446 0.09212956824740907 -0.12286504965805292 1.181212871923856
Ni 5.692584641373065 3.178444761777853 8.966404897096723 -0.7635060530247109 0.3137488905582403 -0.2187548562788426
P 0.2341561903204382 5.510134387968117 12.469031352947297 0.4995591735902623 0.21518693642192618 -0.6477177077077813
P 4.182673198767913 6.238321926951252 12.533978720694464 -0.6814976323717037 -0.1270343505443941 -0.2808392843144131
P 2.5306939470537873 8.696044888318973 1.2239918866109694 0.5346315918133632 0.359940044402322 1.3724173293882558
P 6.365230367016387 7.9201459016055615 5.788702151338214 -1.2775305101106837 0.3913771798656808 -0.2294637580559145
P 4.949447393892099 1.134600833902254 12.423376401703061 0.10854734748380017 0.8353303340558647 2.3092352758676618
P 4.196292018582402 6.265750995774408 7.970219220964978 0.48131411133714525 0.36928549017296397 0.8878780262455934
P 4.851225985926158 0.9052194346252089 3.4277931375754176 -0.22599559700165595 0.5711050041490487 1.5370892877797657
P 0.44963071442413394 5.825372692402286 3.3929976910467126 -0.717750444056151 0.24541462495821606 1.1213663320798688
Ni 0.7943454684915902 8.986278893722927 4.370879089944526 0.03716246798291019 -0.50179809022311 1.4034700849290023
Ni 2.1453469791703323 6.474053306069511 4.765967069108946 -0.7164340392375725 1.5103778399268504 0.15317809881929748
Ni 6.2686680120666685 5.968014789093799 9.039037691206405 -0.5455628940138864 -0.29217450682157425 0.24881593733028115
Ni 8.631141275816189 2.6534365232265387 9.911198215564395 0.5238429858382914 -0.4063924223275905 1.0828920872640704
Ni 2.3736581980951548 5.469004458247253 6.942200692976355 -0.14316493755766957 -0.6629874893826583 -0.184910654035888
Ni 0.8971256259817787 0.09289329539460997 8.600215433712686 -1.5609501535577635 0.3907158921325981 2.1224973388150477
Ni 1.3740878714967975 1.1924489132481346 10.986126923370513 -0.8657259156285865 1.0752805934653997 1.1197923027245296
Ni 4.05483495975962 6.85982871072089 1.3357455154702225 0.6902571237318886 0.6835257185453261 0.031034243597985258
Ni 5.697224520412941 8.235119851438245 8.079688461440355 -0.45190377649582814 -0.5093093109984906 -0.33660445500017516
Ni 5.525476070530222 3.121973149494883 4.649853412460357 0.2408943684903593 -0.6713479455322116 0.5879634704672841
Ni 1.055230643725043 7.71219910267108 6.892822899689125 -0.769930725604132 -0.32416031569955145 -1.493399560201299
Ni 5.349197129718587 4.585431107645794 6.954515059567649 -0.12349059905719377 0.5420440822273503 -0.2719610079881768
Ni 0.8876562618430298 7.50571992755864 11.46828328102094 1.3043406883249924 -0.7130119009299011 -1.139810140607353
Ni 4.8459662409241755 0.44484589613723624 10.499781912637923 -0.15323826263327156 -1.495266952427341 -1.7809815625561842
Ni 8.05878621657113 7.378164274503661 4.602357094681633 1.496084820342946 -0.5141555833471985 -1.1919436280777989
Ni 7.5285455800455745 6.478839035924 6.863284463459627 -0.7464285287171338 -0.865207067010639 0.17863870498424717
Ni 2.452280902847474 5.615976500997588 2.6168835743817476 0.27624112342076945 -0.6197924420524229 -0.6303416783231789
Ni 2.3947609878344727 5.38701806908292 11.410940210120655 -0.11579014508914251 -0.38689163329050147 1.0038754022495358
Ni 1.3431674987988416 3.1638141019369863 3.8591970580108836 -0.6567883025504818 1.2734506836143553 -0.7148345559609366
Ni 1.2558210921974822 1.050299063055941 2.440132441557803 1.0021314229752354 0.7332714225098855 -0.42587444231160204
Ni 1.2311084947964923 3.3949511803949353 8.17058542380995 0.379304822082179 0.1734928991172496 0.07691197996670625
Ni 3.810689811773374 2.6865173111159493 6.847834304354154 0.7391584774182818 0.9237842532238995 -0.16599453385767543
Ni 4.250402670803824 6.9798912781751286 5.882748579735858 0.8039826729825185 0.4702383131389579 -0.09367917212271608
Ni 0.8074018511022275 0.3222892797531164 0.17247223455023586 -0.9488684498860367 -0.11183424576518805 -0.7313279256302696
P 0.22231128103868006 5.933940392529837 7.738540671357779 1.3615359065890615 -0.9307460292537131 1.5990590446143427
P 8.521033026459289 1.5317799491211883 7.786717018559634 1.1269024314067495 0.44224902701488356 2.191018780725214
P 1.821813409655049 3.333356558248684 10.44890914850091 0.3674903459457542 -0.02674872884875393 -0.8322113288109086
P 4.378842544422396 6.1198454871059305 3.739362382454478 -1.3883720529452992 2.600228103676309 -0.5543522101707421
P 7.150637003707383 4.294221724919117 10.264660372238264 0.21850237394840433 0.3408146364267807 -0.05900218956582096
P 6.425466753451555 7.895597386371012 10.258216500935145 -0.8957072924820252 0.00022677129882541592 0.6437546092949752
P 2.5987698147744043 8.685206349658044 5.790129666186238 0.04744250975267958 0.4105748358400542 -0.8803860887439225
P 7.018514397019834 4.00843616936086 1.4163025666513471 0.6487101535280375 1.164151545566195 0.2008715482405186
Ni 5.455513257895549 3.0607705014129034 0.17860799600748642 -1.0009623423677987 -0.3221044616117872 -0.46216659187441694
Ni 1.8672094757033446 1.4126380649341954 7.021796951916217 -0.41812488027317024 -0.34086914381380007 -1.6002386667447406
Ni 7.252103592298464 0.6745928340184052 9.317279113378804 -0.9392350405613309 0.7840285984580949 -0.07921980216427647
Ni 3.3039858504559914 1.8422325237008685 9.264712656657098 -1.5244024363407167 0.9280296587638146 0.399501351634712
Ni 6.177511252933544 2.3530020764755886 2.4138227777368004 0.40215935808284936 -1.2358750393534266 0.5482880062545331
Ni 4.078216668477266 6.861123136700582 10.40808368235555 0.5268087533348347 1.119243629309911 -0.3435695734640986
Ni 8.300862106125054 7.214419388072829 0.1798504626344709 0.352212079630445 0.5301869257784482 0.15780968405403792
Ni 8.035185731631564 4.040696546418073 8.099046510809865 -1.1923308362138885 0.7429552254565528 -1.2666177198529218
Ni 3.218808974722 8.72341926308665 12.398373925808029 0.17269997090230904 -0.4996584181722878 -0.4882368065989075
Ni 0.6155104921538623 5.151067913742742 9.864489492184584 -1.1007219163566397 0.18879096292690067 -0.1373637574948602
Ni 8.726655328035875 2.3564569176467343 5.893995500677702 1.0105214468111436 2.0878972322426756 -0.9557523214900637
Ni 3.623298862023411 2.8980465706843637 11.685486137277799 0.12313938636536213 -0.10312951890233853 -0.3676847213447474
Ni 1.2984551084440443 3.234178004311845 12.66564827828912 -0.66031559897745 0.3730472712082414 0.4895346994747246
Ni 3.1211253916349446 8.65706625811365 8.138818204819648 2.7358648511777335 1.3661584929627375 -1.654202779666022
Ni 5.988415671787791 7.717504426052628 3.4095016222877645 -1.4124082679588965 0.9658238467934528 -0.2571331989467249
Ni 3.277896785992091 8.420250113561707 3.5698418037649735 0.4033119836300538 -0.5101030105443796 -0.6601147958205535
Ni 3.334878876126207 4.6553483419009005 9.165156713737447 0.5111988147117196 -0.9163601928456863 0.3598102036926771
Ni 7.4553284711098495 6.302104311316698 11.461932389612134 0.03987703870059584 -1.3117606349381474 -0.8079347156517311
Ni 7.812298339875163 0.12154113008737684 2.5720818504029994 0.31535171626898595 0.07986386350617859 -0.3130819463982028
Ni 4.829612718335694 0.08379402769794154 1.4366761023176 -0.009326419607248455 0.1640690347001884 -0.6393055723846861
Ni 6.07611758974977 5.596569226978145 0.1974282204981112 -0.03134534708050086 0.7476068652959512 0.14611116467018706
Ni 8.239185442895582 8.792753094083304 11.603821531473207 -1.5417033895130092 1.463611530305589 -0.4075728157889368
Ni 0.28487216483174305 5.052573035499401 5.481842976203561 -1.0101987733644022 -0.30580598156207983 0.7697620612367517
Ni 7.598408120245201 6.0490804949908865 2.284701963127504 -0.7785259234723108 0.12906706470370674 0.3325896774138272
P 8.694312909895443 1.7122338695011206 3.870978157561248 -0.37752330470172396 -0.8975101500187189 -1.7311877789625087
P 2.0222671229887883 3.5854414599554247 1.6415773539294447 -0.37022317149588496 -2.09171429199592 0.3584169228895763
P 4.968006910051603 1.2225032967343255 8.150105234735511 0.5336440310891133 -0.3024488921643888 -0.004258518166037827
P 8.637440207872288 1.7473109904155466 12.335454795951573 -0.19555579245455998 0.28064825134952953 -0.26185862944685223
P 6.473041466043132 7.734085840538943 1.23212033482287 0.5340525793814415 0.03562803361625477 0.043489695752518646
P 1.917290999171083 3.528222362247563 5.986226998001006 0.3520092195910196 -1.0550012743910735 -0.0294715270965557
P 7.138950707186517 4.150704523339926 5.804445835208095 0.7217140566895894 -0.5684289999787823 0.3643291746089532
P 2.4593273203284647 8.754804535256184 10.195030281774429 0.7329685465574861 -1.4975194959069436 0.3266000354892956
