# total energy = -381173.49576099426 ev
CRYSTAL
PRIMVEC
9.20211166018863 0.00000000000000 0.00000000000000

0.00000000000000 9.20211166018863 0.00000000000000

0.00000000000000 0.00000000000000 13.46822057838420

PRIMCOORD
 96 1
Ni 6.199885961909253 3.1427235983340487 5.347799863531351 -1.1550151304825655 0.4916183214766308 0.4383154962884322
Ni 1.7997582120208115 3.351629938568 11.908964412354578 -0.5243289243357744 -1.5346611379542472 0.9504069980177504
Ni 2.4496205436947562 5.895001596451088 3.547084631891812 1.78116848175601 -0.7793931565686126 -2.3184899616967103
Ni 0.8636641953421511 7.620507969015122 12.804439387696497 0.3582719126712797 -0.3883466205694731 -0.11817510038155132
Ni 7.67074229688655 5.276877348094335 4.788868198804009 -0.2926756148277088 -0.1493268433940073 -0.16731376688973118
Ni 3.737143206903881 2.54260788261045 9.459836181636762 0.520979291137251 0.2558275927614239 0.47242092261257357
Ni 0.21714038979968756 0.25970935860958355 6.991824297461363 2.452102222568938 0.12339675379180684 0.3604732911979727
Ni 5.2299557804415775 5.2078247017585255 0.31902617074719486 1.7472864842965845 0.40729976463320816 -2.2415419862857457
Ni 8.325785417458023 1.197056702904307 9.19126610965341 0.06421844365943778 -0.09203649431297052 -0.5435263231998316
Ni 7.466170151272023 4.493888066188492 7.030195262905268 -0.45363335759242523 -0.6199063419224679 0.30190099008071875
Ni 6.113211271632468 3.7028193301937837 11.783521225407647 -1.4357073476961533 -1.0170556483852355 1.212622753693705
Ni 1.5704875985537647 2.161382798335402 5.888616251129603 0.5640108163064286 0.5870306742403697 0.36306522029486504
Ni 3.208435878116035 6.803958585671818 7.250536147160658 0.37530187157037304 -0.20745125834056533 0.1762313810943352
Ni 8.575217857700359 8.102348942820521 5.1694666192710255 0.7777746471285831 -0.636484043775491 0.20622407080168353
Ni 4.228802833912946 8.677361297775985 3.1422837373939037 0.15183521163815783 0.09820508501752764 -1.8388740639975942
Ni 0.6875366972607572 5.373140638781824 10.992761680366682 0.5717817185010992 0.6818735276538838 -0.5261832039356937
Ni 4.243222542975875 1.8446553150954943 1.0436823462581375 0.5779248552843594 -1.151816935260242 -0.7062807528536547
Ni 3.499176597862828 6.732467379730599 13.044039371567589 -0.3282560830354799 1.9722107026109323 0.3603146541329214
Ni 2.0648434442963572 9.043402897715467 8.69443673628088 -0.08312016565994718 -0.7930994504111116 0.3042764322914308
Ni 8.369127363652275 6.716096822983343 0.9634408522837725 -1.1381178405065948 0.16158740592891527 -0.8465930514538775
Ni 1.9405597234259604 2.295604799861805 0.9353182786607888 -1.4407505665470155 1.5703053695204183 -0.9615103070197635
Ni 7.906555611785468 0.876560034704492 11.618024006783493 0.5063751680708312 2.6537088492032685 -0.3594188817915294
Ni 1.2437298135406651 2.2015132075398887 8.569613771663777 1.085920075457117 0.10391113426336943 0.4034317970373697
Ni 2.3323856404007497 6.466618372182416 9.4061114927905 0.2300754234979844 -0.22759019518228543 0.5962534783902184
P 2.935915339571921 8.353419358948754 1.1237361171534446 -0.08305537386028278 0.12837646639458536 0.09849202013032715
Ni 4.19135023921855 7.137581146026937 4.882930344368427 -0.35522618386642046 0.4999139858265197 -0.39158698188364177
P 4.0873111641289075 3.468524363728422 12.909073839414328 0.15906695349990668 -0.8082231934264273 -0.18697165032997476
Ni 2.779019334771072 8.115461952019418 11.258273890625967 0.5532021557266988 0.30256793424075634 -1.2394041355526075
P 7.413488061683469 4.782365066452528 2.4718629679296025 0.6040873726123402 -1.5033574427449592 0.5018795941933227
P 8.814040263131234 2.411431780062878 7.235814608833362 -0.4857166112802151 0.9700929064824518 -0.5618135515447937
P 8.073877609163405 6.4245187110701645 9.54185736401749 0.509588018581174 0.04174083138221198 0.15969173156809918
Ni 4.49963938601257 0.34272528926708373 9.676391317131152 -0.446158903592251 0.10266954854678446 -0.20815779748928667
Ni 4.302290898097086 2.4553810656305526 3.677686522668148 0.2111744728284234 -0.7859124457443691 1.401793725667844
Ni 6.26148489775306 0.9702430532661062 7.725909876850278 0.39211302959044086 1.6024233331008855 1.5319223988668456
Ni 4.038926460712904 1.5903457556423413 11.679789500849402 0.07539657176344434 0.7622852932437323 0.7999943777587318
Ni 0.36177734136911766 5.010945521540686 13.259705583069968 -0.854775844374986 -0.05934671738943328 -1.0439786980283245
Ni 7.552743618319905 1.0440623934721127 5.932467994313062 0.3947196139753525 0.46023260807649774 -1.0274246503243856
Ni 2.7675350993463534 4.978958981207093 5.50650868434075 1.0483904539427749 -1.6542901971735058 1.6392057920365575
Ni 4.32478085913716 3.954754744823557 1.838102491340733 -2.3104128411155305 0.6135307774134272 0.04408619168593698
Ni 6.28499629319389 2.816554748470935 2.10094792962399 -0.16134109424606408 0.4698829866820682 1.4467571777524115
Ni 5.116263690159203 8.93820435654929 0.3469794255145578 -1.055742266322156 -1.3582045282229835 0.47603049434070277
Ni 6.64630800771005 8.678088264601747 9.532698502224044 0.6886833514868655 -1.4182120191248673 0.9780242455143865
Ni 1.155748423399849 1.058601729987382 10.802321217718292 -0.5273857088842272 0.1625417994223846 -0.8781068057914427
Ni 5.6758349016509815 9.073521409370198 11.675156237599126 0.446456894448644 -0.5796261542461825 -0.1424576270779998
Ni 6.437604113933906 8.341143741916241 4.439906638425281 -1.2848316717577875 -0.6413796813048954 0.2727061136843174
Ni 0.3123767248193888 1.0490315338001162 4.195390886474154 0.8522091120890742 -1.1917345973907862 -0.4807034743363398
Ni 0.865131011950084 6.26515654032875 5.088482514880976 -0.32128685080649827 2.4302442461535825 3.230691395179017
Ni 6.632946541494752 1.8210611006491966 13.392664134657418 -0.7755586133138708 -0.3333478957360904 -0.08029529461664235
Ni 0.5527984572669442 4.468168163935215 6.631819282809232 0.4916610017891081 -0.5376639508817838 -0.9267736748695266
Ni 0.9108553848682622 4.2190393933795916 4.336820902109679 -0.9420465418681969 -2.3038714404525873 -0.6352982509975059
Ni 8.146638706521781 9.164042582345328 13.944726422986882 -0.5483803088580232 -0.4190180815114009 -1.2213665613246063
Ni 2.509139802290175 1.2747685363672494 2.7718002781278894 0.022712868216483464 -0.47257596013319897 1.5207548122858001
Ni 2.1769159629162718 0.6259064742371087 12.755670956221831 0.05360930068502381 -0.6636233231944443 1.818292640301817
Ni 0.5153246977155954 7.9315025366543885 10.208116938562675 -0.011144703762909838 -0.27395721248259913 -0.49464373856651594
Ni 0.4370377322702451 4.027681480192866 1.9682589999098923 -0.10464415577465203 0.024631425395435 -0.06937941903508696
Ni 5.485213157401739 3.2245027651765796 7.82904990562502 -0.749532107343122 0.7899997284398652 -0.6085042707331132
P 9.351461991716523 1.8589461945943635 13.1361074195226 -0.16666122090739685 -0.4838813578436893 -0.3963741188596399
Ni 1.4631725716923276 6.303428122966095 1.440749786067798 0.6499864491373 2.3877734785838816 -0.26825939076687344
P 2.444246510451138 3.626285367030812 3.004853879722422 0.3413792506809991 -0.6830382373859463 -0.7640053612586326
Ni 8.166230002370522 2.8461211334225553 4.061126555233845 -0.4742296936865381 0.8866230707925697 -0.5052212569720461
P 6.288575914652396 2.132672209773604 9.605979518894516 -0.059232303298756055 0.22177693093461803 1.0639170888234646
P 6.514386534113278 1.325113289579299 4.036641576373195 -0.19571931461561776 0.9991286315931696 0.0736353660979635
P 3.846666740577764 2.8900060042082005 6.144498451475452 0.22536644805808928 0.6457909229987137 -0.33423724031957924
Ni 8.254993572007411 3.2152362386760247 10.678749740294911 1.3566258708819539 -0.8451267513209962 1.2639800251197586
Ni 0.07617324038360512 4.516368825116848 8.806316930765876 -0.23003120052361029 0.2908876696893506 1.0851497729499955
Ni 5.079427636949947 4.729130850160861 3.809418432763519 0.4966281159863964 1.4870615337984132 0.5678494733262285
Ni 6.13652942272721 6.065709970941443 8.320302799296126 1.5361675472964447 2.4226877739625627 -1.0795432253964956
Ni 4.23763686116273 6.581598758105383 1.791502077386951 -1.2892691387038506 0.550808972904174 1.641244419733141
Ni 7.7175258328635294 8.105864149496998 7.5556450441447565 -1.2285255409668905 -1.0895029077123688 -0.42868234407404243
Ni 0.5049760028769423 6.87225665884671 7.726650646843619 0.5616744548637682 -0.21010283703079946 0.1702967607774551
Ni 5.014239877535917 0.9333425852748215 5.702363669524316 0.8964487986337399 0.46084761595267737 -1.02823326226861
Ni 4.9242708312639 5.460753944453899 6.138976264233166 1.2263143922481847 -2.284242867588382 1.7211440215732616
Ni 2.6539534344046007 4.243342170428216 7.884538639287725 -0.1724526307781933 -0.17555338119070413 -1.689531279763987
Ni 7.417490980281027 4.0599440838780145 0.35217677821318066 0.8533090300214723 0.3858490509586 0.29996572073121885
Ni 8.349775322708217 1.9654514356245703 1.8028961321168286 1.539501239655368 -0.8204364476631676 -0.5886103600226636
Ni 3.577716621380438 1.1879650165264044 7.547981525505569 -0.3366671899173105 0.3613158417039261 -0.632709407224407
Ni 5.238338904217154 8.339579382924091 7.27585575755418 -1.084824528400093 -2.4288586786599655 -0.37263126671674535
Ni 6.291879472759347 0.3210037045555058 2.2279269490167426 -0.14928184908868483 0.6479745609135938 -0.7503592312301077
Ni 7.605996238835008 5.621017922143729 11.699600727168214 1.5519991150120624 -1.0656201875575004 0.16004962912815016
Ni 3.0416291989943347 0.2098937268213492 4.880196396976853 -1.9288989271971746 0.011508000639599536 1.6882387862048087
Ni 5.547677091747086 6.346724058601755 11.453065111694873 -2.1689399465483032 0.7460022398129926 -1.3969649368206327
Ni 8.218111508239565 8.471289207951338 2.7482447125508096 0.6504379348524217 -0.6494110362498041 0.9475114216375102
Ni 6.453726213664762 6.610143708656247 2.5036341788489818 -0.3946949313850041 1.1262246886134346 0.3335756954761803
Ni 7.913843684266539 7.985748985235092 11.626347316832899 -0.6082756996620751 -2.446942789855186 0.6199361667191389
Ni 1.61486938337221 8.000591991437073 3.5125923565372656 -0.20025602614370672 0.8023050281697796 0.7130802922739913
Ni 6.602515158041591 4.379137733058487 9.753658688598088 0.06249657587232462 0.483473066661677 -1.57925435118359
Ni 4.361000370861274 5.1100246584140425 9.120422732377175 -0.8417303240449374 -0.1917302480608827 1.3327259243359046
Ni 0.9227509546867994 -0.03183286506789306 1.7186664429236551 0.7495274793574317 0.2693325692263942 -1.816193334570627
P 1.8062272965589345 7.9888132884373615 6.2530115932826416 -0.5856404787610624 0.9238305330808024 -0.8810419771603665
Ni 3.3848863703187493 5.135155625517334 11.44126708426055 0.06513992703244266 -0.5422973358887371 -0.9110899455856823
P 6.620624913903647 6.686254374680167 6.096618943992796 0.5106249444861206 1.3945627551370434 0.1977106340140337
Ni 2.506443583556647 4.754629901732893 0.28359620020853044 1.487419431358464 -1.3734097752085122 0.3557941405547485
P 6.437217625241728 7.092840478851469 13.250264216446762 0.45163355355357704 0.9836477623487513 0.40307055704320904
P 2.1813237744294454 3.85480140733694 9.89799749174784 -1.5728556467460977 1.415572010398859 0.3450495004437348
P 4.63594106478736 7.428459897449508 9.355591899455797 -0.8936321551205513 -0.9003640745277461 0.10369490448750526
Ni 9.108857518369334 6.131891558421073 3.138175914722754 -1.0301142813414066 0.41893760598245267 -0.9061634548183427
