# total energy = -340860.02878453356 ev
CRYSTAL
PRIMVEC
9.32924987609770 0.00000000000000 0.00000000000000
0.00000000000000 9.32924987609770 0.00000000000000
0.00000000000000 0.00000000000000 13.65430020869655
PRIMCOORD
 96 1
Ni 3.9341819230352155 2.993261784237474 11.782828399826874 -0.05934260362437521 2.2777433759069674 0.8493477313808792
Ni 1.4188016263471974 4.632047118932637 9.680379354152327 1.211862735599229 -1.738185036215948 -0.6096376130066081
Ni 5.258478249740136 1.6892006001706676 10.217840229175177 -0.7661859138497191 0.1277249488535155 -1.6045771462190945
Ni 7.953204043004968 3.99616545816091 7.327075179888329 -1.6179057450072005 1.519564648632441 0.9168918969794403
Ni 4.018863522724549 8.023285366885796 9.371205219726372 0.4386078307178704 -0.7760445518113539 -0.9415636886945075
Ni 3.85442616719693 3.1057258895866986 9.208582403268883 -0.3790533681930053 1.6311232721387392 -0.35747409936033275
Ni 2.5932048978346987 8.52794180112561 11.091456361733108 -1.663128364290426 -0.5831081992575118 0.45618723436253045
Ni 4.740061172166426 7.499989091709627 7.196689585831027 0.09274663300611768 0.8717865200003696 -1.2489652968784812
Ni 1.5250244636351507 3.882665806092999 4.970752060415618 -0.40584811978834623 0.8807730397696961 0.325533027677362
Ni 1.6893312096667181 8.34158070876094 1.7351611489058778 0.06948483426469969 1.8379674930229248 2.1137854128633466
Ni 8.78207989269079 4.0365517801896775 10.959829044538356 -0.7942549041717935 -1.0346106265498634 -0.14964334619316166
Ni 1.7912532628347217 4.707091603663384 12.509373575207048 1.1276123129895808 0.05682935028421826 -0.3537231169583327
Ni 0.6278575730893652 8.647449490011846 13.368010664417927 0.3515153106737366 -1.5676684461182033 -0.1272554654162647
Ni 2.066783324003034 6.747295895220136 9.104263665848352 0.19334515795648638 0.5788442817748353 1.0184098484202848
Ni 0.09498948770263564 8.547057433797578 10.08576230921905 0.2280861609820975 -1.9160758072905775 0.43951028792748176
Ni 0.9404536763118465 6.474993754454215 0.8602211958129773 -0.35923016281949094 -1.1811403668147078 -0.4228641947303685
Ni 2.0378719791272775 3.006863830326165 7.510274589523606 -0.4844541996280238 -0.32235540128032864 -0.3638337230297734
Ni 8.712502348294729 2.2203707621087405 6.5790923215814034 1.6874070343321328 -1.5704827756385469 0.32177844573093617
Ni 6.0301378109061075 5.658525806893193 0.3381610462244291 1.3699642398620728 0.14634307817533507 -1.9948186698184354
Ni 3.4288537828157115 2.69668493570559 0.7683299519416547 -0.5130484663259486 0.3255862495128006 -0.26024474799251307
Ni 3.0107354689590915 4.835835249770336 2.9687454489038174 2.459154758540346 -0.4734935868514619 -1.0761907639844948
Ni 7.279520262376331 9.045174063985149 6.591258596138511 -0.18430335946919227 -0.7545573284718553 0.7231988687652319
Ni 1.0862325324036746 1.5941075577961634 4.1599049858096295 -0.13058530112044608 0.5387908653973753 -0.7736842791092933
Ni 6.388408987822431 5.892400768071105 7.7136009225002695 0.14118210279968588 0.43264492826621614 -0.588373047200877
P 1.544643875791884 8.5460778625772 7.950557334860001 0.7849156290487386 1.2791004257009648 2.026784681202071
P 5.252022408935352 3.6619544162670374 13.493179342032983 -0.23500499958911786 -0.4694793234857463 0.12907786333698415
P 4.372236843538977 8.122651205631096 4.905689872883019 0.03511509853557823 -0.17301313126735363 0.15728080813376139
P 2.756625365143066 1.614435992931457 10.822998804775931 -0.4259613455984535 -1.38001596767112 -0.9777018291779613
P 8.06532296611463 1.5494204516474461 1.2691781864466247 -0.9969596489663088 0.9498416124325835 0.25304977290597064
P 5.594163313089435 9.05185380678316 10.270300466188845 1.0373213406128072 -1.9515999683391163 0.49141751831973435
P 2.9150173668534882 0.8571994518293512 2.023390184790189 -0.9361589727391684 0.15873450986115242 -2.3385383957071535
P 7.656533901975906 7.653688480811948 8.570230357171857 -0.007060249280891067 0.22639874597734558 -0.5012190777911883
Ni 1.0483557785490207 3.7137877276996623 2.671859802206271 -0.9996703630292526 -2.3330143805651304 0.048096855507226845
Ni 9.319939126676593 0.3540245024447379 2.486734835429221 -2.677627821912711 -2.6103127416058207 2.2533358935968804
Ni 8.327241651944535 7.099521718319264 5.5932107966932385 2.677615737727853 -0.9919197725495562 0.8160635154064527
Ni 4.400551116432789 3.4019109096304305 4.495568591884578 -2.9944517518518494 1.2080143083874164 0.18261311625096294
Ni 8.13579611848361 3.7321850081433516 1.961699588105636 -1.0857748081285041 -0.3646531336072752 0.30837348517893987
Ni 3.93393936254255 5.523018454740767 8.300804424093963 0.5316907640174843 -0.5642977514192281 0.7527048486441488
Ni 6.782541800654343 2.071774472602108 8.37487866685405 0.21742431039287716 1.1294347109103 -1.1857143593386352
Ni 8.089662978628619 3.0189825257097107 4.37217527049084 0.4793994108129356 -0.20031516151641632 -0.5968587160743849
Ni 3.7195345455258857 5.570737567047802 0.5661277935559973 -0.6057033109492085 0.4837576877816314 -0.27485349904462336
Ni 1.502596947313331 0.4902949872240873 6.265862762303077 -2.484362368154225 1.9756282129329137 1.014985139009452
Ni 7.837959821239811 6.351194610697748 1.6746861534595667 0.4199691325707606 -0.059779948272109945 1.0900736926141745
Ni 8.982136323641331 0.5473200261247209 8.356185649194304 -0.0519455398293557 0.679074881862824 -1.1472488562735854
Ni 0.3523471033454604 6.211768973663807 11.001528924927403 0.47769836896142887 1.2535104930470025 0.5164736899574137
Ni 3.2819460875080186 7.36138442865086 3.013572493798303 -0.3824935042228058 -0.8456805669419372 1.1739052825188492
Ni 2.267782009175083 7.612061368570699 6.1806596575545125 1.3175052507314082 -0.8318847987094254 -1.191682146886296
Ni 0.4497146168011874 1.4983428094419706 10.686756307745737 1.4573421523571093 0.49442905145254856 -0.030945540538920898
Ni 0.2274965531457862 6.905342714690996 7.7208376215064405 -1.3525838396020964 0.47313646062235937 -1.1340603826077693
Ni 6.246930915850552 3.8275019525110854 5.603683812426548 0.8130087877405288 1.0666005491928987 0.21302952375929116
Ni 8.516895969459622 6.838060165725537 13.02383971552523 -1.5314259188464012 -1.231227513279086 -1.0075261116282452
Ni 4.7440447617959665 7.090248444099675 11.552220541900171 -3.453502423805104 -2.3173651040636476 -0.8136777887830954
Ni 8.279802417129039 1.5521445925650714 12.771194303914916 0.4717382947232521 0.12873359262368794 0.2281985181902457
Ni 0.7493216056414436 8.485167191169062 4.517401834999368 -0.3484572405737031 -0.4886821216664423 -0.4472935314173265
Ni 3.1051847931030605 8.509572508431075 0.09996944120204801 0.7118356212336127 -0.24371718265113512 -1.2209682974449232
Ni 1.9296153654008232 5.485636151121162 6.9697695803178075 -0.10488635369244517 -1.7967956467703057 -0.4019742386552367
P 1.8916546482987082 4.628697918283913 1.0935224081332378 0.36466496068181714 -1.647622298235027 -1.1239677742584577
P 0.5799360160634538 2.9326869658191814 12.393530415610002 1.7613290784325797 -1.7342977853464003 0.43657897321329975
P 6.865702732639659 5.3940322481411505 3.5314932552870215 1.6849997104422203 -1.543590322123077 1.267714038240894
P 2.1392902528105147 6.858883051095878 12.590466212529908 -0.015339715680863904 1.2218635555656827 -1.031261250461656
P 5.130751491852434 8.388880004830666 0.578977902117426 1.862432568043825 -0.22003989363885332 -0.11333808400422415
P 2.4198301210773363 5.903997025470448 4.557573584284624 -0.3541365503466675 1.1647773520756521 2.2310454576297962
P 7.293682063448095 5.194740815667476 12.067110230155544 -0.8335542159920483 0.290984343168215 -0.04286466057401005
P 9.236563621947765 4.932057131360706 5.9852118759646125 -0.006729862524665829 1.0982737119264634 -0.003244217968910542
Ni 4.330124610312399 5.620984906028385 5.844313150400215 -0.16403355347656265 -0.4844878810794366 -0.5329138377913081
Ni 3.6700428757724524 0.3431456643487005 6.249545904546478 0.8208295693365283 -0.28887269614185085 0.36508379338679064
Ni 6.45108288742725 4.523230750223109 9.722216374512229 -1.6477775928659686 -1.7318948323318621 -1.1398044841803983
Ni 5.980123703168472 1.5001153668883707 13.16107950935027 0.08716399671201762 0.028929795660472758 1.6951529968261385
Ni 0.9812878023270732 1.784377605792633 1.337461763906814 1.7781646619326796 1.8692177092864584 -2.145093736058325
Ni 0.09902718698054061 5.445399097087881 3.6579325767136535 -1.4206825921525468 0.6224710173258505 1.7418216045272712
Ni 6.2726050110742 3.0974788328360794 11.466512724741868 1.931942599119505 1.6349814695425646 2.2357598323863304
Ni 5.379581240328132 3.9134430009123347 2.05058867941774 0.3990511514711709 -1.1531137996947949 0.2556699841376371
Ni 6.319344552160854 8.230049528383503 12.241202426216212 1.8017966995293229 1.8348073501273885 1.3597237930809873
Ni 8.497369849800068 5.347441975049983 8.992407827580735 0.387890506868661 0.9836205086552415 0.7255411437451634
Ni 3.665648799155324 1.0379536651135677 3.8889220009538192 -0.329818028205961 0.7407669595559824 2.519586224353525
Ni 4.871790178183104 8.953672782752033 2.753758486704757 0.3761935301467069 -0.405745532772211 -1.3505009889311386
Ni 8.931329229677674 4.399179716724258 13.452912434400602 -1.0591908869923887 1.0444903475574205 0.9947824388093319
Ni 1.7249222973404879 0.9954496033988379 12.70740182726892 1.5738588911996314 2.8375360403669907 -0.42579268123107317
Ni 7.553781545583009 1.1543640430934623 10.35872589378997 -0.5942343910776605 -1.1768684789122312 0.6033013863759352
Ni 6.815651307903153 6.587205970061056 10.40327959166772 0.6245083594708536 1.419357188472904 0.38872688672702727
Ni 6.3539000931159375 7.171440904394516 4.881685713358875 -2.601452205891397 -0.41221468543632234 -0.856513395891383
Ni 5.3067571170302426 6.160532734213127 2.473394941257603 -0.9416935294041524 2.248444112722218 0.19207117634006923
Ni 5.255819413570536 0.33617484895948924 7.909349105931088 0.45212797669149235 0.07982761095160446 1.548417054087759
Ni 4.299571317486293 0.5020078602449045 12.06762893643986 -0.46696092793926675 -0.6820707312663543 0.15118652231056542
Ni 2.9886904518757054 0.8128024853468603 8.83246157286731 -1.0025710816158153 -0.2348425058693246 -0.6143584155210452
Ni 7.742792144867563 8.729836094270578 0.4581874413949797 -1.3154265138255086 1.27300074056113 1.965869847994569
Ni 5.696104024756875 1.304163805813703 5.742506779928713 1.0336814298673747 1.1529651899320725 -0.7116906110153163
Ni 7.009932933278317 8.612884619807044 2.8620776064043207 2.0484968760681816 -0.5866668631430477 -0.021084845694757236
P 0.09337086287658085 7.389334860805674 2.819803977157623 -1.0777763633040598 0.7922769545098162 -0.7376826642037038
P 5.119668343187576 3.7900823318926085 7.389830243965694 0.3682580773497141 0.28423288337699437 1.0344085378413863
P 3.8927973712866324 5.15661217207044 10.549666714841155 -0.3691597632283771 -0.3716447344337599 -0.518421557712404
P 8.578767553588703 0.708974466461491 5.204076595860175 0.27930253595491256 -0.6245736654911501 -1.514541741496553
P 2.738209426199941 2.248918266245499 5.446891777042745 0.2240086484786142 -0.4085305517165158 1.4862531789645048
P 9.129183957694792 2.836353133232197 9.129497420485315 -0.34574781206234 0.13026288478402084 -2.0812401319374736
P 5.61262589828115 2.076653670204567 3.6047483899218773 2.150214345114342 -1.1132056506459473 -1.3092862052557257
P 8.401595772196158 8.835909663563045 11.97793379795213 -0.23680888556707605 0.10655448542348746 -1.6020893468002344
