# total energy = -381169.9391514889 ev
CRYSTAL
PRIMVEC
9.24848371399828 0.00000000000000 0.00000000000000

0.00000000000000 9.24848371399828 0.00000000000000

0.00000000000000 0.00000000000000 13.53609076649530

PRIMCOORD
 96 1
Ni 3.1927799768068845 0.037872540003314366 11.692894704847467 0.7485247491245303 -1.6116029427176242 -0.592867592637121
Ni 0.39831461297112175 9.051934745583377 3.6566126967112127 0.024154485759016468 0.1506206225047664 0.5621467665144964
Ni 5.6812694368048815 8.91783173458263 7.37488133363881 -0.19510662073228335 -0.2602187798505841 -1.3719866696087402
Ni 6.459307361180663 2.4039120782323535 3.059265169357838 -0.47445595076473124 0.11711811987194669 1.0138741653334602
Ni 2.147877060539617 1.0373006628160528 2.3884162440991292 0.20002591241077167 2.1813383202126557 1.1526939385485568
Ni 1.164439565728278 3.765520064065799 11.767139680827588 -1.211113259027714 0.9053779828025696 -0.8940967534617957
Ni 5.295690910485424 8.38949361669024 9.519377148604505 -0.6429853352291185 -1.5457225379747315 0.8468211083042836
Ni 6.574376993102821 4.989242409139924 9.67221388781788 -1.4076175314384725 -0.03215138792156398 -1.5333663304022236
Ni 2.786771550397727 1.018960920001261 0.11851931627410833 0.2262974445127909 0.8308995519780206 0.5787270394706807
Ni 2.598953347128543 0.5963163214411968 9.386074131428005 -0.20943769264297477 -0.28812244823938765 0.47374118408589383
Ni 2.905605315111423 8.460068794410702 4.053788821361356 1.53694222067894 0.28821449373256164 -0.01863972658837435
Ni 1.89891713273761 1.7943537780910965 7.29929625239703 -0.09975725999599594 -0.5850105584865473 1.1942270247953368
Ni 7.447424588651752 5.130198546426985 6.262093623506262 -0.1805822018638632 -0.12649647576305312 1.2018166642171366
Ni 0.3815415632641594 0.11102249553499072 1.2347428380333318 -1.1242146001619413 0.45679889980460037 -0.7226771919338071
Ni 5.331538032598451 2.238179253602465 5.34431943681935 0.3460247198728105 -0.5071457276882685 0.33090123396781074
Ni 2.8098187713228207 2.2640287650332986 11.426883347984624 -0.10383194428600183 -0.7918154414923654 -0.8837231235369554
Ni 6.586982676136891 8.64145005315185 1.2190037687836026 -0.5752210831999512 -0.7713998539504908 -1.1379494332495304
Ni 2.966691548743143 5.850868127544999 2.0392665695059367 0.1879388993392505 -0.1504748409555215 0.7702510850580283
Ni 2.000955651383902 7.158492715088005 13.473838181838488 -0.08394806087788123 0.9560955637620953 -0.805520964003916
Ni 7.689771850738895 7.4798682688304154 3.4709651125235372 0.27770510956080563 0.19798831315545257 -0.16677280678459663
Ni 0.7655099286032564 2.295806554398717 0.06740849696414093 0.0668229711618204 0.41242937255028966 0.8181088279712556
Ni 7.263139306086174 0.2572299217631705 8.96136527134688 1.4142203814669707 1.0793377942539089 -0.4256813524641895
Ni 7.223370826961815 1.3246695426653774 6.817113616346042 0.6347830019239842 0.8210655966067342 0.42347508884149
Ni 8.99894093502929 7.015150469053483 0.9411219833263172 2.1006126229268145 0.41753455498733894 1.0207603509303325
P 3.6742930226512214 3.1074164739422714 6.663303011818296 0.7418910458580965 -0.08363978560884305 -0.011982112062540655
Ni 7.430629342584348 1.478092635733749 0.16286486989117602 0.2980690179291383 1.0073785303067877 0.18973327223551195
P 4.923004770189072 9.082038559432165 5.294912188173268 -0.2031760280039791 0.7284614027157519 -0.8438450563950951
Ni 3.3298055085990965 9.070209749013548 6.9823756931649 -1.134267613522569 1.2059553689758586 1.2005162002381584
P 0.18510932244696884 1.2403696154052528 8.570497537303883 -1.220323978992705 -1.2130145898154852 -0.5624678972993409
P 4.464871890676452 5.84676180086332 3.8110864175071493 0.4886965198441454 -0.03474743078351435 0.16850367343277428
P 8.361914638841673 5.007887351910787 8.377513131141939 -0.06381735156627719 0.48311182666751634 0.6604294988474948
Ni 2.9045047455728654 5.071553912443831 7.756206482388665 2.112368992131794 0.18926893100458372 -0.4532700607157355
Ni 6.346512856203759 2.5006234703726853 11.710464048985266 -0.04455798911603293 3.309702423766597 0.035658886854190205
Ni 9.083518316794933 3.4305029971353806 7.028750364065662 -0.6505999143515828 -1.274704096405482 0.8887074641254243
Ni 6.225635176632741 6.936538359156493 5.3147566592563225 -0.951843987574593 0.23295763014178592 -1.3842978828759256
Ni 7.319841758530696 5.888398473658174 0.1859231889964906 -1.8174632024219861 -1.1907051276850074 -2.3255653804862533
Ni 0.021716364146955425 0.32828047153642137 6.208504210613659 0.3086663338290104 0.34341145061967954 -0.13139005640992857
Ni 4.274556596857599 1.318500804159343 3.362621902663506 -0.0003738383996509691 -2.183459223210401 2.0029821794658345
Ni 7.816494571892843 2.809892759190959 9.449571444712682 -0.08971118861390356 -0.0282970471724803 -1.5370432650331787
Ni 8.084561866641577 4.74727433487699 11.224099248687757 0.49563798415898513 -2.555154608376438 0.6564954539004114
Ni 0.7533213521758161 6.798550985078482 3.2682217065541463 -0.24120778596572004 -1.9968557548531225 0.8884092161587152
Ni 4.957066934983262 4.672102660848434 5.808769955422632 -0.4874683038639992 1.0648406290789985 -0.22466427978474213
Ni 4.950112075378258 4.459831467159527 1.9833354405867558 -1.004077748068329 -2.6759789734553783 -0.6658198166251308
Ni 6.137478631745905 6.298245020727007 2.0258248235619027 -0.3274762674466618 1.1591386657326361 0.6799068908458161
Ni 5.851543266841761 3.1784818212891497 7.661453919057296 2.0903876027646966 2.700784205424516 -0.310395143594659
Ni 0.07557490790991055 9.066066428397802 10.529643569251158 0.44019908646439027 0.44613293545032195 -0.03029119478437364
Ni 1.052560660619586 8.39567160367979 8.025426138183654 0.616641812238583 -0.14940911869516849 0.569467982766258
Ni 5.488105610062703 5.172639837287842 11.883685370719107 0.9027801401684065 -0.4347066958912513 0.8737269315561919
Ni 0.9670954244362825 5.656955173637918 6.9630195420115575 -2.189474833276862 0.7786256822749688 -1.1236394443847615
Ni 1.0996539386896416 5.377456753261811 9.336315440408265 -1.1419282153916204 0.5990426110995812 0.950916333554001
Ni 1.1219520324498347 4.081448261016523 2.5522707017266555 0.6068628784749484 -0.20952922391551654 0.796407688848738
Ni 2.6735053727614413 5.665907705682659 11.58507958339627 0.42032111659354066 -0.7576845612469274 1.3816223929262916
Ni 5.287117566264894 8.168445612143422 3.239511639171414 -0.19004231883549852 -0.17273005280929607 1.45855082795323
Ni 0.24460574176206573 6.095499765060913 12.157088115608968 0.8615247330630453 1.3551575138665435 0.640522989731555
Ni 8.500133225007614 2.1670954092885517 11.50250912255388 2.7716147550838333 -0.4644908691322194 0.7679275791311743
Ni 5.11210851266716 1.2088785290288704 10.297147791806637 -0.8783880844772872 -0.8575305243019877 1.2559203880400758
P 2.880024009702591 3.391113705835231 1.4705199774297897 0.8614159753993229 -0.7716991303584646 -0.14898205846007892
Ni 0.387384755150385 2.0354062524858185 4.214137178887476 -0.8329618338236879 1.31730856133957 0.2520490995555982
P 5.484110265183232 7.98243086316011 12.391587114583334 0.5447298565896296 -0.7497174838810508 -0.5002490005684352
Ni 2.3679817197676702 1.2489614565928178 5.146963272498781 0.31537485619743755 -0.4417692591649876 -0.7595660945403564
P 7.497708593535274 3.070496527741238 5.460093803185526 -0.14758466389192004 -0.18573135016497044 -0.9557770040804121
P 5.020187834988786 3.2405021517561163 9.957567523108787 0.3620180099772733 1.9473530201373042 -0.2677693385043324
P 7.707491945158028 0.38202525895211376 2.623131657587802 1.433015659796603 1.2336677472894624 -0.7505631197107978
Ni 1.893959945572341 4.846408829698853 0.11344467336816974 0.9495528775475711 -0.5412650379694808 0.5743384234846819
Ni 7.046826525100211 0.2286308361826457 11.244186954887319 -0.24631991038130482 -0.8721662719372915 -0.09985933279149899
Ni 5.597894357896486 6.449550211069918 7.706041782942517 -0.02253134833329668 -0.42753846027758624 0.7224586481650976
Ni 4.273095336461867 3.3774999380977753 12.703269332751272 -0.03979322073753792 0.16260916232521028 1.7161139153485219
Ni 2.1252460213728015 7.54698451371541 10.619306692102962 -0.5904633540710025 0.42268138929560106 -1.6489348463988633
Ni 1.8056831703997804 3.5725504554774825 5.8555913280772804 0.1632496241226866 0.15121017645964924 -0.31943668497163696
Ni 4.15016449355001 8.782295208636704 1.320078595447393 0.39847265325988146 -0.2390711992386915 -0.7405584430896021
Ni 4.4964739588550415 6.233311417952094 10.172655804877062 -0.0199144795357399 0.2573463433987955 -0.6504595321189766
Ni 7.716342743884077 7.526665595427917 6.858533874626589 0.4103344376944739 1.6631309353935875 2.1600261889984407
Ni 4.405829571902054 1.7794267256941858 8.28143433527419 -2.239212309711305 -1.6084574551101072 -0.8509032487934571
Ni 2.9739516083042177 4.1545112808031375 9.907944784796753 2.203426667471263 -0.39525980274953865 0.4919551359907592
Ni 1.5943368250626033 7.733646656544932 5.654633804275077 -1.4001255939368016 -0.49212945678509445 0.5789466116806545
Ni 8.986409239863358 4.298389938881662 0.7034045120879312 -1.6557567544167031 0.6056968831913052 -0.9593654927626186
Ni 7.066081867783215 0.44566499888295785 4.579570658409566 -0.30830792204832713 -0.1276529579649995 1.326092478179787
Ni 2.2983776328165244 5.341618879632301 4.4913290274743725 1.2416474230608292 1.4972870681811634 0.029472555537820213
Ni 4.269997094483574 6.646709382691569 0.01825003252467405 0.6468666725613956 -0.4384319672616385 -0.05177173325565277
Ni 7.213965119224728 6.823096460333378 11.409164178413844 -0.703726361862917 1.8807347087871222 -0.29534313435754295
Ni 0.07408497721527467 4.5669936456744 4.694992657553734 -1.4708592130069378 0.42777680154063746 -0.7005996433084773
Ni 5.390830060427816 0.8180376155880731 12.736973581233341 -2.58410702974473 -0.8639724232725896 1.434125090810698
Ni 8.277170784372718 8.600654992357072 12.99759769644736 0.6542825054094925 -0.42343189430838046 -1.2866178171239326
Ni 8.445844626761106 2.459504712654801 2.0762605035751083 1.4334370636047378 -0.49979648641204893 0.10037920985071098
Ni 6.651953272845874 4.728148470963228 3.913486551858967 0.3442786837159813 -0.11360033652667531 -0.022444445046445216
Ni 2.1436320066051797 8.035304443428474 2.0307385428546407 -0.4989619063258956 0.17193378216024582 -1.1189322687170795
Ni 3.461235707863345 3.240511400239633 4.125069658374187 -0.30858560118974593 1.2231190252393387 -0.6175141875412076
Ni 4.972437914589003 1.7764764594521694 1.426690489192987 0.14958472504108433 1.3761557133847653 -2.6369735387264583
P 3.352159093260393 7.136194621327812 8.62981268634204 -0.46210514250886225 0.8541019582364129 -0.8747898256030676
Ni 4.011992149801654 7.250061950392722 6.041292553469356 -0.6231783278055203 -2.880573993294071 -0.7031519774166858
P 8.79877600626452 6.7862227565499325 5.339500052058488 1.6221282677289806 -0.35992513200398657 -1.496374583669223
Ni 8.40421720244977 7.479146887116067 9.11816776029247 -0.5658743518777287 -2.233709891835837 0.4042362952165361
P 1.0192291260232624 0.7260984409426644 12.227461676388753 0.3587668500298273 -0.6591272350963036 0.12865208865347522
P 6.407571344384927 3.681488342827675 0.32480396658227095 -0.26456034464873146 -0.2783609979772496 -0.25315724501811243
P 8.260791720063592 5.549053116441662 2.4185607512753937 0.005254306420403854 -0.9048542490886158 0.2976069906910552
Ni 1.2522169227909048 2.8172915460047934 9.495946115613444 -1.0881525643320615 -0.14986163285155482 0.19764558510405317
