# total energy = -340889.531140794 ev
CRYSTAL
PRIMVEC
9.11024929176495 0.00000000000000 0.00000000000000

0.00000000000000 9.11024929176495 0.00000000000000

0.00000000000000 0.00000000000000 13.33377071661252

PRIMCOORD
 96 1
Ni 6.733540058725623 1.8970545218803148 11.536005191979486 -1.0039543351165872 -0.0036018584186454095 -0.22277786139530664
Ni 4.827566602877488 0.445151373635693 6.132414841593672 -0.034869301073359296 0.7707172260611694 -0.38349160647001695
Ni 2.7314440257052333 1.4416058335726853 4.849305479521012 0.23530401888677538 1.244566139369521 -0.11188412516651698
Ni 3.226057675328137 4.231574100145404 4.910627477918138 0.288353076192955 -0.31156936640841826 -0.5044139305794023
Ni 5.524418674514296 4.32274947414942 3.047219839412027 -0.7328639026588217 0.21044942173694078 -1.4681454136202008
Ni 7.163033647059487 6.208388853780831 2.6015655800204365 1.3598978567650062 -1.540265114404586 -0.07787048722523364
Ni 5.086397892928257 4.794687713510933 11.685329464583903 0.15142769178709406 0.05105131014986046 -0.9595035610023798
Ni 5.599851537898913 7.65028621532795 12.397406584685488 -0.2589008323701089 1.1948803421086196 0.6337995549647923
Ni 1.6923381120837286 6.670615567494035 0.4427234922236156 0.37857848543911576 -0.3509915769597826 0.2122687343338667
Ni 3.0428778946428108 1.807610095224497 0.22373678807851913 -0.16963778703721752 -0.8491849805507699 0.9268294678081263
Ni 0.567773505831861 0.25528102593712265 4.792277141572338 -0.5568068423588217 -0.42925235764489944 -0.20505704707677588
Ni 8.593051243648448 2.193292495150556 1.2034074359124343 0.24871823541015228 -0.22549268922330842 0.8690441813685421
Ni 7.142298719877918 0.7439557041058676 4.743435273555718 -0.3173029264580858 0.19718330075565393 -0.5764788668664523
Ni 0.9397950870809598 7.4480204625664435 2.7032487154529323 -0.6463647932243126 -0.15137369862070704 0.10388670878333722
Ni 7.601072649143927 3.5828150340408915 3.900688027113765 -0.09635723317551148 0.5500078171591172 -0.7907525474454897
Ni 7.575008226179751 3.7424083795447234 12.660975204320799 0.4457701527942646 1.173166604580612 0.5648489959370078
Ni 8.040860819074968 8.748863835733848 7.134327251827007 -0.04972616358053371 -0.24006158817641884 -0.18520401690659072
Ni 6.920764790056211 0.7138235548734254 0.4592868362960278 -0.6064802983245491 -1.2056812893788655 -0.9385588404299127
Ni 2.057704656291467 6.60473935552131 9.224929017983433 -1.0432580178122162 -0.10318222651714487 -0.4674047003449047
Ni 0.15736406752433688 4.679789250587408 1.5330900450246165 -1.4401000774472101 0.10963955210671442 -0.8912631406677425
Ni 6.851645329367915 1.9065200708001961 6.899306509088079 -1.968526568891126 -0.525064002729586 0.955227302224529
Ni 3.6095718359443487 4.452616076510256 0.6642993291916479 -0.522838712943493 0.5098566988615284 -0.546098197692066
Ni 6.003426467255816 5.785372652628907 4.672446389731368 0.6407289350947739 0.3758675142658559 2.144106175334075
Ni 5.593355930218571 3.0343233706430337 9.407708858728833 0.4339500202308849 0.34083854768618077 0.6065276066227168
P 0.2351382649536216 5.463006484650081 12.683549490816056 -0.579707143995763 0.9428754655273955 -0.8880685449898447
P 3.9273282178274482 6.294052527018217 12.787553006720058 -0.9685651569840158 0.2582148620466779 -0.361735445739848
P 2.46276455626814 8.681256676412925 1.5360772957376376 -0.841443388932138 0.013234239302086885 -1.5977984327343644
P 6.524049878347691 8.01978881267296 5.624011007755153 -0.39632501078925936 -1.5298449475125266 0.791706683828643
P 4.9382925716669375 1.1297620034210611 12.65222845406288 0.3045883071048948 -0.9502550458209182 0.16288889834915818
P 4.039885346706306 6.302789256002015 8.258284204457166 -0.16294571972902258 -0.0891044082678401 -0.4019729531036561
P 4.5691088330439635 0.9504449683969765 3.8157385974137403 1.0136882745748994 0.25572320597307574 -0.7092971710824753
P 0.03045829615383948 5.43743401514276 3.583877289097733 0.34979704243104914 0.7614399145243015 1.1982220048873429
Ni 1.7839234473017909 1.4726353423514302 2.5078958197851757 -0.35981328901647064 -1.7219307791406153 -0.25703241170280255
Ni 1.9019467257012737 6.112284834959052 4.948802155145259 -0.3995759136263893 1.4529378526418266 -0.40313791994603476
Ni 5.892299647501522 5.681306276005418 9.390481377489666 -0.18479675416584304 0.33940721455629286 -0.45339655899127074
Ni 8.74791636981694 2.4428677720130674 10.303564302888255 0.25925872993015997 0.8371799856700937 -0.05247441574963221
Ni 2.3899736651518246 5.028502259255644 7.215943241344371 -0.6782413302179351 0.3983384416748624 -0.4943732585139486
Ni 0.3606665666449217 9.348300012663927 9.36023990526681 0.3528368576986375 -1.0289472576164989 1.2479419978202895
Ni 1.7614757932704266 1.3629115009740957 11.525390840635351 -1.0238171354787853 0.26617139788959315 -0.2021912954932066
Ni 3.8333195563219085 6.819604582927854 1.6896952287905065 0.43274494417919024 0.7029830559389894 -0.9639227731159978
Ni 5.720917639531543 7.988504216916587 7.851604502172548 0.252012847001024 0.2562757360424361 1.2992203363792914
Ni 5.1107404787934385 2.7427589552129263 5.042525665850805 0.7102829320345122 -0.15484083123370107 -0.5086683349803821
Ni 0.773730731569629 7.312560167196168 6.801423258597337 0.6856039412305934 0.23331089971614657 0.42591378018996967
Ni 4.877572760742002 4.996443292317181 6.665271495312704 0.1626256173854425 -0.9330088571459608 0.5212993934808313
Ni 8.301268182237516 7.144722046165396 9.314345202866727 -0.35263913986553463 0.27935884311414466 -0.7870383318186962
Ni 4.86985637966872 0.6525671502705477 10.39211410307253 0.10764000517818237 -1.4991395480088696 0.7902182722085745
Ni 8.49678324034105 7.23904045614377 4.777276205237904 -0.8225596646537575 -0.5404944783520433 -0.3012373883547909
Ni 7.0233553063091305 6.141228096670758 7.088458969149608 0.9972165021721212 0.2432394716837682 -0.800600386773847
Ni 2.1291472305260286 5.232180100643311 2.691954739518402 1.4468847044692115 -0.09440962253083741 -0.09748183369825793
Ni 2.258576540925214 5.486684022323585 11.507377144890135 0.17401329039709387 -0.6851213451672201 0.35377351058029394
Ni 0.905000312307425 3.334387648577712 3.701574420575819 0.5035729227353456 0.33686542197104563 0.5276284210226526
Ni 3.8336110842963422 2.8910009302122606 2.612965234845699 -0.48982806234542736 -1.0015441830131977 0.4062438125648681
Ni 1.2017056413616798 3.111222984149018 8.44871665453144 -0.2925131211079156 0.5130839475495745 -0.239450179844665
Ni 3.6375129702439404 2.917748621866516 7.007256584945971 -0.3438151138160014 -0.8592385081320298 0.5137663183285797
Ni 4.1999159841717875 7.275946075657186 6.109093514663928 -0.751371474544706 -0.6905067778488494 -1.2432893295396263
Ni 0.6531702487676565 7.44168883937172 11.330718480582913 -0.3197341616073977 -1.01158228397549 -0.2269106526167576
P 0.30887115583732466 5.590203783995011 8.053290843084868 -0.16636837225732637 -0.09831152868840488 1.256626670078481
P 8.665559717039532 1.5799267471920868 7.934659911063676 -0.6979256960207401 1.3225392136108902 0.9118731036086102
P 1.9573734818404054 3.3924290462375426 10.741538622203366 -0.06942518467135786 0.2222019342871786 -1.1771273890005727
P 4.010103942068104 6.129102354984173 3.694881120487814 -0.7925970568533963 -1.284229005176782 1.5938332774390294
P 7.106358786779812 4.202521515443285 10.605227429557713 -0.4095777620341075 -0.7136487631829516 -1.2735910658469614
P 6.32944584516426 7.766077482673177 10.149906284738899 -0.34916557949463733 0.7995459773674036 0.2740461726519796
P 2.3411062884374423 8.686321974968703 5.791056537105435 0.9751281549135141 -2.1935577450969834 1.3498335305504687
P 7.074618678563387 3.758424197640153 1.522943049464497 -0.465777706264443 1.06996689456197 1.1329594362341069
Ni 5.428004907219682 3.0088966651229287 0.41332016292725665 -0.3768663878440155 -1.0684823395966436 -0.4736589087847326
Ni 1.4796320137378296 0.842341840352507 7.336013592739327 0.2398687554393224 0.8924970130748435 -1.3684097508907593
Ni 6.968183637147628 0.796901739387556 9.314372533614332 0.400355214994575 -0.3887888503132143 -0.9417061278096427
Ni 3.0244934117551106 1.6872090417835426 9.48637768262966 -0.6693730811940278 0.2991789631638654 -1.4383836089767357
Ni 6.24908433696188 1.8298482135242373 2.5345232561499778 0.6518615546728257 0.28400945451227866 0.723712832287173
Ni 3.997732223653091 7.209350153997578 10.506917819404364 0.8827689871538021 -0.005752071992428803 0.024713443586280023
Ni 8.08542815816646 7.076103649183157 0.3901527992090101 0.7455872637627612 -0.3050143388987199 -0.036960122164116996
Ni 7.642159873040621 4.059180854514111 8.238483077818703 0.7359343140540293 -0.37905233975174074 0.04198560040316641
Ni 2.4451635548117294 8.420038501071485 12.304976729366489 2.623381658974637 -0.3326117889010143 0.7042464960324453
Ni 0.009098405877079378 5.072422770653861 10.281097517333565 0.7090480311861467 -0.6743018859542129 -0.015872705366198468
Ni 8.696698548808689 2.494158475014926 5.6475318491424 1.0981382147898635 -0.8291982530161977 0.5350152004050269
Ni 4.00892871992117 2.7529259933212873 11.5317643709764 -0.4271877618063869 0.2906292738216414 -0.6447403702470121
Ni 0.772365105214393 3.2892919150325604 12.935917970083608 2.1853592684465912 0.5646895875410081 -1.6696139720147698
Ni 3.3218246149294766 8.590545925118162 8.057371323702014 0.2692243257833041 -0.09484362474446247 0.35100109004147934
Ni 5.50563334066175 7.7095574966299205 3.4392857909532553 -0.2354929949691299 2.0536128571385084 0.586061625458881
Ni 2.9347483468756583 8.327013746479658 3.671506954112704 1.1260943336831573 -0.07485715432020656 0.5635762998721713
Ni 3.5422926455946624 4.232075163851462 9.245170169658307 -0.29788184161899667 0.6120858174367846 0.6951967271253511
Ni 7.299250093113447 6.220177516246977 11.60328711540393 0.7118579898311159 -0.7666510264115958 -0.5316516832494328
Ni 0.4125476137950084 8.924418337837903 0.10837643552050065 0.5934448052968296 0.39245832874500153 0.8983015355717626
Ni 4.716476224119999 0.18799728046283634 1.6169462448205159 -0.8324105893059084 -0.0023415036489830643 -0.5282138612124774
Ni 5.858573504959268 5.4246614457629 0.45232842795627287 1.027181681075644 1.4490454595659563 1.073939763166789
Ni 7.868267147961251 8.774208549011144 11.477869958752883 -0.516910006163884 -0.2357609039185359 -0.10290531870667438
Ni -0.017153688220639594 4.854642263502982 6.105906749493403 -0.25412295136549135 -0.17132674470386622 -1.1345344940307105
Ni 7.924650480266492 -0.5351670129164161 2.539629550827161 0.01032966406078221 1.1132280192434505 0.17808308959109329
P 8.722006821089181 1.4918761886640282 3.258787156607796 -0.6645201239771007 -0.053816274489507314 0.868648231481704
P 1.9651991859040994 3.332629370481911 1.467714896757948 -0.37350235646778907 0.11150797277402086 0.6092084958889895
P 4.843208900755676 1.5062521619032705 8.160414619340225 0.28873205679892855 -1.6694792462091181 -0.3007095408757789
P 8.78065860544548 1.47210694789777 12.342644876738033 -0.9115571150300882 0.015288293617638189 0.10770942496353708
P 6.286144830711713 7.730474628795511 1.3150826926686319 -0.6894271716314255 0.22480569045861282 -0.14088231217107994
P 1.6610352958289525 2.9614049360379036 6.034051480970035 0.23297691341549553 1.261883033381414 0.26422224458302235
P 6.781177551797865 3.829784779631905 5.972795987392077 0.3907775986084689 1.989552793433806 0.43082150190423224
P 2.349542379197606 8.688016481320098 10.07891740091455 -0.21777732285692175 0.2801234891943111 0.6669647288628513
