# total energy = -340885.4350198884 ev
CRYSTAL
PRIMVEC
9.07959785745331 0.00000000000000 0.00000000000000
0.00000000000000 9.07959785745331 0.00000000000000
0.00000000000000 0.00000000000000 13.28890924420442
PRIMCOORD
 96 1
Ni 6.613896728456001 2.1338325667236724 11.276077644325657 1.2093122012632336 -0.10574201682452111 -0.8255526858438105
Ni 5.05954224420162 0.31881191297270933 5.76797149665389 -1.0696092541122353 2.780190412567986 -1.0342283035097803
Ni 2.7980868526340315 1.876398733997468 4.624008471347119 1.4500106516927027 0.005615289304248394 1.1314594546498127
Ni 3.44278368516407 4.312055286454026 4.718213836968066 0.5931043912382753 1.522855917789203 -0.6361986513245882
Ni 3.897671528411093 2.967040006069972 2.53019513931198 -0.2263018153881651 0.7802938140060109 0.12287996205638839
Ni 5.181399524525338 4.849730901252474 3.047292753952044 0.5396897230625608 0.3150861213124251 -0.49484916970910264
Ni 5.673767946952476 3.1323704000357417 -0.1551721400930196 -0.8374836329534415 -1.3184694144168905 1.5062910714519866
Ni 6.0052095802836005 7.865038048534046 11.93778601104946 -0.15984959730220213 1.0419436698761668 0.3084971552409977
Ni 1.710596200952879 6.815854219420941 0.30477303905597186 0.9539468928502087 -0.5356484631136517 -0.6104004593145615
Ni 0.8885239801885784 -0.13218259879358918 13.403857751242771 -1.5309176117514152 2.5580033906791426 -0.6417892580384882
Ni 8.168142257538346 9.016158520683765 7.21319284875873 -0.9676817259377981 -0.3778966288807427 -0.9304087005189525
Ni -0.22093657397370853 2.142730572439882 1.0425312079005882 1.6543876419833186 1.3186560765064002 0.8641282321241635
Ni 7.672595975926847 0.8196325328704788 4.831409181114985 -2.432318869294424 0.9996737054633623 0.07381765731209868
Ni 1.0558391742049227 8.144144880897588 2.565676391085248 -0.2999346103829673 -1.0318315211428293 0.21228313251156988
Ni 7.681230673310638 4.391973905141856 3.64198461027652 0.027665070015436225 -1.5934771796511913 -0.7117055234136518
Ni 7.810742054469831 3.907559210273289 12.932168112508151 0.7136847586272096 0.31529875154386344 -1.2842984249621365
Ni 8.905986682560822 7.407898465064962 9.199938657114165 -1.1150635297902927 -0.24892778031779705 -0.41616929920869616
Ni 7.099173985103179 0.9587419567262068 13.400535526455464 -0.8901459963441638 -1.2962404278153612 -1.234500527603403
Ni 2.116490535174734 6.581300972822131 9.349517765042709 0.7966658276061312 0.4964885050847385 -1.2624463620840518
Ni -0.09821400799207693 5.263006948379714 1.364584537241345 0.6340162989612887 -1.1746696714886995 0.048383790620026346
Ni 6.805975617156415 2.2277156066273496 6.9182720811340435 -1.5200030217214404 -0.2858951015707657 0.5949787254428528
Ni 4.134367560059928 4.592596695249366 0.7325546514201677 -0.12978183138254423 0.0031179768036914044 -0.5446900044906297
Ni 5.957496294529846 6.067195993573969 4.960935997590215 0.3351949762471582 0.09943792898336423 -0.5688465471321752
Ni 5.7222529985081465 2.8987432723992317 9.041627700106764 -0.6578257426760606 -0.475441197496136 -0.026953902881024547
P 0.32491249464691446 5.54091527385087 12.379097131901128 0.34825206654143254 0.11161544488616262 -0.1094875999098824
P 4.186420893499752 6.195844812954549 12.556929223898171 -0.32124699870749834 0.6071708966336704 0.8599892702551253
P 2.6327746178636016 8.739475940898004 1.1574480437656636 1.0754551713700509 0.013530430386267021 0.48547441336242203
P 6.618527323267496 8.094125377335756 5.718762801163951 0.22203584102295953 -1.2025820816282515 0.34611059471839745
P 5.017903209288828 0.8948833303963671 12.40009370151208 1.227664478518176 1.0810393503260478 0.4599559573763433
P 3.9545733670064847 6.204624783901053 8.045584032274533 1.8169399829286645 1.6687166570114809 0.6707429649583609
P 4.834595211937248 1.5121252754930647 3.687207362389503 0.37741608969989837 -2.0787099093164523 -0.13570436751456627
P 0.30164511765879426 6.187073921605713 3.304154572025064 -0.243610996090574 -0.17511655076360164 -0.2928856739559859
Ni 0.8144508064804372 0.761835445944865 4.371639238201017 -0.44225211233867706 -0.3701306117820787 -0.18644585973349181
Ni 1.9657510546640138 6.424114977965994 4.854544903936896 1.4045630608828648 1.4939446340714917 -1.2783344940692178
Ni 6.382911763741344 5.88542244822855 9.310355644374184 -1.1582164110286828 1.086793993421638 -1.2946355452220863
Ni 9.17747573247957 2.787118698649153 10.088448109946471 -1.3580924281251514 -2.4974870784616408 0.7615738689990046
Ni 2.4884453333076193 5.265658190899238 6.961049697594603 -1.031412945548172 1.0390074700659784 -0.6888278474845299
Ni 0.8993840869611884 0.48733106164004275 8.971408815609367 -0.4108820826678278 -0.38706106898883014 0.7401614647614995
Ni 2.0197020240167847 1.4515189610484764 11.239719303417504 -1.3587208057377698 -0.7551121725340608 0.24007984300886395
Ni 4.469885932744704 6.927042972482878 1.4440255690917545 0.6348470223927002 1.5177823599210378 -0.5382010543321762
Ni 5.4700671732349715 8.003792460120893 7.811194218433776 2.224020946682847 -0.09019944110423175 0.20607726081117414
Ni 5.494763678896287 3.005519340993742 5.019314178766684 0.44629080118442493 0.5481411962640237 0.02755374124855255
Ni 1.0716376741500289 7.858555215797951 7.04617818942525 0.2817926493666179 -1.1342257045410402 -0.7746736396057562
Ni 5.436064079962315 4.812631665174482 7.199425454812314 0.9027120059346324 0.032184040931712316 -0.5517093732312564
Ni 1.123691007589853 7.704719592481896 11.372409451720824 0.5474495695136378 -0.8785384940122224 -0.32093460967340215
Ni 4.941226006969046 0.2983337883886906 10.199596004818895 -0.2386765349034341 -0.34824126790815507 -0.6596589392300575
Ni 8.445006429277496 7.798030617732388 4.786957286844151 1.8644709386300924 -1.929721165988154 -0.9769546665992916
Ni 7.695594596823947 6.433022063279873 6.843535188836254 -1.0499621693052692 0.3161672701917458 0.5966486569461079
Ni 2.544520928515077 5.6327281654858785 2.0672491531331856 -1.5943451840784413 -1.476556263391715 1.6969383708613355
Ni 2.340148264570022 5.247889418259828 11.325127446856376 1.432342030768346 1.263852241292643 1.8999223374591665
Ni 1.2192356138670672 3.698982692607209 3.53798599060914 -0.7416709594274904 0.05009434555322985 -0.09569131745673842
Ni 2.0253495337672764 1.5298304909487874 2.434687759385211 -0.9634355490669343 -1.288932067079406 -1.32692577271436
Ni 1.2022567662249128 3.568844819208814 8.050115659471432 0.13225523262370126 -0.27489232270235886 -0.5836581582237109
Ni 3.789996579647292 3.141359201728647 6.96263045554888 -0.09827039103782431 -1.461820242733121 -0.09455591830071457
Ni 4.15643098239706 7.267300895151186 5.872142628676992 -1.3166200199129776 -0.8804218270778644 -0.6431933374748664
Ni 8.264876291110276 7.27175897760696 0.05554988650238751 1.0233522800272248 1.038246680640554 0.13993846020057188
P 0.4337269329182508 5.829310534630415 7.725653512868929 0.8630334563980878 -0.50556501346471 1.3112595269320124
P 8.792373676921102 1.9498889975352205 7.814024329027392 -0.7403617536977636 0.1691652182761732 1.6623156385811437
P 2.1640403881704358 3.582890956803687 10.08268074950674 -0.19141040282761876 -2.5028771391289606 0.7779309702007893
P 3.817180895070078 6.570024112516487 3.5481914583897716 1.2942434519899904 -0.8088070909543554 1.3298606869729679
P 6.9136687251155555 4.191523627390069 10.404856653416036 1.4602621542173817 -0.7895243314653435 1.1156638823784528
P 6.7005070106263265 8.012336361527987 9.636585588642959 0.4627528033951901 -0.4925801711692678 1.4138198035944425
P 2.312219422138329 8.573491815900024 5.33364985008828 -0.183862929497664 0.7190840752659099 1.775761966028458
P 6.703575914638652 4.184105596094004 1.5446765410983523 -0.061135948079372136 0.8824293444261964 -0.2592846980720889
Ni 3.315623919801304 2.2463197022523627 0.2812786721261116 -0.4146572334395439 -0.0933295020927812 -1.3137768940372276
Ni 1.501556623805649 1.2375582419643225 6.769436592254638 1.1758806610776653 0.26434077243875764 -0.5305095992251896
Ni 7.261135848333526 0.9382220659929078 9.151898505844303 -0.31643775024431303 0.8955365712321157 -0.4079409977616329
Ni 3.088615818865933 1.6420452385473894 9.022371689369072 0.22227263962411398 0.6164574641419189 -0.4235380808689415
Ni 6.489179374866357 2.0128287685808965 2.160922454330695 -1.2448217070237528 1.4383434997674196 0.7838000273870566
Ni 4.332638734371011 6.66650391735367 10.535739053823338 -0.27568267981413813 1.287062875081151 -1.7115103551382396
Ni 7.777165702287645 6.393353301061385 11.208437365566427 0.09760010444367707 -0.8435416662220633 -0.4675980473026334
Ni 7.771727023283554 4.135320917815237 8.426856313535962 0.5531623036276989 -0.21856973685123002 -1.5095306614352064
Ni 3.4674983500207244 8.534286113162686 12.24101188666253 -0.69697798739549 -0.7638518663999038 0.37761072220920777
Ni 0.4747875974594887 4.987259567153925 9.947519134717755 -1.4950435235626254 1.58104615297669 0.05682472229852794
Ni 8.767631773271438 2.7003722225137827 5.843944122194512 1.3042607270166764 1.77424630071488 -1.9246208686471113
Ni 4.100092078857184 2.46589161269633 11.22441019378679 -0.036679614809220704 0.3023751015036599 -0.5248459731815089
Ni 1.115700961640604 3.4260681458543334 12.416292611714416 0.5046458440845502 0.21376588770468344 0.6542681072317894
Ni 3.249751438708347 8.32491967049935 7.9097450794993955 -1.1457473320273945 1.2208844794818652 0.4414990362227364
Ni 5.644822189581787 8.102415050008101 3.4841394366295693 0.32766575774964857 0.745942847329967 0.07923728566577322
Ni 3.2805221952106254 8.742626561289358 3.3993823003436088 0.6681672338113849 0.04061185998409135 0.2995216912152648
Ni 3.8797030046229524 4.360612974791053 9.170237477217363 0.015106259513819146 0.6196813703958554 0.10534992359242501
Ni 5.036153200604727 4.558139622093229 11.39008379654447 0.32910326152712355 0.5017703223089681 -0.08137875748880823
Ni 8.043379505960354 0.2157639271813367 2.2917122428417676 0.494386114029755 -1.4612417445218315 0.5263444121039065
Ni 4.584052793842271 0.6596055319035233 1.397488091236213 0.7524924755230266 -1.2790965690462228 -0.060335049444631576
Ni 6.384300942184793 5.913768952153046 0.005919897680580027 -1.119891290196239 -0.7877754670950369 0.7048489055031345
Ni 8.346447396573975 8.983608163038243 10.983907994794858 -0.5539539462910589 0.6182307539922579 1.0791614165770447
Ni 0.13614765909590407 5.270234308124716 5.2763748400286685 -0.06476171775741751 -1.0319317941661195 1.3831411435636631
Ni 7.2294571320642875 6.415761748109961 2.605941682870629 -0.3392069256200287 1.2840431144182207 -0.6048977843287776
P 8.364234328408724 2.1478333063301975 3.197537396389771 1.2154982754692873 0.8065203518027076 1.6367521882897427
P 1.8782872903127448 3.3649533739402475 1.4024718823970572 -0.22501909202099957 1.8095560317597674 -0.6535250584181777
P 4.805277191062106 1.259058729245938 7.711035360620871 0.353483747254017 0.0979880839107151 0.6748212487927927
P 8.955833673766934 1.6686484597193212 12.248547044768532 -0.516576276973549 -0.5635415899794939 -1.4111386572178535
P 6.644331539844503 8.125268397342488 1.1243520023002 -1.7768310307229207 -0.9922817838746653 0.7931608997766663
P 1.8623798351956034 3.5096640015983525 5.875412191797815 -0.8410644083261642 -1.3093157729420806 -0.7442587747593247
P 7.24875127711219 4.560899819784788 5.773778807323367 -1.1656479276060634 -1.8492034709480605 1.1585126021128627
P 2.617302983434601 8.682819251439692 10.063172325953834 0.6065484325583231 -0.027007381826779295 0.2688530584868144
