# total energy = -381181.4922291438 ev
CRYSTAL
PRIMVEC
9.10480925043424 0.00000000000000 0.00000000000000
0.00000000000000 9.10480925043424 0.00000000000000
0.00000000000000 0.00000000000000 13.32580866624250
PRIMCOORD
 96 1
Ni 4.697389612315141 0.4015630599785106 8.585791428472097 -0.3576322222047518 -1.2304744371631453 0.13651040835562941
Ni 2.9207681815403497 2.4078669615340136 11.689092826043673 0.9329486933319868 -0.30759418381075415 0.33429046215501784
Ni 1.2636473722943806 0.6042461293815788 2.233551746340267 -1.3971258878785293 0.454728647539133 -0.3705268187792329
Ni 4.784650104256644 3.7642377113255012 10.848500415984471 0.6288226705754911 0.23701714492314016 -0.11229935832706467
Ni -0.008832575462484626 1.5291071910596645 8.209391329843621 -1.1173312427785467 -0.7868640110243609 -0.014187090133659439
Ni 6.218885182833998 6.746445145747869 4.82460929113403 -1.221578420225096 -1.3432767032685573 -0.7966899959758472
Ni 3.9754237620958657 2.9046981931976164 4.276812068679427 0.02375776454123005 -0.07682893333459673 -0.038530551975030414
Ni 1.3518456595895962 8.955554121150515 5.795767397414928 -0.7226003159492845 0.917579152854452 -0.4650236017072379
Ni 0.8744304336715335 8.00693314922926 12.047330651161618 -0.24584579895836367 -0.42189128929413794 0.4961686598514746
Ni 4.2465012481741615 5.9704422525744185 9.41440373050786 -0.16753668153381468 -0.5063299166551924 0.11623288905351595
Ni 5.806728677282247 4.5533970538786965 3.219888480137409 -0.40646029945104833 -0.432318655275049 0.8388226634798392
Ni 7.50441141177857 2.0895901442553053 13.105093703117348 1.2557141855665406 1.0479273982634276 -0.3315725490032225
Ni 6.936772078505089 1.441609974077418 7.197256119010143 -0.3766655846871191 1.3086151473306302 -0.5032708181138946
Ni 5.196433312628763 2.0183176973732007 2.505105413942827 -0.036959350833168605 -0.504239352674751 -0.8604258435719117
Ni 7.762232295575268 8.308948777170789 7.952509151881561 0.12670782044291082 -0.1607605391522457 -2.05909444907837
Ni 6.109736729433044 0.3655763013809738 0.6281708366723435 -1.059991528516813 -0.49482602978065104 1.3013913758886813
Ni 2.237634342812155 6.824418732244847 5.546907466891271 -0.43883923000238617 -0.7446362127034014 -0.014583040020497463
Ni 0.8568372107397131 7.623056181237015 7.659807743812336 1.1516505848857068 -0.6613219287547772 0.512233169513505
Ni 2.2553614064400875 4.153395468688163 -0.2536982261640698 -0.8711494006370029 -0.9034023471334378 -0.4749956253182852
Ni 3.068912532999052 6.474530017217715 11.760358899559295 -1.0417752626191026 -0.20302690402062454 -0.12058808069841813
Ni 7.0608706287098775 4.6126420477292145 12.175977964072374 -2.010737397931221 -0.8655767916452319 0.5803373213805941
Ni 3.242996486037611 2.6030376528172012 9.105645080828866 -0.34694851723866055 -0.35510534201784 -0.24456538958404328
Ni 4.465581168572373 5.038528605644049 12.92955207011637 0.8725264834901876 -0.8247253048465086 -0.5742134678710433
Ni 7.282572734174779 7.075055921535927 12.824184844000818 0.8798991218051748 -0.3737424975030531 1.6423026857943261
P 8.292423548365088 0.894199706016336 11.3596389449182 0.14353080553752057 -0.40320014064253784 -0.3831751036708627
Ni 1.131409122611743 4.77575470561027 1.933122176171715 0.366128175490905 -0.4497774741814447 1.6067404724190006
P 5.366866237154327 4.291806779048632 5.564284905843645 0.8638996610531251 0.5752015428159255 -1.4611995784299867
Ni 8.535904357578328 6.166823883489098 11.0859001230934 -0.22628818854141028 -0.09635260518982115 -0.5485862542212423
P 6.591727122003925 3.2790151114675554 1.4961814693351172 0.6191537800271595 0.62972795599858 -0.21126343299780387
P 0.8033883384636903 6.324264245201586 3.8006942780808197 -1.089911198894381 -0.9336516329362824 0.6635906701842958
P 0.9931708036272012 5.921303597001766 12.606708280513176 0.09817603155180511 -0.5147901316074037 0.5185202880737974
Ni 3.143335243884888 4.368214338353003 5.890873503495204 -0.7617543604409268 0.693176868481845 0.8008976062992917
Ni 2.075696205325554 0.5568647019959795 8.236601962796081 0.9880178663919887 0.03705962385645876 -1.0120571667293796
Ni 2.245719413434448 0.21115873634258678 10.480562327081625 1.7166577036671338 -1.2455701551540033 1.0903038063471093
Ni 7.568673155530983 6.193209620722662 2.9524392605489598 0.990073720479753 -1.1591857169204876 1.0269649370791474
Ni -0.2787929014446595 4.24224930225005 9.51757214518728 2.6197566606275395 -0.21720576662416785 -0.04136467898971586
Ni 2.054363637230923 7.6199332316610615 2.7872124659578854 1.5386342636693824 -0.18375468605457387 0.9389578756405442
Ni 2.938577188451616 1.835830005388272 0.8552893931656255 0.6801046086789191 -0.1680097645154913 -0.6377094315421598
Ni 8.86293089655526 3.1140997013531506 6.468214011034511 0.4023321362152877 -1.2552135917810383 -1.0067118432570663
Ni 4.526920268552539 7.998875393034744 10.609382631368307 -1.1240253669692708 0.6268159245581076 0.6453530641303467
Ni 6.201859189519034 8.598090204819613 6.147182078473926 0.05151899381489838 -0.22996692294457816 0.25514342221020575
Ni 7.615153206799908 4.809988788425384 5.28794757145623 -0.6794916576852684 -0.18539967785716457 -0.616581648424609
Ni 8.695056423431572 8.29132186644471 3.4327279642692696 0.5294258792427076 1.4840291747299925 -0.8936748354330286
Ni 3.721964081934391 8.884809753205452 6.420974618673357 -0.919254740784662 -0.6456433416772558 0.10604720676976576
Ni 5.237068076353192 2.3920428030412824 12.950993895922112 -1.3562816001686577 0.70589585871041 0.6547920980560594
Ni 8.412033427605023 -0.028018229533763466 0.40925116091709635 0.9407517343161733 0.17103569582600867 0.2724996541004662
Ni 6.120753548636844 5.678086827257047 1.0951992961873525 -0.4852617831309836 -0.1611660021207805 0.046980739624912636
Ni 6.397849313635563 7.195439709562906 9.494159128176891 0.2714233903171519 0.2756235444414285 0.38540862098707174
Ni 4.878666364668578 1.3690173298527093 10.753434371064937 0.441982146506742 -0.5077982736706028 0.15825114246683067
Ni 2.060509383480977 2.2467300472622345 5.823191993384983 0.6211983212610142 -0.06603004294687982 1.3569958526268628
Ni 2.3506068161020317 5.284212778698048 7.962091053146089 0.20620144509386423 -0.6311947703520936 0.11817047239586101
Ni 2.7141982690644695 6.010530727743287 0.937000503863562 -0.2225631742813393 2.2545664235698717 0.11691037473651479
Ni 7.193746215040669 2.734064962868347 10.563661921191612 0.17656896693941201 -0.977203292274988 0.6069253562817677
Ni 0.5097846437968642 1.7859447554563541 4.222215990436728 -1.3025799968801437 -0.10513960735383183 -0.4403834345610545
Ni 2.8929165700160318 5.1696014397414904 3.7887405740042337 0.10452974168397482 0.6443652462957806 -1.2186283364578365
Ni 2.6246888892359093 4.335564492349015 10.484546591613514 -1.731552361390779 1.1435621514506178 0.06779973325279291
P 5.456503084312518 2.6347770178952565 8.996839878736987 1.4452386842253562 -0.11732277968358505 -0.8907499484767498
Ni 4.378821441140134 6.649715652176654 6.8330746744077 -0.6003896120457789 -0.20126826945830498 0.04178633990816675
P 5.740381932209444 6.259547260986205 11.612935648993933 -0.9764502161590473 0.5134112489820061 -1.3279249034028358
Ni 2.3074227057849876 8.511803927468858 0.6397803789589265 0.10110888892788393 0.005150690963004033 -1.723998460302921
P 4.9485457757340034 0.82848301374428 4.943901412530814 -0.738108953107845 1.4698809082540685 0.12303859912143973
P 2.223075752806472 2.4747326807345984 2.850031097442694 -0.06752745342801274 1.1147100031056159 0.025126105643666408
P 3.0184354704652776 7.609389862538747 8.508235752720124 0.2627616008770958 0.16833320929318105 0.0549231344004409
Ni 6.916186104769724 0.6896000742641769 9.397587147805861 -0.037965423500179785 0.044521479451142675 1.4673231748292213
Ni 4.398078112723635 7.499831692721122 0.13289288546838404 1.6800706485717192 0.7170482757828037 -0.6189370360306631
Ni 0.5148569330352418 2.6354689833989666 1.0415282665654018 0.06855795157505613 -0.13027985406488532 0.2535256841011247
Ni 3.658949697050507 4.0303621811667165 1.6590364611141337 0.7853858838169377 -0.6743072852708516 1.2959799750651229
Ni 4.460327693629735 6.48588371436411 2.5511994212991556 0.11265931276964469 -0.33434985463804356 -1.0049735204097208
Ni 1.0872143784669124 1.3052745602280778 12.403142955092878 -0.999545150305298 -0.40221566524208147 1.6485013584058708
Ni 4.764482951747209 4.249942866074192 7.54152807720519 0.5493341881308604 0.33282827578719454 2.169861429921308
Ni 6.494442235067888 2.558533345157553 4.624401819368577 0.39823688309999156 -0.5479943862735144 0.6186904672374958
Ni 7.786879014240299 1.560637145524755 2.5525988304823155 -0.19528736928452176 -0.5328842701049532 -0.9144069257740575
Ni 4.139756464417673 7.8725643741799365 4.204865865912131 0.08816775538618364 -0.7588240741680093 1.9787374479858568
Ni 1.0035047621365507 2.0772167084718633 10.254036493671126 -0.8639806508027056 1.740159129223184 -0.9314808505372086
Ni 6.633773131163552 6.170684322615058 7.0517111905949825 0.4921253430200363 0.5662183654807087 0.8643336632667501
Ni 6.419864742424644 8.801036403210276 11.715838203242981 0.47158814229863305 1.201861401412143 -0.7266582880687421
Ni 8.52472365180786 7.287134243613707 5.473802221905262 -0.023863179770842773 -0.5067441213744758 1.20738978742954
Ni 4.20328982342934 8.934103190535513 2.1437628488674454 -0.12469901754299816 0.03181534473838391 -0.5848645198269863
Ni 0.2531574004940651 5.462767193082944 6.876596573148267 -0.45595274975422123 -0.46376093294473036 0.38204613227274203
Ni 0.23055835343146008 6.965798210423861 1.3672810427269535 0.2770278809881229 0.13799290643842685 -1.160908356038549
Ni 0.7953697329489905 4.23069529929995 4.649107719293793 1.2509599587110067 0.718440271034324 0.2842493384372266
Ni 6.687473296175131 4.8353547870219025 9.942105728446178 -1.5164818959420592 1.8668764627477912 -1.2344653034900934
Ni 0.11605445122416273 3.8060287858258666 11.955648863843782 0.8178784571280043 -0.2573954514691761 -0.11602514391808405
Ni 8.389708435301124 3.80915173540182 3.0277833781318404 -1.538959508219285 -0.4107069905425442 -0.37357126203251145
Ni 6.325484289642338 8.949954663456023 3.671966842848583 0.5689519623617879 -0.11515379705672427 -1.254683173198865
Ni 8.24284786194799 4.836948128642287 0.701621153929282 1.0488725357855162 -0.5279048146124908 0.7649790380258116
Ni 7.356476470932831 4.121428483378624 7.791440523679228 -1.4300113257526403 -1.0844278071823066 -0.46813592208397437
Ni 9.119012761783425 8.478298229394492 9.884485032567527 -0.47354449469405535 0.6918841178123504 0.07486332496779365
P 7.023495386700291 7.7894010464051355 1.7589936095677854 0.16920815569896663 1.1534956085142456 -0.709348850256017
Ni 4.3093244320636 1.936055745715074 6.956791733104523 0.5227109291163772 1.3334257786164068 -1.3182344155879493
P 1.4825907205537023 3.0469153138284892 7.844210177184504 0.37187536238732727 0.9047951137159064 0.19262679173322309
Ni 1.4915953769111883 6.453197449123083 9.955098291259253 0.36246795303049834 0.5178029502917986 -0.7915994688268173
P 3.7120853638880082 0.4091018420452432 12.366803840377004 -0.13877683579230293 -0.6593275240325678 0.6323916188736722
P 8.308957881980048 6.302476436643988 8.778203362549705 0.596500561404018 -0.07138462239057383 -0.31232115697277824
P 8.337492354198815 0.5016859159606822 5.675622155390545 -0.2598230870740622 -0.04373009389809888 0.0286981392656409
Ni 2.9201854737477517 0.6749258531809005 4.008270271979857 -0.5242751882797035 0.7355995564224299 0.410576378501951
