# total energy = -340857.81960751774 ev
CRYSTAL
PRIMVEC
9.38036310952707 0.00000000000000 0.00000000000000

0.00000000000000 9.38036310952707 0.00000000000000

0.00000000000000 0.00000000000000 13.72910959242546

PRIMCOORD
 96 1
Ni 1.80163002856283 6.326867198772583 10.211395562714985 -0.20827992488944774 -0.6746451282262445 0.14920085933910435
Ni 6.4016005503510165 8.22320137162258 9.3239325570487 -0.25359381833489875 -0.5275551445825559 0.6054719116646927
Ni 2.1747808664930477 2.96275011455273 7.429891882938622 -0.09763250034350927 -0.16496609259316106 2.518653685236927
Ni 3.7204676921165616 1.253141446474954 6.471874477385657 -1.2472223460454457 0.4290500118261062 -0.034456639015972915
Ni 9.116971733332713 1.7730574430340353 2.69955495302106 1.0435169279005576 -0.6698518206026592 0.1915844665116378
Ni 8.899140945036697 8.571334781579951 4.28795807542101 -0.12273186651429831 1.0803330682876426 -1.2827737607874938
Ni 2.6031069992625198 8.9609106350259 1.3536829906224517 -0.6379775976018819 4.830927490820596 -4.149775928934401
Ni 3.136877791890554 1.5605828419793002 13.507617579942911 0.5649261290318464 0.07293165516271956 -1.3241379255565775
Ni 6.29087474615473 5.802551811992556 5.870732042017996 0.41183647616129715 -0.12197236264045444 0.5254275567165919
Ni 4.302763102256235 5.717181128835117 11.472977459767355 -0.719251968302342 1.5721318812061955 -1.2041360563789325
Ni 8.566025496153392 7.062850475394125 9.56332692368142 -0.6048612746638873 -1.020271584219372 1.558778342717425
Ni 7.858051983283978 0.407485780415788 10.708746158174899 -2.3294600875549687 -1.5352355224004783 -1.1134295937312952
Ni 4.464067823448996 8.006862061034731 0.1831572147081514 -0.6039894135818953 -0.88798318436489 0.7568085863998772
Ni 7.811206450739395 5.339443293425063 11.160117966626295 1.1146801783089448 0.1424098045591999 0.15680206872512994
Ni 0.5961417638819759 4.633111344070928 8.857115042972973 -0.7917097691524365 -0.47684244871903686 0.9672626361225084
Ni 3.8083523125431133 4.081114506241828 5.99712211429522 1.7518319375754219 -0.5365393503590372 -1.689099591543207
Ni 3.2132433266213214 1.647369959941351 2.1889414623939896 -0.8813348258104369 -1.1398091121660887 -0.34528244239014727
Ni 2.3188632413197987 3.130489764725384 3.938373523316133 -0.7977824577090776 -0.48044610690989514 0.543658992122954
Ni 8.645561593559382 4.64475237448499 6.922766011254298 2.941515051753818 2.563376739175914 0.41289525644311476
Ni 8.147070345965425 5.053698677411229 3.7568888273209775 -0.953387677912629 -1.2479139727958315 0.22093206643581953
Ni 2.848684901148219 8.133806512761973 11.190968104278003 -0.5383033842379956 -0.15881961337579098 0.2956627224804908
Ni 0.20262521996306276 6.5497258616068255 3.058790960559481 0.739658556983152 0.9305233717199457 -1.2071445041879532
Ni 2.4648685905501613 4.633139485159761 1.095242735067323 0.12338312694505203 -0.7171973997661584 -0.9387871543906348
Ni 1.0800362286980751 1.6816833275921488 0.9409714100103106 -0.09759881889209643 0.22393048694251114 -1.004889188226031
P 0.5600817726509215 4.666055178731836 11.319692010855805 0.1274917497967869 -1.3866175321480378 -2.1094649311111215
P 5.129688997624218 1.1946455031533643 12.29434924223593 -0.11901893643908533 -1.3503804041928744 0.9695108087267367
P 9.325112606707114 0.6773447517831956 8.55602227710943 1.4383273018175033 3.0258040409108857 2.8644624324441894
P 3.6626940367416942 2.656246755342829 11.28351570312424 0.13301087984280316 -1.849850617613756 0.40605972157852
P 6.901911588356197 8.050996668688368 5.153001075613765 -0.6453425226073854 0.536700815637566 -0.8232728886706984
P 3.1262779817633257 6.035766395517469 13.249139802936003 1.296952109170405 1.4757954739662906 1.1607674595853106
P 5.229177127013053 8.304303989640294 2.1719451827749405 0.33479902636032016 -0.9577117592092796 0.5816766090173079
P 7.538819471558458 2.874612224326679 3.589393066584879 0.04796727190789804 0.5221473433034234 -0.33160083113799665
Ni 6.029762963233021 4.60750295323258 9.670029490210831 0.03830609466905016 -0.9727249447886603 -0.18535005556615175
Ni 2.013326059493176 5.121368615692491 6.751549998574432 -1.5609822923472794 1.922832923508753 -0.3053760931135128
Ni 4.702235238608579 8.643779324599937 4.436286940552713 0.25821126250225207 -0.07806074885916879 -0.9851508292568387
Ni 0.9181593053657028 6.792667881505134 8.047702285222277 -0.2238027031153952 0.25893657070405085 -1.291249402358673
Ni 7.159918471143293 0.6929105260532157 3.5453363159436813 -2.058732694863577 0.6778345816978197 0.6626079945560523
Ni 8.67057902153223 6.806616481203531 5.662543328792579 0.734393966150103 -0.8668281475538298 0.6950617442093836
Ni 4.004392517719172 8.998113154463589 8.162010450027049 0.6310980968732293 0.0260244490882197 1.085792548740317
Ni 4.07239076870349 6.693911420425965 5.5455167348065055 -0.6671367356643414 -0.988104255458208 0.5585793608782121
Ni 8.38484378588134 2.3677536929862715 9.95766800150315 2.2685542532085314 2.1200828158362843 -1.9975658935462692
Ni 4.025010555471073 3.6484077439772973 2.2990078270752816 2.079485868250528 1.4023112887342106 1.7367035665744155
Ni 7.073853641127965 4.280897476232722 13.577924338247856 2.1533212661744403 -2.690929938338256 0.4411889611814854
Ni 4.494525861929625 5.928520705973573 1.55215833801889 -0.0124420824180947 0.564233473840196 0.3003521575363602
Ni 7.9622115334191506 8.709244877589253 1.860061247380103 -1.4869448057148908 -0.39260513873551095 1.0626773028790923
Ni 0.3638333234174958 4.06317925229204 13.654367729991064 -1.580188432962085 -0.726984303949593 -0.3262843040210897
Ni 4.902956244893919 5.84398487511819 8.04582058441562 -0.32280662988513437 1.3831902516340435 0.08088690545405423
Ni 2.2859663084736126 5.463273464654747 3.6387215812008584 0.9380060532502361 -0.4994874398120623 0.11321441394216632
Ni 2.581166330335452 4.1850207865775 12.340876780476696 -0.41031798263424174 -0.7172819890601646 0.5106699387914431
Ni 7.3629095252611885 3.6860417601104305 5.585880436556473 -1.4159957281998388 -2.382862414435509 -2.0118002919780964
Ni 2.404656040809738 3.72415417475373 10.024776056044038 -0.40320348307664755 0.4500186436579734 -1.333793960589103
Ni 1.9632443017327577 6.873217058109126 1.1914327288448903 -0.8129424532789677 -1.9574967934395255 -0.633362981648006
Ni 4.571594923881226 1.5744657791370862 4.157174241140606 0.4520269323372538 1.218083005477328 -0.40350378792588576
Ni 7.311655222132715 2.414814973878577 1.186128133599804 0.26524734341342704 -1.729822008963234 0.11648742826648324
Ni 4.627576929933702 3.5946019821279327 13.652610788011566 0.47524347966303315 -0.0105957732379753 -0.07644095386755867
Ni 8.41205621878319 8.536993272840318 7.781178970917916 -2.04617388436196 -1.0824945947153357 -2.439669139011908
P 4.3664088648343276 7.458748693464633 9.793440359216897 0.37202011549530767 -0.7768238531795395 0.09917824756407435
P 6.126239996116689 0.5694733920309049 8.132808442144682 -0.26144211073472395 0.6788337123862954 -0.4732367336456495
P 4.141767933040641 3.878348580834598 8.151315898234083 -0.009323848504087169 -0.7648245147258182 0.5294461909576818
P 0.48915403431905236 4.932354302361825 5.069995181954622 1.5311940053412532 0.45322995150641937 -0.9023386817556136
P 8.202189358627011 2.3870584799259493 12.774346166248609 -0.47064711854160235 0.7136356505568291 -0.13147644547614779
P 1.7450758203707415 9.340552684113677 12.680754533006656 -0.6281338720385827 0.42452487026224306 0.4197655012003867
P 5.884085926705714 4.441648756011761 11.913448348441007 -0.04554760672281188 -0.8536306750269492 -1.5288548156851154
P 4.789885349961519 5.08607969029547 4.186444725672467 -0.8880801149540706 -0.8708179854395132 -0.8538757011582198
Ni 0.27177444148066426 8.4450844767106 0.5475045820150031 1.982585103866721 -1.1482094204146418 -1.7522453709637567
Ni 6.226206524015692 6.566910686521057 3.5980014256590014 -0.3059425071399441 1.2545417625249942 -1.2710896395813462
Ni 2.284202800240056 0.6608437553276137 4.252564089959011 -0.06763749664331577 -1.34996362837043 -1.089633262642646
Ni 6.680075385082902 9.207473475020766 13.671625721736262 -1.331782843696345 -0.2143166180018309 -0.022026126562104002
Ni 6.438549799989205 4.416387438602357 2.097436959907175 -0.4777976135434545 0.36664830966043305 1.085283727424699
Ni 0.33850259132230326 8.614015432977197 10.895462282584173 1.580166578585214 -0.9946130031110032 0.3339225372926379
Ni 6.536396365862762 6.265904219996604 13.016115640778864 -1.3959082134213443 3.1719540292388078 0.711530174178052
Ni 5.860484933537478 0.6266026164714881 5.941835193136926 2.020502704848101 -0.7601175961684521 -0.8166121888210709
Ni 2.959119914093228 7.807960845160616 2.9205656843552443 2.703898582683782 -2.1169653532532253 3.753046740728188
Ni 2.0737074557665998 0.9152570210706901 10.513367268586423 0.16350287778407324 1.1497317705964392 1.144974972637744
Ni 0.6432968484037257 9.295958438675763 6.082297685903414 1.3310102271963786 -0.42258600136831737 2.0794079638247416
Ni 9.02444383324866 1.687442870440041 5.05494814175543 -0.1906303301284846 0.9272637271320675 -1.3053282490492424
Ni 1.7230225870883396 8.927019383707602 8.7701965999297 -0.11262485998728346 -0.44486666714338874 -0.47306446973384336
Ni 8.738717977960714 0.3656184064858246 12.76175584310457 0.830528541791847 0.6398138794796723 0.3500263848330359
Ni 1.029682440412268 6.06422641669093 12.754534839709931 -0.11701090487012107 2.6721369740014693 0.19418385180769782
Ni 5.664266501465475 2.6578507974063297 6.7668587508997735 0.006068574791583097 1.3342372187741087 1.9419773576476878
Ni 0.9678939896971763 2.329819505238916 12.172049946238781 -0.2653404173478656 -0.3997060114463504 -0.32506997199801435
Ni 1.9547363125421415 7.475699009305255 4.859362884182176 -1.7963449323861322 0.6032620484975675 2.0445980552344074
Ni 8.055217832013371 1.573593405383252 7.021848908963935 -1.1497363985821296 0.377991245477078 1.821080230349283
Ni 0.5810675206302449 4.150698038563757 2.1201862161200546 -1.309116512447081 -0.2674744329717329 2.2850820756602257
Ni 6.419995442085082 2.3055806473904576 10.992980535754675 -1.092578461313899 1.1079498015636466 0.9350459421806476
Ni 3.7716281916155916 1.8525747797141374 9.163123119019406 0.7915310774827271 0.6178234912515101 -0.7455862353214966
Ni 5.646978492558853 7.91010361726273 6.931744894664726 0.918165107264909 -0.9327738583170193 0.12217316579735088
Ni 5.0689886690106825 8.359319818309492 11.825280441053534 2.3031579593253304 0.43292697828300925 -1.5017903553681555
P 7.561482428432249 7.784547459251268 11.972524936228858 0.46947649527226887 1.1702239770125202 -1.1978939321239628
P 7.702187872598998 6.503142979224687 7.654253279916564 -1.051751399995208 -0.921346333206368 0.3936513206118382
P 2.7425085729799905 7.599275910735438 7.169587749266431 -0.7106446862493051 -0.5294040248658367 -1.495844936417998
P 5.383296490190366 1.8230735382538423 2.0486168609627855 -0.13111006327566452 0.26030285492395816 0.45066501899272066
P 1.6600991124569695 1.9319514109500726 5.775493217042995 -0.33344534054590313 -0.1218882875670804 -0.9309108369663517
P 0.8073003000156047 8.634230115122486 2.557073806148927 0.16537027001011517 0.6656041010698988 1.057516070393127
P 7.978749113290215 5.813039057764451 1.1629004788767567 0.6106480565489935 -0.05576799889923944 0.744857327575272
P 7.559990950724082 3.567877328099195 8.22097728756845 -1.349890094820017 -1.5052634015184205 1.617426748488253
