# total energy = -340889.49711826467 ev
CRYSTAL
PRIMVEC
9.10762212558373 0.00000000000000 0.00000000000000

0.00000000000000 9.10762212558373 0.00000000000000

0.00000000000000 0.00000000000000 13.32992559334538

PRIMCOORD
 96 1
Ni 6.4068476568941355 2.0491238369269205 11.487022649871811 0.2972832888030493 0.5269321662865764 0.26957810957829703
Ni 4.960229434919273 0.455761790402816 5.871858664138205 -0.770712340965163 -0.25869745811005124 0.5823098717259326
Ni 2.705965523753755 1.6160928491028956 5.003773885680334 0.3976604417712313 -0.8970895175415325 -0.043541889146692755
Ni 3.431451356360039 4.227858240204821 4.790814918095359 -2.182535425844551 1.892776727553321 -0.5052608519607298
Ni 4.997315671036284 4.629486147937624 2.7628799633703602 0.03743397647674198 -0.19192950855588237 -0.009785875742170243
Ni 7.110985223916363 5.884498221722485 2.6301008553825658 1.3157013647534501 -0.232831903197199 -0.03469780849250153
Ni 5.107827554396751 4.635351456400137 11.567615995500358 -0.3872495308505524 -0.3498055270714814 -0.135075989901948
Ni 5.821172927095377 7.72068586011902 12.573771410232855 -1.0353403056270363 1.149613242740704 1.0243030739762682
Ni 1.9015439326931154 6.556494991284758 0.4308888751681504 0.468924993644173 -0.3186275588067803 -0.277875830810715
Ni 2.992618813426353 1.4708262808154855 0.22971061642830082 -0.22305142677166748 -0.6702595975640392 0.9617684457771565
Ni 0.16485341980834448 0.16032146718265072 5.06535780301236 1.166300730698714 0.02065212903271282 -0.5011699697208079
Ni 8.752506553185933 2.418255749948157 1.2061678978773134 0.11237572009095485 -0.32857824226158894 1.1347867192508327
Ni 7.086540366907999 0.8307717625571371 4.855198518379833 -1.1611914344966068 0.20488478316496972 -0.560954288868292
Ni 0.7550910681470392 7.461519373148077 2.540724119255189 -0.6476395461716782 -0.4223975395065951 -0.0019951760531578544
Ni 7.896289916742817 3.7394438039948565 3.8790345023539454 -0.9346021697750098 0.524164373733452 -0.2372341460299527
Ni 7.85799236692159 4.131572462152501 12.984800205224984 1.3654686659845645 -0.7996495928248035 -1.1375735379673504
Ni 7.616021069977395 9.093049641263333 7.261516908387281 1.3779143479470852 0.5000345705647841 0.09168965249651305
Ni 6.968997399489985 0.8972938324487512 0.2288863766521246 0.3307906765318755 -1.2206818765527556 0.5160954806823885
Ni 1.9425828766870383 6.283794578265221 9.301448422594923 -1.0402670535046923 0.39990115817629196 -0.5097307148066254
Ni 0.43395996525131747 4.705625866488267 1.6981661832798232 -0.5930028326634045 0.12144014428606827 -0.8062437011025534
Ni 6.156196796340041 2.1539252413960885 7.151371151424631 1.457139292317684 0.9784363933511406 0.2897995788314945
Ni 3.7797268153763746 4.009175132295793 0.3714288552483268 -2.109573174554212 1.8158428932097437 -0.1384456777051293
Ni 6.16782722942487 5.817001636294398 4.849586401804366 -0.8396387316232313 0.22521295319936055 -0.3096721493857054
Ni 5.592016054074718 3.253260735134761 9.450437275926788 -0.7461750179454311 -1.887328559954556 -0.20174238088124613
P 0.42092240459279534 5.599830393610179 12.657617087619105 -0.8775707307823145 -0.3362450147782274 -0.03936616050244834
P 4.103511879275166 6.221844534535379 12.857286213420698 -0.6302259786809211 -0.9591011833576385 -0.9489718082331204
P 2.3547209800188176 8.389458531551279 1.4909923770852025 0.7621562238650358 1.6285529403084016 -0.3632140871679035
P 6.737782203934344 7.86276476076376 5.893053010913229 -1.5970967786816495 -0.5063623125550247 -1.2073147112172302
P 4.914263267511965 0.8919540337661864 12.833452477837541 0.11255903974635453 0.28857213418229655 -1.560201448317197
P 3.842778881348396 6.189421400798503 8.18650701883992 0.8749132385548092 0.9825630139250046 0.5736758502000184
P 4.988535923586186 1.0471943587264203 3.739164200004485 -0.4404412843821834 -0.34307617876744784 0.505147209201001
P 0.18825818640301442 5.5162861785067046 3.709558053701546 0.38896008578375596 0.10417364389613672 -0.0861394121022452
Ni 1.4093589410429632 1.0880693655272917 2.4529457707600644 0.7727028890326306 -0.41745150835522943 0.04314876747333214
Ni 1.843910901713634 6.626414204121275 4.706783445223648 0.12266218961862747 -0.07928742217741828 0.08563881831674283
Ni 5.805926768141577 5.672199556720634 9.375696488090187 -0.8695614873245927 1.4788478876393691 0.496625544883235
Ni 8.86622431943274 2.2912681786860034 10.348741143637175 -0.6368933633987677 0.5395046036349483 -0.6239841115362673
Ni 2.3983829191015666 5.429344820458327 6.782692797970836 -0.5324245568597152 -0.35023747240257747 0.5540043399130201
Ni 0.46050321833074237 -0.2888892108333857 9.102805725774273 -0.6629826042866518 0.29921084484306537 0.33564543352101545
Ni 1.5174117665076552 1.0160827225339568 11.412681686633817 0.32733074300773307 -0.9137566937845683 -0.26781304725807425
Ni 3.931541763764013 6.894752066281273 1.6336887744904365 1.9432359126451375 -0.6799590842399903 -0.20845861655915712
Ni 5.6148944001272545 8.066247247828167 8.07765454417801 -0.7086543952921538 -0.27314654365584573 0.2825580667777327
Ni 5.105195451686088 2.9915896521588627 5.0708633604123445 2.194416493552853 -1.7203140694727985 -0.3241559448241772
Ni 0.5350436384869479 7.447839725150103 6.885026036922394 0.016081221832578756 -0.06334812523934252 0.24514388779533264
Ni 5.045977694507107 4.827567815253166 7.116687505948009 0.13937975948362447 -1.077116618232874 -0.5905852243608474
Ni 7.864713791836707 7.036994904119064 9.069428113268962 -0.5583672448674061 2.1138286073964565 1.7742936090130474
Ni 4.720079662342318 0.523947822803904 10.388944007946533 -0.7570872939825607 -0.7912546838928889 -0.2052254543338401
Ni 8.220393747405875 7.319968714569836 4.354966942837397 0.41349046682495244 -0.38301055306854037 0.4688152075391861
Ni 7.152698131926164 6.099201298889093 7.104743770672015 -0.017072639211570595 1.799780183319926 -1.9272495645192096
Ni 2.534432574090741 5.368733597138408 2.6409917495742956 -0.5278605916381167 -1.3337566795932643 0.5980275395715056
Ni 2.457291017138116 5.05172460388575 11.57188109480625 -0.23209991012718093 0.18231024029856344 0.4922937502771006
Ni 1.1207384050537454 3.1128758521515545 3.9234633031953026 0.7992929808163332 1.1943512090780268 -0.6343469428278301
Ni 3.696164385029228 2.4937670425921024 2.727102492511211 0.07180756886060535 0.1637504750185051 0.12708551549730374
Ni 0.9564824452378559 3.4684374086368517 8.049435488680725 -0.7810453474600549 0.47532446941261364 1.01371347138588
Ni 3.436451440748113 2.937790929972422 7.224672935011113 0.7373597336466462 -0.20719620490696575 -0.2328686699724054
Ni 4.278196066093505 7.199875613037688 5.8889072214533895 -0.1544320258310566 0.08539996283305937 0.8955797657652254
Ni 0.9310448574493457 7.3874835152415965 11.450859015846808 -0.2590905797834119 0.4161862684895607 -0.345209937280999
P 0.0828693403254116 5.739322729653437 8.272418304858624 1.2724055301792925 -1.3991704291123839 -1.505036373109279
P 8.451618050583352 1.807808288754932 8.13826576749793 -0.5579227011308198 -0.12787150173370881 0.842877036054871
P 1.6962854593706476 3.3813958667482766 10.25479147058584 1.4011452934505675 -0.7352622276876691 0.7269393096442707
P 4.111517478869186 6.409479759604797 3.9558955445540156 0.032565335530531016 -2.255352666916593 -1.3457637313564692
P 7.125539203610613 4.078985053670276 10.760928428126869 -0.3552200132188334 0.0058726567306931115 -0.3585418785032148
P 6.185341186215885 7.794539565588775 10.418842508910416 -0.0005314470234377943 -0.27752127568477364 -0.6913269597572996
P 2.1388156967698304 8.561374001331414 5.640704489648866 1.1030323096573713 0.6550335246429042 0.8704117511400301
P 7.015646638535008 3.9392923499466206 1.6942335121709513 0.6058053837447115 0.016055767911282024 0.9572433042132935
Ni 5.565549305018717 2.8484998054903046 0.6492714315565841 0.0026790894940599023 -1.29637798183449 -0.9587468853420135
Ni 1.1395001060363201 1.014188337192027 7.119419792498869 0.41329454876406246 -0.12048292257912153 -1.0143019968994982
Ni 6.969379919607106 0.6226216193016756 9.478829376238963 -0.29274734860590873 1.0514115001572861 -1.3921760000724217
Ni 2.337862772000009 1.546009699073327 9.016974586827727 1.2666125776465993 -0.21357202652632254 1.218406707365334
Ni 6.60340835136303 1.9124548636528844 2.567263729285879 -0.44188290192471635 0.7601484494063876 0.5787602067014613
Ni 3.907351920167063 6.82281096139712 10.47924061387937 0.8889977416723334 1.073244022651345 0.3108384017796647
Ni 8.326989353376774 7.40528891593137 0.19356610840915253 -1.2031454103308892 -1.13949620891136 0.7930580556502148
Ni 7.336225819547456 4.349690897507686 8.367073818602263 2.3633886219816134 -2.7401213124612425 0.5826186612156031
Ni 3.234790478050945 8.330195236263117 12.410146608610214 0.12697650072326516 0.19819220163614254 0.14733989487096558
Ni 0.10054268049856013 4.911458119986415 10.574283201551046 -0.3177173882876851 -0.1908704711637487 -0.7187891697333104
Ni 8.514378672656614 2.412809392090109 6.033643726149933 0.18350657459950975 1.2417973183751323 -0.2947708067938407
Ni 3.6249701051356427 2.4442215798031675 11.357149784011948 -0.08848760061944759 0.8984745708145171 -0.0865962971340057
Ni 1.3815715868207132 2.963911589398647 12.763097009915072 -0.6633132481531931 1.7993171276405784 -0.7686552013258181
Ni 3.0992963879937787 8.247680182427134 7.835050267516199 -0.7960657321282871 0.7475757549476996 0.19872210599768356
Ni 6.048963656840607 7.970471496598676 3.6087439660722667 -1.731627951823721 0.7442279215213893 0.12094572114815298
Ni 3.340111016964776 8.38147114720093 3.5581966648813497 -0.2438655353035413 1.1550202726888883 1.0069051902147947
Ni 3.478883850882975 4.286411140989759 9.326015321735893 -0.30815108475548864 0.10811180260827832 0.05655192825311551
Ni 7.320269266090432 6.192536207466484 11.659885312322912 0.6105053603235421 -0.7706971714565114 -1.3099932586250793
Ni 0.6732162801261408 9.038595170304687 0.2101264971939173 0.7668808830342148 1.2691386865025627 0.12293575499498827
Ni 4.624659108364437 0.02568349357808754 1.538860215931909 1.0676279620161484 1.0469529501653 0.2320392320925746
Ni 6.073927648293635 5.374280138836654 0.34043652890191756 -1.3532127314353468 1.9730583953232086 1.072696120567675
Ni 7.932128408668268 8.964577527641879 11.369959654124566 1.1269728796333687 -0.6615296738902091 1.2629582687234637
Ni 0.011501104854754945 4.971131258257206 5.942440911844397 0.12798411605217314 -0.253326423606125 -0.14912912556090446
Ni 7.919787581080215 9.14496308572968 2.37697909702431 1.0536846124621788 -1.8279530462097164 -0.5943999701212472
P 8.710912044260002 1.645018656054671 3.5065300369667636 -0.7559326115528272 0.20480482185665372 1.011846079159838
P 2.0569563917060534 3.1086043775103764 1.4604800224095609 -0.5021472460324126 0.6049090971826873 1.0877710126229265
P 4.572372251402806 1.2927995967832595 8.23269541222003 -0.7112614938976977 -0.9568468401058231 0.5427845599378007
P 8.729227471772603 1.705256466879306 12.51573309008166 -0.7522567053631367 -1.107094652652203 -0.7102752187250283
P 6.464972499452772 7.564954634341814 1.5076948447706118 0.044714312188239125 0.5601467053653321 -1.3119925484432953
P 1.6950923609101054 3.351486436638192 6.033044444633111 0.17416884213835165 -0.14379871448692652 -0.8136081118874245
P 6.858640345700735 4.1449060205207 5.9024639165565755 0.5277808874401168 -1.3737884987041695 1.049977595924237
P 2.344438474965746 8.587776997034561 10.035887047466192 0.8253040601681141 -0.622110034442006 0.8438535410355272
