# total energy = -340857.8760688263 ev
CRYSTAL
PRIMVEC
9.39623597846785 0.00000000000000 0.00000000000000

0.00000000000000 9.39623597846785 0.00000000000000

0.00000000000000 0.00000000000000 13.75234114057416

PRIMCOORD
 96 1
Ni 6.577487451864057 3.028096833415771 9.436554453661946 0.8481771081115457 -0.8475199341435209 -0.18040016776004414
Ni 3.2157020842667094 0.7194566468148423 5.731549949562171 0.29737996228191366 -1.42786291195107 3.7646480724125424
Ni 0.25833165993037804 6.015498568091914 0.6881051652967998 -1.093884324609516 2.276600777662092 0.36658737451551054
Ni 8.065700917294038 4.492284123025565 7.729228278342996 1.2919587697208716 -0.22757271168078874 -1.0343727995074443
Ni 6.8755454585876175 4.263232074543479 12.389718183076612 1.3440966280666915 -0.5308448710774213 -0.35633175822577334
Ni 5.103528076664513 4.634477364592591 2.4863953631021203 1.076570515921417 -1.3157263044541145 1.0376805237244386
Ni 0.12906857892109871 0.5943391851922922 2.5585546981935186 1.055568459748453 -0.5285262502465736 0.8942744166902404
Ni 6.304273093505211 7.268477261657062 9.912921075195582 2.6603656923981536 0.3995720569716473 -2.529999706377365
Ni 5.65279445669769 6.313002196882979 11.743715672693812 -0.6237599113406033 0.051475027950840385 1.8648308930726722
Ni 3.9927708133748223 6.382355815861782 3.4977150781507893 -1.074633189689388 -0.15637320871782748 0.980300957363705
Ni 3.672979312450209 1.099416006263892 12.100437200535156 0.7297284423536335 0.474917206671866 0.39252723430972397
Ni 8.76856756957305 2.194321819178668 8.333465458689368 -0.9912350877777059 0.0768538730352612 -1.1948885696387355
Ni 4.629647699214579 2.6692169901321523 5.563798945683487 0.17899994497840785 0.9949313056823704 -1.8411842001880097
Ni 3.296547300049614 4.069603836324243 4.203609197715394 1.2291773156182766 1.5890633668542116 -2.4630052426346873
Ni 5.4048747660384695 5.060258409221431 4.904525191370912 0.9518393595889026 -1.105614725672567 -0.006358338117860017
Ni 0.233464520975304 0.2177549537661643 6.0284212116607465 -0.6650250886379773 0.22602130803326878 -1.35776178425861
Ni 3.657353371742751 6.139838960985356 10.493421483795 -0.6773830959826979 -0.7390371213490692 0.09299654423339468
Ni 2.310055259764214 7.459474553755982 9.070466757632273 -2.1910028398856136 0.7110912868684205 0.1968385158217255
Ni 1.3706007776156364 4.297490751524473 13.651165704278341 1.8248695221883862 -1.8902004821857126 0.9496649776454033
Ni 8.496236457411737 1.223775191629622 11.939178056208357 -2.433216955628661 -2.5955422681648654 -3.3759980616700376
Ni 5.6916760818615275 0.6063240843939536 4.432352110028343 -0.9096976932238462 -0.015640277640418226 0.32027512171253225
Ni 1.4699002011853404 5.190725148080755 9.910033611828533 0.10580706573450165 0.2875642617430725 1.4143191118283645
Ni 6.9920024093562505 6.26943184988329 6.259419220648252 -1.1984989126978134 0.4314097703075344 0.3589036327180077
Ni 4.428370924774133 2.8859975542101846 8.964903803048983 -1.9566228754750046 0.1935711579243634 -0.2458509411646863
P 9.549958567307396 2.735150379154542 6.268510079117564 -0.7926392229452414 -0.31206276110506903 1.525269412326702
P 5.481773562640897 5.1708709011085014 9.777695142729325 0.1995839397773466 -0.8823668666193771 -0.5993107771593034
P 5.376075302257135 1.6224762836914777 7.126559329809055 -1.3877860985348422 -1.7748039729905625 2.4204555421979346
P 1.281618421332035 3.4785054129780124 3.8726728211003922 -0.41005110212610024 -0.06076853743762438 -0.7324211586944482
P 8.10480805212533 0.23956267823275462 0.8649808540949138 0.04145132516625119 -0.47709184572568164 0.08788030605275188
P 4.328836595300829 6.058843405424147 6.371982371158815 -0.17962240905375515 0.842225518513801 -0.09736407717347102
P 7.870080677012275 6.853755586969701 8.033251015770762 1.062636679449144 0.8084155119428916 1.1640505012119564
P 3.8920431619112312 8.487901995952017 12.768238039148404 1.8521687242239715 -0.2082141046485188 0.5495817853652922
Ni 9.058469643323624 3.155472210583722 2.286299695544974 2.899140186332033 -0.7712988095962524 1.1564058401825053
Ni 2.360653991399609 2.984056674608882 5.819647180401009 -2.5040451912951327 -0.5041730182131897 2.161399415196884
Ni 7.534832367630795 8.257759984077227 2.959407528332348 1.6943127603130306 1.2622915816737421 -0.8492808826986857
Ni 0.7290267133274979 5.768227217726628 7.627474557892481 -0.1847363332415528 0.898656090697704 0.7695064935825199
Ni 5.8474374884204785 1.929676828183142 11.61579155533505 0.8718361422913824 0.2752903294717259 -0.3628268790318138
Ni 4.40164802918062 8.422748494529577 10.204264531570644 -1.1364772195793782 0.6008894345003328 2.1343128433927374
Ni 3.7058849314264677 1.4049628131942138 1.620782142314716 0.14028890156145518 0.2381954815019575 -0.32334064801173346
Ni 0.003074448466314082 8.752490609530678 8.243277565308494 0.5475022771284441 0.007512763437277383 0.6718673083707912
Ni 3.3941647973495432 8.579252203743904 4.030646101647639 -0.08711360309005643 1.1517914813389454 1.1554000246258103
Ni 2.9977751793791096 5.236419044448987 7.909260162861877 0.1512042629223783 -0.862223816012599 -0.32618145989463826
Ni 1.4148758423261252 0.924722123498413 12.278145395855628 0.2968294890950824 -0.5453890874401832 -2.687215722711462
Ni 7.50217105079428 3.654308991232097 3.921081290090623 -0.5419042142153764 0.8214191232914112 1.4292258537368676
Ni 5.941211925137516 7.425037348288251 4.228886012566346 -0.4336445731753241 -0.3417065521134309 1.1664843074644298
Ni 0.7292334305226658 6.262704144804191 3.486878399005924 -0.006911639518168742 -0.009440833697925675 -1.1993844006265604
Ni 2.29629917004941 7.160965527697509 13.581455028326067 1.0956812686089388 -0.888870986286482 3.063334947976808
Ni 3.611931966222695 8.139893597886996 1.96981660936666 -0.0168918906593322 0.022129999129819954 -2.7621438394789206
Ni 3.8126073815499253 0.43355830928522154 8.367034451937393 1.0138181152845445 0.10159302765315407 -0.6464591527103318
Ni 7.445088916219531 1.40267013157508 2.827384772767579 -1.9794725263796684 1.1870996697219363 -1.152002826018803
Ni 0.05390902562892354 8.197605280283392 12.59438042139974 -1.1048027712942328 -0.43913619241751467 -0.01184430093309573
Ni 6.951654971353951 2.368668980830434 6.1273974047070965 3.035951156647217 -0.0613434361044879 -0.6223769149501475
Ni 0.6898265557583789 3.259075110307375 11.76804346769422 1.159844433550409 0.08667034490505073 -1.6802981912014932
Ni 2.268974915342682 7.865899351928198 11.617909466961907 -0.5335656124426941 0.8264268609186477 -4.244053139652433
Ni 0.3777174175050933 4.844830903148133 5.596281734033267 -0.10898597768311553 -1.3210101785608734 -1.3154887345220119
Ni 7.00864314356726 3.6995894532099936 1.6374773746953604 -2.2832977300662933 -1.0417927461205994 -1.3090249811745391
P 0.7073589927794531 8.930915737668936 10.54156873742043 -0.9275126099180802 -0.27204559728218314 -0.8347837175237752
P 8.134331026089754 3.0619702647148612 10.997238269599691 -0.7055518451074301 -0.8753562396294988 -0.2810999941749675
P 2.0953230751655716 8.76257277091318 7.3910032413510995 0.4548453756226553 -1.1813460550676107 -1.2832051918979577
P 5.525127796209275 2.999071859966981 13.668190744547639 -1.0194066651159153 2.4238072322789868 -0.6505315230074925
P 2.0901363528140884 2.256515506215749 0.03699486094612409 1.1936837506973572 -0.7123128179803474 1.0865811060798836
P 5.787611652891684 0.541047492278029 9.727264603720906 -0.954727222659659 1.28724825161908 0.3533747324799785
P 1.0143706729246231 8.411717313296531 3.923597602129984 1.029833516876194 0.8440461166623076 0.326694909195947
P 8.647008462578228 4.163133970901535 0.4817750950581149 -0.4871371457768256 0.41002333421195836 -1.861145473801285
Ni 1.1925327064508497 0.06833694622802279 0.5165242555658249 0.5134166482986449 0.033272131789568504 1.5886951848815154
Ni 4.93464952444855 8.42609355459684 6.149180698959713 -0.4040072099248655 -0.8340522386743894 0.5011360311590788
Ni 4.344368573646848 7.0592324789665115 8.3456768071821 2.299710881316994 -0.06519906240515223 -0.9998068886071168
Ni 9.190712270814164 7.228392918266794 5.294252877915255 -0.8313510376931424 1.7860327518268468 2.056893327661993
Ni 9.229274423949105 6.837481305968307 9.718779802482882 -0.31794827335156856 1.098488913261063 1.098184751757083
Ni 6.497055670471489 8.94323420325371 12.34433530212475 -0.33356104018816096 -0.6183030019910899 -0.9668355758874188
Ni 0.7753426405284618 1.6391170179024868 9.994541480460363 0.5216701465566886 -0.6439572122240845 0.5099184053373992
Ni 1.5714171364850267 1.3217121609584477 7.58972423956038 -0.123962910707922 1.7633839040790793 0.24100672569850756
Ni 9.213911577853679 5.555834695927841 12.1109722604998 -0.7351336725296049 -0.10872963869793532 -0.6605220585613012
Ni 3.6066512815097718 5.73960628243203 1.3829906545951038 -0.7751557214484973 1.022445194831923 -1.9094994396246403
Ni 6.131833367790676 1.1362774406567715 0.30311506101625685 0.4880208339333595 -1.2778935498770574 0.7461022557259667
Ni 1.5629887126638662 3.3784824792252213 8.605692272629481 0.4620917727724235 0.29829038991132495 -0.5469644023471032
Ni 9.200258846736459 2.0451001929759363 -0.11930682919110573 0.6711867373639989 1.9553977448186515 5.079042288318794
Ni 7.9428075447667705 4.830304322069521 9.978932452977965 0.08642583299441245 2.015946710046302 0.3408758286820193
Ni 7.9272003965316 5.859041840058309 2.3098569991815756 -1.0600177537690585 -0.3086467934449846 -0.23837005940660883
Ni 5.876368499507828 4.2327600807285135 7.364007854909412 -2.183251478074969 0.35842952129506656 0.03123221854140427
Ni 5.573649959656849 5.296066351491047 0.17722804765351372 -0.028584239395595935 0.6015252683121189 1.39437969259196
Ni 2.7783448767084717 1.5105671112165364 3.85566187518531 -0.47601326794952215 1.5609429544689117 -2.577111315153188
Ni 7.211883731361801 8.911625264865322 7.188170450205209 -0.1643048048600783 0.10757495626820184 -0.2590193602258442
Ni 4.241254278202683 4.3897429979861835 12.017249503081555 -0.5261932312380228 -1.3177777876665047 0.3497325077417009
Ni 2.306287369070473 6.919021843225868 5.177934991441554 0.3085100107568042 -0.7388499450389274 1.7142087279060092
Ni 1.7585995567094852 4.8046619936325685 2.1371410241244067 0.12341372307267134 -1.4110748938594537 0.8512917424811274
Ni 7.237582437215617 7.498337386447531 0.518442966986428 0.7681193834270061 1.0164743219604688 0.14884861820600817
Ni 7.717260292366394 9.313060661645078 9.968879419927509 1.27206434478979 -0.3336142620235997 -0.21170180608680317
P 7.89970700957428 5.841921897803956 4.4127139764873995 -0.40776462008476866 -1.2399286405975096 -0.315481814088947
P 7.591106425897162 6.9856693461952 12.260335769868306 0.1021923518000498 -0.38886418363583997 -1.2048418241967056
P 3.140504006406344 2.8153096696989355 10.830862874692489 -0.5423060776394855 -0.03244423657163445 -0.975955535910816
P 1.2548297520855147 7.633774734227027 1.5945563076132208 0.5807044749120258 0.3590424722887171 1.8403236519599273
P 5.8722153631321845 7.017983002294388 2.050349870109584 -1.655755983085755 -1.005942054970577 0.199756717909785
P 1.9780110669078355 5.5968398704602205 12.144238694943986 1.4763932554512895 0.055864929488419916 -2.11160820270637
P 7.832289015241139 0.5664530355641536 4.693440625643368 0.5835689409440143 -0.7572652143213215 1.0564855722460837
P 5.206379277496645 2.4911019377866457 3.259235785945437 -0.4260857869914597 0.1638432918426275 -0.2081328577886222
