# total energy = -340862.6392170784 ev
CRYSTAL
PRIMVEC
9.34985447414054 0.00000000000000 0.00000000000000
0.00000000000000 9.34985447414054 0.00000000000000
0.00000000000000 0.00000000000000 13.68445712067896
PRIMCOORD
 96 1
Ni 3.0599268137686773 4.273734247661987 13.124584945044822 0.7119657190535739 -1.35252316156749 1.5906787909704476
Ni 3.3025181331992455 3.0862747031603113 1.7169343131094585 -0.294879307347247 1.0917081428938038 1.121534482226617
Ni 9.274756261192554 0.594027097617287 9.743675763500175 -1.0591402362601114 -0.5287355380439023 0.8316749966914645
Ni 3.9080988457637442 4.949242520467803 7.215499472873676 0.30925177401883513 -0.5455860339423378 1.6251058623000656
Ni 4.218579457200223 5.222520061680963 11.280029795792315 0.22752746026515008 0.15486937047879132 -1.3860038098234388
Ni 1.7665801694230494 3.289437687046337 7.181055544651588 -0.018547423984884185 -0.31322155729986056 1.0908856469925083
Ni 2.188810239343848 7.808998303723529 10.517298602277954 -0.22474398398274195 -1.0310812732403662 -0.5553917071788499
Ni 0.04053909823429654 0.644896849857551 5.872971659972712 -0.41414147014539 0.9716119142301397 -1.0011752297095533
Ni 2.7786551471368344 5.94104701407901 1.556401989862594 -0.5530658872591507 -0.30457648003035287 -0.29894267878334324
Ni 7.541929065759498 8.346764523116443 6.2911962523153075 4.290007237785044 2.080180066104076 0.4050852734803927
Ni 1.0370203889617908 3.2780776140829464 0.7811878058845112 -0.6044578685778815 -1.4882259864201595 -0.48531706184895124
Ni 8.404378325256703 5.204858186925534 12.327081643422764 -0.2870515837727121 0.15858152922305593 -0.5651870960027169
Ni 0.3211394453280556 2.9615850463374462 9.750380544012147 0.4782989786599053 0.15557513829656433 -0.41422837343224145
Ni 3.6763440074562785 6.656123870243732 4.3701723847595995 0.954595325067485 -1.2678814170566939 0.0534411505382757
Ni 8.994148434215363 2.996525451822378 12.184667467820722 -0.6526871358979146 0.062162075351041325 0.1660904360055914
Ni 0.025497052651166262 8.305213770647876 3.557781310150212 -0.22531502599486355 0.5155560632391508 0.5281202730574066
Ni 5.887724795058254 6.322717416086072 8.143510845643796 0.22509751066741876 -0.6118492759459463 0.18148902994884872
Ni 3.732555331452909 7.429730814269217 6.925224831545166 -2.0571954322834443 -1.242504371744486 -0.37098447514194177
Ni 5.181305903966866 1.4297236190320637 9.724325305059818 -0.9063732568363037 0.5937983319815064 0.5910616497766337
Ni 3.1761829020211896 3.4901790586710306 9.264500406020913 -0.2666663352481407 -0.5453546346578221 0.4851679378655967
Ni 2.4367590252830773 7.937633599057135 3.0964501495850505 -0.7942502761861031 1.6188789075537475 -1.1627248404219976
Ni 2.4033332961932645 5.1773322158932515 5.583299149260534 -0.8980549667785952 -0.07751104700328586 0.5415612290536609
Ni 1.5940005589224162 4.657985209453326 11.122137871397188 0.14733038178926885 -0.4054691391823727 1.2846262406152005
Ni 5.129358113526866 7.758686737784428 11.268219994837533 -0.8874291116336329 -0.35527657748838165 0.1086324509984387
P 0.42771936937496036 7.744979851394032 11.67207573110594 -0.6392621207412603 1.38027564909041 1.8345088450503633
P 4.681602941392029 4.779458516400135 1.2428172268015507 0.5415337182498351 -0.9286976313651167 -0.5403073020419017
P 1.7993140092953388 7.909733633853219 5.321721080721524 0.550299380257607 -0.9517915370701027 -0.00202140130540297
P 5.954557553529298 6.867430577217094 3.3449187874228516 0.7941394616398516 1.101569866179232 2.838655755793731
P 0.7449225260465653 5.157014982519221 6.94568324771899 -2.0135221597652095 0.21954572761125415 -0.6053410425137833
P 6.951579265834805 0.34894123706191804 10.2330723816902 1.8051213930271812 1.3649973827751007 1.507771255541939
P 8.415729048365803 3.824959941409446 2.2138715887850604 0.9157297583505389 0.16535201517767006 1.6834269666384618
P 3.755322226651145 8.951354151126111 9.823866658796565 2.3137015391691316 0.6755954079546558 -1.332054866410809
Ni 7.200724833123264 2.9265885417267694 10.30027726436202 0.23937561785298772 0.0851546795914727 0.4244695915442755
Ni 8.099816171586335 6.0012600757121275 3.219624195027368 0.35241879632461237 0.8060585816749408 0.3928807609944008
Ni 2.4493252294499883 0.645136206127397 5.11137740874012 0.9139443843153421 -3.3681099171712123 2.6708444804422906
Ni 4.391785507938343 2.892994515259722 4.700487777088702 0.028459798002589694 -0.8163550785049425 0.572495199628356
Ni 8.446106724956795 6.360285130626735 8.079604591565792 -2.7109038103570215 -1.3923624050516148 -2.069121237186753
Ni 4.547731727655543 8.766825426841763 4.591546079847927 0.5725275955281882 -0.6147489660912444 0.9443646484784124
Ni 1.164571101197658 3.651781940234198 3.0454897037581654 -0.7950514319311598 -0.8716890751905568 -0.8741136254716493
Ni 7.225745043205596 1.4737520828877082 8.179336682330073 1.7615309100307404 -1.8591346140188434 0.635458430724454
Ni 8.833779733418588 4.404426510939582 4.851181248665297 0.277845748903728 -0.15939811158708034 -0.2514045239930638
Ni 9.301085450875606 6.606139549204812 5.57870182590572 0.07410253554236916 1.160234727010292 0.03946797618763525
Ni 7.08500168656533 5.183549868996672 1.3288686107674506 -2.1229282557048794 1.1865625662715438 -1.2656579270428139
Ni 6.328663923415057 8.841904756797343 13.195333422492876 -0.29599028102323865 -1.035935258898558 0.6757388755110556
Ni 8.919555296682907 0.6086063254130198 12.347170740352098 0.1315839175882895 -0.9913363892422604 0.34443217857471004
Ni 2.601868102205316 1.2379581075265924 0.43511510411902804 0.21614981455582774 -0.5482144727041204 -0.622549950192902
Ni 6.095282210460984 3.8970566678462424 12.29607285166714 -0.5576118547586203 1.1086265159156972 0.20480302208444084
Ni 4.914760257843123 2.141434527652077 0.40900096108466527 0.15057794219228907 -0.44606531543718014 -2.2218655909027416
Ni 3.8333000114368905 2.6308620003612626 11.508327057983019 -0.23577658764781972 1.1075754489433633 0.217455934961761
Ni 1.4504428961406022 5.052792156739041 8.888246374604543 -1.7555525809601185 -0.6970216961492318 -0.17505844383215657
Ni 8.14025429139429 1.6485569587095652 2.816384614156729 -1.062796602065776 0.32044687140370615 -2.929066798688136
Ni 5.345704391962999 4.282027568417977 9.294975321096532 1.2499271465711184 0.4466343005667727 1.0429456287781198
Ni 4.923623919710856 9.238422727418286 1.5584542828794372 -0.6474803948859946 1.7396559643345197 0.8125501029365555
Ni 4.446687852334255 0.1957616392293834 7.5340321788254405 -1.8000344654225773 2.2136658287007682 0.0058780560473318125
Ni 6.80976067595109 6.47504524219271 5.392811762836624 -1.0250831466754022 -2.0571681785899343 -0.32036999541918376
Ni 2.7454631644042933 6.452951536503416 12.569351327865729 -0.35029326534117733 1.215139863688604 0.2705037067163599
P 0.9618849598804663 5.115922372910906 13.568207481583098 0.6624048774063108 1.1304132727734855 -1.9514058500504394
P 0.5069771492131236 1.3081007144165997 3.821124631179337 1.8390656111831103 -0.5030075371501789 -0.12898530362317784
P 6.270947272877598 6.2479746808849645 12.376290861540973 0.613958094758833 -0.42627219197065297 0.22852556251236128
P 3.1377737005943502 6.102808843165122 9.186293549805043 2.2938425954616752 0.378391052018658 0.23440696099380276
P 8.41124111830619 2.7584688117228753 6.077445493430315 -0.5999332412346507 -1.326180409907903 1.5985209127226856
P 3.1037121814127593 4.486181636858833 3.686346481576637 0.10737106778751185 -0.06521654590664897 -0.5314920177431169
P 7.321693247938367 5.539975664418422 10.108407034488492 -0.7968236933402342 -1.004397850411909 -1.0774176944130605
P 0.3485335834148367 6.977169817028879 1.8217162601762316 -0.6265552146975533 0.07254778946073957 1.1512440934759076
Ni 7.189794853457252 7.977174132853168 1.9458206161204892 1.7255035840935378 0.14196963169798776 -1.4903381476671558
Ni 3.8692595510395256 0.3975184050300641 11.855679754800923 0.022747578109160824 -0.7023935019841065 1.2385703267974024
Ni 8.45304431684061 7.301132918352773 13.369919511724326 -1.2132400755627297 0.2340140964307583 0.7353661002553851
Ni 1.9362987245106806 2.714234651072832 4.957823816735951 -0.7531735607504513 1.782908347265252 0.28264805538837773
Ni 5.416707185447765 2.6450176797576193 7.633901712447797 -1.4234411287342903 1.1153075274802984 -1.141369514674673
Ni 7.827800860702442 3.743391812576012 8.152583944247644 -0.04319838976434496 1.0220582438061496 -1.1179894451878358
Ni 5.192759475473165 6.958909551598836 1.4811094832291831 -1.592398858985348 -1.6275093295352359 -2.093244355487201
Ni 5.8732605704703 8.543541556521813 8.840911802271654 0.8880091525068191 -0.6739894969201167 1.6692182792382477
Ni 7.041739910761535 2.5683488745725946 4.362412940683617 -1.397616968582335 1.582394182364152 1.9583324019669432
Ni 5.291942729790574 4.866870304165356 3.750403268308726 0.6193489267571011 -0.030387354042605733 -0.4251295937257775
Ni 6.217297808956664 1.0665191792494437 6.023610902394421 -0.16414282536091732 -0.6602240677049082 -0.7819256931824792
Ni 2.501815311438858 1.0897816167250953 3.027850268653035 1.0953154006290877 0.6259031829358511 -2.8823272285397525
Ni 7.5675663662250265 7.692386921007964 10.99702092623323 -1.2126312383341376 1.1122736257499812 0.5496635464458212
Ni 7.514356345455761 3.067275799241291 0.4913320380282331 -0.006984401737633133 -2.1330853987435394 -1.243588348837284
Ni 1.9667792494988736 0.8723273805554953 7.58428203572622 -0.8102726197562884 -0.9491543565575717 0.17190858534926523
Ni 7.009426814332334 -0.1603930104179306 3.821028327680141 -0.9542891066809759 -0.053647095901494704 1.7469229303095786
Ni 1.1800077106318627 5.858899194279544 3.6615777825747284 0.39269461312552373 1.1828650628152984 -1.12447633846376
Ni 2.2717527967580375 1.1055361212051888 9.87292534426069 0.4655895015130369 0.5579615247885552 0.2726364367886466
Ni 1.3052303091493067 7.846192024092557 13.873028626217323 1.5758401832957183 1.3673355439899744 -0.07751747476118909
Ni 6.439038953318621 1.6118587806179525 12.286206885419427 0.4735185265521264 -0.47378746394279686 -1.0793228818555733
Ni 0.5246334140559775 0.7374519924681708 1.5873425276818973 0.1859097847243637 -0.8859874940910999 -0.8546881697571862
Ni 5.802585021885713 2.8698910253070147 2.3163403819002752 0.02917893555680136 0.370287191964601 0.8346998995607173
Ni -0.1261678687862496 6.496185262744337 10.081982476291673 2.6544531835684606 -1.2021444798702006 0.9839768635533956
Ni 1.022528114810963 7.351556682543364 7.840783133385297 2.626253838316109 0.7654379799401011 -0.11425031140584839
P 7.749991373293931 0.721935909272494 0.69281672306905 0.2668938778779145 0.00976427847561544 -0.5679237782075897
P 9.235318575793722 9.156938747273468 7.802070061694003 -0.5296169122075911 0.038903876154049125 -0.0031393169599300773
P 1.4023472456684354 2.082502396056807 11.544713885926747 0.7986363210689408 -0.14991125514256765 0.5436291673262831
P 5.699353280660365 7.997968208796034 6.726198223197416 -1.880758362936206 -0.06415030942566372 -0.8551103448962694
P 3.971490857855753 8.046522002128453 13.64605810835049 -1.0725343981788305 0.7759975006235023 -1.2105586720758248
P 6.019473591870717 4.6520200024157585 6.776966997011339 0.54910973082488 -0.3333013587688711 -0.42704737957378064
P 3.5437256741947674 1.9833378414479808 6.614382380747632 0.13479676809863236 0.847947765709559 -0.2414034469162939
P 5.098344646844096 1.121973165048515 3.598614928794671 0.9804104863583762 1.2578775117664465 -1.0545366760498291
