# total energy = -340886.84507679276 ev
CRYSTAL
PRIMVEC
9.14549483093587 0.00000000000000 0.00000000000000
0.00000000000000 9.14549483093587 0.00000000000000
0.00000000000000 0.00000000000000 13.38535612586290
PRIMCOORD
 96 1
Ni 6.6450801206254715 2.1760242189895083 10.994182794649204 0.24766845398939927 0.23529759112887216 0.92027032653337
Ni 4.771451695431251 0.3321332854966267 6.001190627150902 0.8385614393986526 0.5611466073847562 -0.02046109606782928
Ni 2.9234215108791908 1.5890846377345862 4.922678857913052 -0.05419011288915829 1.8593050781584366 1.2063855145347417
Ni 3.6744312733132287 4.723053735631926 4.358927679354877 0.03543057289346801 1.0574006278611854 2.1468911942783797
Ni 3.7536312604375954 2.949010606026301 3.011464277166439 -0.515752495520673 -1.4031646378734415 -1.2949286509824731
Ni 5.4431425793052854 4.661449680981842 2.3567730394894912 -0.3310727265486685 1.0839387833610301 0.2409635311653979
Ni 5.197156198972248 2.8702038751890413 0.9186357120882066 0.10897080817446392 -0.31312514093131233 -1.2786545964127978
Ni 5.551031984398374 8.406017755825875 12.510810418759053 0.6679952270098948 -1.8012508543281818 -0.7728011051733917
Ni 2.233028089629945 6.481714142565128 0.09127112603954624 0.07625352044710093 1.1474069791180044 0.6094648348741697
Ni 0.47460912376603653 0.5998612512096587 0.11947217457265226 1.762105294476972 0.24701822199991005 0.2951965814773497
Ni 8.029598325103956 0.005895186108587411 6.669628458436006 -0.21037897351032153 0.6185585696453217 0.9187724018316047
Ni 8.941770001291527 2.7525196448984692 1.0910795085341898 -0.149866003726929 -0.5296554787550103 0.38791647501058996
Ni 7.333187168112466 0.9415652972750672 4.568395183407739 -2.052655378321245 -0.8390694893833227 0.5630281406781852
Ni 1.22813938463558 7.591940659533911 2.384279944948378 -0.21672137078858159 0.1602882275015175 -0.24962814881893136
Ni 7.767332963583693 4.185198026305003 3.5448441812163787 1.753662305915941 -0.13220226789857878 -0.24275764695134322
Ni 7.832046486550439 3.9915238776522646 12.263944241802301 0.44063103179548635 1.3206710500538996 1.799771698679494
Ni 8.580239436509386 7.395001569148677 9.159130982121184 -0.12502940429922338 0.6952481491885768 0.2878242002726785
Ni 7.146719669558341 0.7531040808002599 0.25548489149093156 1.0153970297358899 0.7950169791487985 -0.4941133199843426
Ni 1.8621599744027701 6.962236743429851 9.216527194499223 1.36242859360666 0.13538683627414747 -0.11381373808906205
Ni 0.21115301879039383 5.064610539227046 1.342779079624339 0.9879139938242727 0.6974202171392312 -0.01704281441489968
Ni 6.196905135749073 2.3427648847229334 6.447217335240288 1.3402710836730143 -0.29894910654124646 0.5884375818902253
Ni 3.520512591638506 4.4213347084702646 0.07133303228321454 0.15417980061093448 -0.2905338858943577 0.7116193914577487
Ni 6.319107240593853 5.964069977296504 4.488952840664574 0.29183203588049095 -0.27387519429175416 1.26914948513584
Ni 5.931630906357689 3.401163881249015 9.000340495233857 -0.6908767595937586 -0.560428498271809 -0.37607885894571363
P 0.49641198396285996 5.7636007258223545 12.51583038099145 -0.3692479520668092 0.7835719705366505 -0.7054705982475334
P 4.340150148920264 6.193374974660157 12.560256452290993 0.14558408852212348 0.7075549915803878 -1.0698231698952545
P 2.520571599465652 8.831530203970843 1.2130520614532394 0.6235781343471002 0.408109147908381 -0.2765509413517043
P 6.368181967026803 7.9104325246154445 5.6507215386305285 0.09728128765167762 0.3871860246024687 0.6933740720943156
P 5.303865835204016 1.4441193957128375 12.615417505679055 -0.4208870163993396 0.0027441384040404354 -0.26026737370033237
P 4.119505935368014 6.512205223058505 8.225060418038774 -0.1915960364758636 -0.7105516123148666 -2.21916464703181
P 5.159019484617905 1.1559997196890435 3.7654481545904126 -0.029305690942652753 0.7303326515965357 -0.37788891557125887
P 0.29673015961243077 5.865307776262318 3.4628584763000854 -0.059024815273640285 -0.14634847749197374 1.0471092732375065
Ni 0.6526417322364655 0.11654927435499086 4.704591724776504 1.0154253118706642 0.14789011094748078 0.6558395654839673
Ni 1.960739265535975 6.73839160661045 4.598592693510043 -0.23824690356518322 0.26530776433771724 0.650024501464087
Ni 6.2926676144071845 5.898606523735739 8.934109734638483 0.03178423439013235 0.368043904456379 0.6747672556264056
Ni 9.04852536499854 2.7535530858390063 10.16924359388754 -0.4878462560287082 0.2909465479517441 -0.4817769099061767
Ni 2.3457280251188104 5.4103742705447075 6.775694251816324 0.8612689082984973 0.5133595698084643 1.1078780677854467
Ni 0.6587673848202878 0.39507075332485636 9.539462855625068 0.4913396138939473 -0.5634523726997974 -2.2432062613620465
Ni 1.661727304908818 1.3629348361628368 11.31498938452764 0.3095983587249765 0.02028394706001668 0.6879994380459634
Ni 4.432949487182499 7.222069403267078 1.13061731273004 -0.6714775291315402 0.2735376084466773 0.47010358733330654
Ni 5.659762775035973 8.164073684304498 7.990937573883305 0.893099422545533 0.27382942865548326 -0.16998077219893307
Ni 5.709889233399559 3.3523909561526817 4.3361462511878095 -0.1004673986891431 -0.9334420880286377 0.7671940433992595
Ni 0.7636744439778977 7.726361145764159 7.045315335004499 0.566740813643082 0.09124973674561705 -0.6750981566032632
Ni 5.519159934152599 4.836713948100937 6.791314757360021 -0.8167489715092514 0.636310237201788 0.0007497336818309668
Ni 1.0488419541998737 7.925293954070074 11.70378084095185 0.8781733973633198 -0.7632589700109113 -0.4172702455823588
Ni 5.078356218285698 0.43695254790176613 10.38872358592005 0.9786130281383211 -0.6931997512999803 0.46454691918113544
Ni 8.352726956175333 7.564641356812637 4.769791788079857 -0.2339513615136229 -1.2845123407451557 -0.874182531036372
Ni 7.5709426029014 6.542778613007322 6.902346554551949 -0.03888690687318464 -0.4844534282970753 0.08764556433412647
Ni 2.846864571823985 5.737682392853479 2.40288554007607 -0.668911568176577 -0.555665529665527 -0.5586860616594056
Ni 2.6926075068324495 5.694908912509291 11.106419053539085 -0.10311743471748047 -0.2457478399279187 1.5160376093157892
Ni 1.2269961977544546 3.505861508570003 4.028122319739365 0.49337464204610515 0.13796436719333657 -1.3616397791567776
Ni 1.8844932733124358 1.1265054981560083 2.8561536511452577 -0.6244217132943182 0.20647243936706375 -1.427149173713497
Ni 1.3943496116561627 3.3389470784306474 8.29455703491615 0.2697326328782903 0.8754860803391439 -0.6426426071777191
Ni 3.999379857899358 2.9152271473152838 7.189489491704509 -1.8218415339953395 1.6197471690913134 -0.6244931899622018
Ni 4.152914428782023 7.0902736741158945 5.772181029277329 0.44701945182033337 -0.8416521625088345 0.6857890606582061
Ni 8.660161917742622 7.721879853190147 0.35989717936639043 0.15386921134905113 -1.8539391858608332 -0.6009133457597329
P 0.3639641810146821 5.828387412749493 8.085893419878094 0.5355083379913617 -1.2033495559218954 -1.8831541168618922
P 8.833167247584614 1.8677021444024664 8.068559048562214 -0.1410615180614216 -0.41849949000376957 -0.7188436771203296
P 2.203835669433527 3.5889940585654414 10.357428616411866 -0.6863336203077663 -0.7823149582010978 0.6918110984825698
P 4.653227880932787 6.528557368206123 3.321803847961291 -1.9234065366240358 -0.16776988059054332 0.4835617697207414
P 7.396272792960489 4.564361105541624 10.312105372048016 -1.2174286597227806 -0.3833910763364107 -1.3152979586674445
P 6.820783371506919 8.011279898520803 10.109022338088865 -2.2884085689302975 -0.48677462023108425 0.9683599829517453
P 2.4749447246661753 8.792149702289835 5.993079487591941 -0.23024228809315184 -1.289228258163586 -2.368081656581909
P 7.241338961335328 4.329166409366411 1.2270903963534594 0.1638432918426275 -1.4479280581320613 0.07036338021491108
Ni 2.737703942919084 1.9821763059308382 0.5957018800613721 0.042533759597152554 -0.5208599919505674 0.6740293490191166
Ni 1.594590225754086 1.2069950000822849 7.112777993782976 -0.4994321610940947 0.848749435675248 0.14825032250037695
Ni 7.305787264945653 0.6631105804190593 9.139414209345038 -0.4746004467623955 1.4502307381233086 -1.367335286879658
Ni 3.4481625803058424 1.6331750693658302 9.535687595268838 -2.055627830686008 1.6540261448788416 -1.2808791148679424
Ni 6.9027270071459865 2.0181912654338126 2.3653935831226818 0.11782517324130029 0.09305490827515586 0.7080427298500838
Ni 4.5743388406400864 7.2389977146027835 10.163996823377925 -0.4094546061926819 -0.24725733459390967 1.618485785880387
Ni 7.705783781903902 6.54921704152182 11.527094449352635 0.26562349580592315 -0.3274603266070618 -0.3347373198844493
Ni 7.971222630206168 4.14606445299032 7.8737353111818145 0.9356750911242144 -0.27605523266220844 0.9723595910294415
Ni 3.293768332888572 9.224969400978958 12.573575036730857 -0.19158343807037329 -0.4100228199913261 -0.6331966312734708
Ni 0.44479572445579124 5.189958694368682 10.212732251944558 -0.4683033008997741 -0.4689059674807795 0.4838682452175666
Ni 8.833176393079663 2.59132114916474 5.724957351042296 0.3450592706357477 -0.9209830363296784 0.9084489084184098
Ni 3.682607345887037 2.6879615953475557 11.828839998449938 0.143903615495907 -0.41928007692353597 -0.3081179175247081
Ni 1.3407753016591026 3.3485041207568553 12.573962805720933 -0.40106201125361246 1.5562085251077198 -0.2634403721116753
Ni 3.2748097216519882 8.657500578683361 7.877456613117253 0.479126102546891 -0.2850795476480058 1.8888334266348565
Ni 6.144327684712355 8.063665294161492 3.144113281005694 -1.6596746014138708 1.5740010732044505 1.5070346344862304
Ni 3.5246097734204596 8.723970036699518 4.0466071943324105 0.36212856741320854 -1.538945624262214 -2.2975742945899658
Ni 3.6304688786126706 4.633199246775471 9.1972256271983 1.0755834694177993 -0.37770071081985274 -1.2007725392233384
Ni 5.194302804516959 4.459645187230539 11.271153197658759 0.7205650306868107 1.0142104656269566 0.05933951830058167
Ni 8.286019715287905 8.777901021003489 2.4980425869619376 0.6594905319729932 1.7445773128955373 -0.02007414504205575
Ni 5.025102000615353 0.4445890362676838 1.3993055554232174 -1.1874884205199225 0.5497201107153694 0.6841355842151831
Ni 6.395627597668862 6.0437455301634175 13.592160035110608 -0.5500561538985494 -1.3194335781023727 -1.6275874910713388
Ni 8.330896659493364 0.1222414304734904 11.277765390579189 -1.0362522759183443 -0.29467747574908604 1.241260986255688
Ni 0.1869814753758786 5.044947724871689 5.770775366688297 -0.07748353619946012 0.5495432188178729 -0.3690936858771321
Ni 7.569461032703462 6.422679972023813 2.364683892706879 0.7356378658595331 -1.1849245164474884 0.048562996510367974
P 8.92118349193622 1.6776221753039853 3.4699663550521707 0.5705447607702046 1.3300213809205481 -1.1747102949186479
P 2.0561450698871755 3.7006422621236714 1.7061113069311349 -0.08378736693030087 -0.09352824836714861 -0.08467208352809934
P 5.053754836603879 1.4306297905155583 8.08464780345242 1.5002250677635647 -2.3909842722116954 1.174082431526662
P 8.668557482197608 2.0612482561245193 12.19258743123196 0.08031174967687459 -1.3473058790326087 1.1250885181264625
P 6.606723914389952 7.929976447535164 1.03107774461669 0.4485289464863243 1.4716943073137234 0.409682663043088
P 2.1717532728016242 3.395621711249319 6.0337302985352546 -0.48137607492333234 -0.28938948787726937 -0.3255286568019877
P 7.315161397370881 4.173464356157133 5.818346573735192 -1.0566552650547285 0.5447337132443715 -1.2696495647007102
P 2.719934246038871 8.748040979668493 10.146434729235326 -0.17965686183611643 0.6757255057746169 1.36887923432801
