# total energy = -381163.0109098873 ev
CRYSTAL
PRIMVEC
9.34352114687648 0.00000000000000 0.00000000000000

0.00000000000000 9.34352114687648 0.00000000000000

0.00000000000000 0.00000000000000 13.67518765605340

PRIMCOORD
 96 1
Ni 2.161502140254304 5.222271468588231 7.040793505080375 0.43405954922555573 -0.05979228956728413 2.3062785072321828
Ni 3.9002566684283706 8.475900415906535 8.233051090343492 0.7372044390157045 1.7763134676565535 -2.3353134610119524
Ni 9.259868553636503 7.725681076382641 8.070685921166746 0.3461442761698103 -0.37594721846385576 -0.4317694676397984
Ni 9.149203889751469 0.4801448621854187 3.759131191411659 0.5539732295647685 1.8840064375598586 -2.457178865760897
Ni 4.4952053743452485 2.939154057722005 12.98655997414792 -1.5842137520713944 -0.2287474487151802 -1.6986800361427905
Ni 3.4109177814824934 6.367067704081809 13.674530907412537 0.15406744340278627 -0.2357285080187037 -0.8916169244627354
Ni 4.3765613434425 7.678412203147723 11.738343106676608 -0.18812710409065664 -3.4105629441291 -0.7260237398085366
Ni 6.275211548167104 2.3303489100167525 4.494665318825783 -1.8775159447395084 -0.6291887956656583 -0.495315824932876
Ni 1.850147986704746 0.30971156254052523 2.560159351887499 -0.4723633299017607 -0.6233199955897072 -2.8236032323359823
Ni 7.633656737088172 5.635292475205422 10.999677965342535 -1.4421942409720774 0.04602763168302396 1.3507401015251383
Ni 3.664071142112441 6.0142096298148155 2.6147918540997734 -1.1811082280251919 -1.9458167859984359 -0.7156179710941805
Ni 7.688419114243709 7.563094465755872 6.0971922437427235 0.3328979526828654 -1.0122929368892695 1.034843825606592
Ni 4.363742032496007 0.35711404812714626 12.114506725618412 0.6673447379100893 3.622265521546852 1.0285955307040349
Ni 5.141963904750687 6.821162829445928 3.958022987616923 0.11389652761085546 1.1547996720376499 -0.8905974820592856
Ni 5.453598363933186 5.555237186437525 0.7859171962310155 0.44088891344256326 -1.189330358824668 0.8058163837571477
Ni 8.887099435909612 7.368197959172123 1.64524830643345 -0.10273022658139083 0.2390873971886076 -0.9867425992239909
Ni 1.1509909899815711 4.88194305611369 1.68891338358086 0.6039400484011986 -1.7623099542886103 0.10040594932358836
Ni 3.1786565340277346 0.10843903715948337 6.053745804989007 -0.7221478017928983 0.5686421444308529 1.02118355451068
Ni 6.605075217011855 9.07631508166576 7.501660814536343 -1.420018990426619 -0.21368618350668359 0.615189910283405
Ni 2.4552063824496893 3.170032464054256 11.138877742660943 0.47098161906288566 0.10267829029753285 -1.033278280891685
Ni 1.8297791107110468 7.015283823778541 1.5603250431734812 -1.0445016604113302 1.6305604576567339 0.24520636560215192
Ni 8.476218095623867 2.694671484671027 4.191089646590332 2.0205857514802106 -0.10557155268492785 -1.4597523044604988
Ni 4.3205189038965335 6.296337249369745 8.348045541905352 -2.1448265984398676 -1.5353031424136205 2.1638694740039317
Ni 5.562515789372889 8.619734579689565 9.671488966441101 1.3405374499605236 0.3511047054988792 1.351625332343569
P 0.7192007181826626 2.418019168479541 5.844802248786485 -0.9488990460136562 0.24565013800778981 0.2702332266637926
Ni 7.722270691181862 0.7395481040778362 5.654826974765068 -0.9415521187302818 0.2784191049086947 -0.3067390348993104
P 5.7568329976485595 7.64470077902604 1.38268415135357 0.5904774951383895 0.3832342390435723 -0.2509162715027356
Ni 2.078438237692843 0.9385099766913361 11.902007959638091 -0.505733163611458 -0.48091996122252006 0.27812677047925644
P 8.677785876271608 7.118473670785153 12.799072879794908 1.4789784996799624 -0.4523871438901499 -0.06947712095521583
P 7.276752918185732 1.8587066520305389 2.1231824915270754 1.1985117682136197 -0.5023601333741671 1.616784229808248
P 6.671507652018828 5.953869170563755 4.9366876805791415 1.6341211784247984 -1.267447671953385 0.9046387906437
Ni 4.72219687590072 4.805148656209004 6.777806088494754 0.21509514803906826 -1.343450252731944 -1.473486623327456
Ni 0.9939170568026369 7.084724872579078 5.54683362356196 -0.9253605965720838 0.0757099892388051 0.039753882859170246
Ni 2.7451638726847656 5.4748735614733945 11.220819488338533 0.02242387622115493 0.8553106338325334 0.17559143351749115
Ni 7.808184367678221 4.715497571273435 0.8199780680417638 1.065452294521068 0.5180034963383788 -0.45313199247597447
Ni 7.07443765585015 9.17766425501606 0.4164379322827402 0.39962836413087954 0.018075626554788223 0.6108254626671222
Ni 4.888109780038389 0.7519749871382123 0.6640057360002869 -0.03243652326215059 -1.5615762171775365 -0.6630954757154321
Ni 1.160558755585951 5.610214464578317 13.30614857284117 -1.0558849625476074 0.16323779704814467 -2.05823904305661
Ni 4.432538378340781 1.2296914681902538 2.9342440373849916 -1.477989910514448 0.6884339544802207 1.0191148449071095
Ni 9.161014100419376 5.342018034980547 6.9772855921770836 -0.8100257938528049 0.23987081232185137 0.41331897424409464
Ni 5.5112852631924065 2.794133266759526 1.346707857717726 -0.3618010088704608 0.7615952091552431 -0.4661638859592681
Ni 6.4634834982923515 4.057629594282441 12.664864411447066 0.5625316606577409 0.9355136258456856 -0.23020526420762932
Ni 2.934416892525305 8.39342515517425 3.9459203247386485 -1.8101970077778762 -1.717882062992538 1.8647290773874852
Ni 7.11545571347049 6.328506992510252 2.5829556746624656 -1.6338460703865412 0.5663582334926827 0.5440953083294242
Ni 4.960578129674687 4.469155637523949 4.135144379663785 -0.07627228950017832 0.10620198718007516 0.7835637430065344
Ni 1.4704179457598252 7.801821429810466 12.236639627299164 0.7496398365655799 0.6495876710369844 1.149333506716756
Ni 8.940675185885699 1.1521028689922364 12.306506740661773 0.5293029805115981 -0.6845248492338017 -1.5235485729808536
Ni 6.599244859846686 6.967510400404327 12.93787649181876 -0.49244493114298415 -0.7553898516754798 -0.09740110105899355
Ni 3.9624191142935454 2.3735907256584223 7.294536441891608 0.9014508798340217 -0.5583173654660771 2.680887980721222
Ni 1.5597793815413565 4.4604941934660784 4.90344343251236 -0.9093539367311823 -1.6132242803711312 0.17869295526095033
Ni 7.839914965327122 2.3319559956456133 0.19851712100923363 0.7276846724507274 1.1083480654433298 0.6551646509041297
Ni 0.02775212636536021 0.32289153340140225 0.7963156008610099 0.47289914780057263 0.3515975859748977 0.6352406582866931
Ni 8.478086799843473 3.2406881705975366 8.002309099419273 2.330258672196864 -0.10438910234105248 0.22842991747476143
Ni 7.614829542075648 3.733241228801136 5.875886274775402 -1.2974439612051591 1.8967477963859267 1.1704263228313134
Ni 1.6090851423756458 2.762215798688665 7.848203602893182 -1.8921964295698186 -0.9496467228129579 -0.700015231559917
Ni 5.171863172264374 7.266007868923001 6.322080518699028 0.5875261258195494 -0.2779822744815922 0.6768449640910408
P 5.581006617625884 1.2244310658120645 6.214989751633991 -0.6702336294221103 -0.12492141796644936 0.4512841406339583
Ni 0.22827997311488926 9.1428970130103 10.090825258968449 0.22198261918752096 -0.554821950718309 1.137004809948074
P 3.7399872510339116 4.1919427100665825 1.00200107125665 -0.7813682780171124 0.700922830975851 -0.19273914894137129
Ni 6.611634368822671 1.75933830515302 12.077597014224876 -1.7487329869351236 1.5660118843513868 -0.11478792907687328
P 7.690605498180648 0.7939685083611856 10.136732781179385 -0.7641737685156967 0.8343029212326148 -0.12935528536808688
P 3.1055247943934763 3.8213039151500414 8.7719760437566 1.4882401274875465 1.3634310667292453 1.5169228401342199
P 2.1144575115257376 7.6838221018634805 7.334564086275555 -0.06574207939281582 -0.5953638766964133 -0.3871168619274301
Ni 6.653381221088655 9.027616649702841 11.88089347066077 0.5163384499311301 -2.102542492959676 -1.801351641572104
Ni 1.2085377364243202 2.921111718481715 13.185136893692182 -0.08518990370478231 -0.27038826418441825 1.1268384109380334
Ni 3.012528728904812 2.120736357703612 1.0973246078508327 -1.0348407402827984 -0.4680914419992842 0.0752577321927349
Ni 6.48849610427177 6.622874624703597 8.37524546617382 1.6666865139553297 1.6042909824372436 -0.24983897927815682
Ni 6.577689356673538 2.176862888939461 8.388374047668655 -1.3628497403044786 -3.1842274472895222 0.21883353203557795
Ni 0.5869319648147708 2.314193962038264 2.2070387246776493 -0.3435261218206729 0.8219058331198424 -0.6597597264739798
Ni 0.08188848760732945 4.060769017371379 11.594110908894804 0.06851835658637231 0.5465447983111813 0.5009110596324664
Ni 0.569312887080221 0.12110791741629837 5.7702456221847775 1.6175036244727756 -0.25427978865832984 1.8941975191602476
Ni 0.26735738140316817 6.841167308116805 10.589764613842547 0.47260089983386344 -0.7371422183192015 -0.06253025732373747
Ni 4.895229543115084 8.862787594012545 4.703498621479348 2.265779775787188 2.7947140601054583 0.5353419876168264
Ni 8.179701453577977 8.047060828070384 4.021626204435414 -0.8913785831996842 -2.455824922836164 -1.0145717056211172
Ni 3.767971096722502 8.220915725141374 1.936556869819301 1.445863976514181 1.4744070782591963 -1.9151376117470242
Ni 8.78868412818409 4.885231975540195 3.011891500765927 0.9219991362990185 0.04138704758721904 1.9239636946790866
Ni 6.722738178199311 3.9369299887381275 2.78113642891217 0.7196767145445864 0.3514363778066851 0.8614915658322646
Ni 7.456550294675068 3.3018788902685166 10.60751450087247 0.05425541890945495 -0.8740552614298882 -1.4966913435786933
Ni 3.231886573723195 6.200846463747907 5.333733134822926 0.8032684205243134 0.31846120843224507 -1.1711421179514152
Ni 6.38696006049951 0.037136758956218666 2.808610118348809 0.6196204352509329 -0.9394867515608206 0.4724067815451864
Ni 5.135367378855481 4.293609563134215 10.587316611314865 -0.557041326967131 0.24206807708348635 0.031302409657707385
Ni 1.7881443806982378 0.2007193889320386 8.453973974945795 -0.20965597930136795 1.211452644645004 -0.3168159595193382
Ni 2.7843599436909896 3.7284012848723576 2.952500343258427 0.6499093160424614 -0.8742689201025912 0.4252802603710289
Ni 4.621025229451282 2.0879219116073404 10.000842479033897 -0.1596847895895637 -0.22134498560352203 -0.27815582394497906
Ni 0.7990850205144652 4.596760105159706 9.45609090586406 0.6972206995339154 -0.09817808843433415 -0.3890066227509752
Ni 3.828526456958816 2.6828893045664146 5.212119732915224 0.05732351631181741 0.04071521833117504 -2.3033685326742397
Ni 0.3703295243681959 2.1272674789511328 10.149942651307777 -0.08925173247898177 0.6012720146507321 -0.6350581099622418
Ni 6.501193949443989 4.311128665193016 8.277317890249615 -0.34608334102488786 1.559451714635366 0.4778086692870481
P 1.5573874401402616 6.163902181326308 3.6415242913507915 0.04852777239705836 0.43610717578320374 -0.9018041494083824
Ni 2.5694869889996594 7.585631038644314 9.852890625502965 -1.1270435849703042 -0.26779273554310007 1.0352287197498364
P 2.0411108709062247 9.018114288746148 0.42349696247229973 0.8848286978963084 0.24266225902405952 -0.4935787876371113
Ni 8.63211474514445 0.7594161673406812 7.8734068167030005 0.8897109656892743 0.5169711984191226 1.075138925681213
P 5.599151735598253 6.38222289530281 10.440772826413408 -0.5665742061582307 0.7560688800203753 0.04080237872834263
P 8.387062217306493 5.902283590581548 9.066512793681818 0.8511796423832954 -0.6797184289840938 -1.9385817017025775
P 3.510641182161737 0.26075338069108256 10.203631457889148 -1.1617241670716252 -0.46016498806335593 -0.9377268314469205
Ni 1.9042750044256171 1.6501125435170831 4.245174618466262 0.6727399407837318 1.51774302204267 0.9074621190251081
