# total energy = -381168.0482456216 ev
CRYSTAL
PRIMVEC
9.27004888232160 0.00000000000000 0.00000000000000

0.00000000000000 9.27004888232160 0.00000000000000

0.00000000000000 0.00000000000000 13.56765357017553

PRIMCOORD
 96 1
Ni 3.6970531623689817 0.44802888788547823 10.760587683044655 0.17487178174264723 0.5150492988060614 1.6817621773415297
Ni 8.767946137908936 0.780299891943411 1.2593389479981418 -0.7692452695013332 2.2422171579758996 -1.5009963987119506
Ni 7.845808006067379 1.087571427653012 5.981354553565301 0.035080645753217 1.0725567667763336 -0.10460018991059405
Ni 5.230847672347455 2.306165728947126 3.126353715059936 -0.5685033048601436 0.7004749448051549 0.43866773742152837
Ni 0.7608355698983975 2.9455951741159314 -0.09386666293441814 -2.0529217446087547 1.5851637746894893 0.8883619078605474
Ni 6.110844161089221 2.6387194695018787 7.1597594840950425 -1.3685753299343462 -0.17442363846163508 -1.3116284802356573
Ni 8.359544855813821 2.978086696127539 7.702221434913486 1.3683339033475013 0.635938455684666 -0.12437274455183096
Ni 5.515623579964169 1.0540880103902657 5.259039745597583 -1.6393474598207445 2.628039212351306 0.8011426324305623
Ni 8.565404835645994 8.818106373459523 11.20486034704451 -1.2946530287235833 -0.6612599651685902 -0.29040275963313217
Ni 7.123940014465128 5.343988621320826 12.809465980900322 -0.3262053711540382 -0.2120944135395315 0.22918196514943753
Ni 0.7863903141863857 1.0179811692389926 7.702276128203035 -0.7692948917923461 -0.6358057867615436 -0.09374267837079983
Ni 1.6599969581000207 5.080190834763248 6.318008436826396 -1.073825606186428 -0.3758873117601978 -1.1137016164457594
Ni 2.9445013083249556 8.839047414322353 8.87937861683759 -3.1172538094824507 -2.6454718060054567 -0.24183153559264797
Ni 0.1797434705701759 4.4888265940538385 4.0018876021764855 0.06519237753693288 0.1611174082710322 -0.31067102296386495
Ni 7.525333139458739 5.47785740002828 7.912004499514651 -0.5878058618434973 -1.11128349392257 2.4481337248394937
Ni 8.735297025063035 7.415686998987042 0.003359465785165926 -0.6766948116664218 1.1143976140715195 -0.24962892014987978
Ni 6.09124727734242 5.623267389835434 10.37008315769579 1.460972292910529 0.08321503936659862 -0.4847902428112038
Ni 4.688512721201353 8.013150931988502 12.40633008668041 0.09861260486859146 -0.18899845095201645 -0.8062987227102049
Ni 6.418025777322784 0.6437780251903878 1.8039144700059284 -1.6181415151670908 -0.6393942754437504 -0.700637181414632
Ni 3.943293475976494 5.9089239521143755 0.5098832903455214 0.9371575892070116 0.5892562211367787 0.504131366341977
Ni 6.075071041704687 8.6285709500503 6.747099541454382 0.32345069122703646 2.5107010060487536 -0.4231372458860971
Ni 9.300918339488213 4.407454103264141 9.517180241388639 -0.10716666508618962 0.17736498047814614 -0.7374533218017171
Ni 2.3407986322953045 4.554662482592051 13.187447596952332 1.5889510096460633 1.046780686253494 -1.2746598734311079
Ni 4.139901946830755 8.685609562015328 1.1180939912408634 1.0098930691985253 0.5425873563253301 0.9180211254878772
P 6.7174112822833765 7.303575025461114 11.81374961553222 1.0116175080887997 0.15968041871418953 0.3855158359888973
Ni 5.501301354141648 6.850696047899038 4.766099323948386 0.026031648177071296 0.15572297672833826 -0.271993403888009
P 2.880278408325978 6.810473304957992 12.027263874886502 1.8920570757784771 0.7721416172125218 3.0616146228515917
Ni 0.13141777773174187 6.800739753428124 8.617224409981196 0.28428250566800717 0.33648489870317533 0.5432118772832064
P 5.768427088317535 6.7207392299016835 7.01757083634182 0.15586104496809933 -3.445615821968176 0.36470275589828804
P 0.7409540956449612 6.9192109806202335 5.429598451543194 -1.0855500937122078 0.3199251945722813 1.1049824914052064
P 4.5921227509084295 7.798586376073904 2.9670692428006356 0.08453710061213182 -0.5111389080080616 1.152442484659383
Ni 3.5051075261999816 3.2731801683659136 7.23621328684498 -1.0008499851596506 0.1441247303677776 0.22795966270656223
Ni 5.0245890804050095 1.3044998460820072 12.4325430044528 0.20106232409508598 0.6073853266373217 1.2080760148632874
Ni 3.816859276628045 6.513127210794134 9.960001215703183 1.5417252438898803 2.4388625839502125 0.045258871837799475
Ni 8.311127389489533 8.293004443545826 6.27779403692952 0.8205434055546772 -3.1305135027058344 0.7188755587995297
Ni 8.654397306776216 2.060713369511079 10.490848722034226 -0.8878661991710516 -0.4599718982159433 -0.4096790634986622
Ni 7.670186926321329 1.4677546803605863 3.4887727727230473 1.5987363711676015 0.9220649565399475 1.1304035025814725
Ni 0.8520000135271428 3.221592345257612 2.100191727511316 -0.43337357890212463 -1.0754695695477543 0.8673811918438222
Ni 2.043925310634325 7.288511195712508 1.0578127161090285 -0.689412002122774 -0.04790119455665298 -0.23207317065430355
Ni 1.704891805775403 5.827505111079297 10.795809234509164 -2.854908213096851 -1.3680577668679796 -0.8490685095775635
Ni 6.390901613726218 0.6543097279457052 10.48357729553896 -0.412617834412012 -0.4534371824212191 0.49421693544174244
Ni 2.6752898131069545 4.020401744191202 4.252346715118515 -0.34594347301291384 -1.379432327253508 0.3480823737327876
Ni 6.499046006247592 3.1725352455470768 11.465658345721078 -0.13723828766058943 0.20793411151425478 -1.0182692090773624
Ni 6.27374673350291 7.552828105018348 0.5877832207513253 0.35186420937272306 0.5283928099925029 -0.3555953942803811
Ni 4.3228927155922765 4.98711027199048 11.654207435908605 -0.12709888523374238 -0.7021335634545004 1.2894748269567533
Ni 2.428845558419769 8.879603879030139 2.924738490699693 -0.012503531783649435 -1.468910573920999 -0.3894277694487938
Ni 1.7975274061925197 5.231264824555877 2.37307787018307 0.14062957273032553 1.6466925873319058 -0.5923060637066961
Ni 8.572107081127989 6.201876043016179 11.050501051859325 0.04446440096096213 0.4477619864133127 -0.11699470692020496
Ni 1.6786668369392153 0.979603166064084 1.2436030396915214 0.4382283358912646 1.0339447108310902 -0.04274896093175218
Ni 2.5483272209611694 1.845397939621319 3.148618518930829 0.0991111417715648 0.6220269878098964 1.2343064093147258
Ni 3.8266299083542172 5.45661044754594 5.827606154614226 2.3007200393077993 -1.2740091272209866 1.8156582880027634
Ni 6.3580207496534165 4.817422023653112 5.9952206929732785 -1.3528093253493412 0.31895743134237325 -0.43217055973295887
Ni 7.794776385903642 6.335995113048686 4.061978841302261 -0.6808286313291371 0.7544809667079653 0.2895640657819207
Ni 4.574111045553636 2.2991853819928485 9.15206081842967 1.8413220113174544 0.045003304183567655 0.7587281720200933
Ni 3.263947199486153 3.558716220006865 1.6028962368061834 0.6781258876859934 -0.22711505531807982 0.41544116279341997
Ni 8.125559547084865 8.280258126066236 2.3559282793923497 -1.6543200219701768 -1.604835542086804 -0.23453140238680897
P 7.923231455950672 2.618529302614209 12.989332743123208 0.14653076870610893 -0.6355450769009893 0.07291442877153895
Ni 0.8226528921621366 2.273006763402041 5.755779033358152 0.23308052887289535 3.0547240663793453 -0.21487994670446864
P 4.730997356116958 1.9054122373397633 1.022122100161271 -0.3766540147228932 -0.6030897845857612 0.17877883010653725
Ni 2.3515148090272353 1.715441121623965 9.21599171188275 -0.8240953845719936 2.2609484158368156 0.5200475233516012
P 4.6799379258059925 3.508027591658942 5.289417696419848 0.4668406003113186 -1.2159998976960542 -0.7410778059281817
P 3.6931597417570345 2.752008739260468 11.175432576252545 0.1590744096990744 0.16244204061972667 -0.9271595974540355
P 0.34930564624010974 0.5107389158752422 3.168101381073995 1.0388097522328754 -0.3540403910884354 1.032376595013022
Ni 8.55853572928063 5.342551763714036 6.026277211387911 1.6550872391535045 0.24134096910947467 -0.140904423658267
Ni 7.5436878366293465 3.241124338660881 2.1172727199388737 0.17971239766440017 0.7556878425318727 -1.1343501459340464
Ni 0.5236993714884886 5.4431225261402645 0.23961964455738682 -2.1719100849202206 -0.13271931674431336 0.9343054644701974
Ni 6.957792924874816 7.515998200039141 8.735737352394148 -0.20725019807335276 1.4819951750190994 1.1824400594627378
Ni 1.1887447432691844 3.35005668535372 11.198822764081271 1.4463062062579222 -0.20760578164055857 0.4151328875243818
Ni 3.24190302278327 1.7684194520936758 5.447345033494413 -0.5359654801334383 -0.187901875453728 -0.7766479897233076
Ni 3.062666623897555 4.334619327673499 9.739689229361424 -0.020265435117255422 -2.6937203565992 -0.788643728632603
Ni 3.791162700589193 7.589426258770652 6.867431267496058 1.300182957402877 -1.3422035248090367 0.5458801681439889
Ni 4.121296958335092 0.5399497675188304 7.3108214228238735 0.49857418396917363 2.2351327403252923 -0.6122516535906875
Ni 7.897293858635843 3.1999745908122286 5.22134865305921 -0.42661877667679426 0.3958375296298796 -0.7382578199808834
Ni 0.5988525863530545 7.3459206096405785 3.394572388021891 0.8654029850715289 -0.12299643302959463 -0.8338835743070091
Ni 5.178147443350025 3.7729563242038013 0.011458707662923843 0.5762556951120527 0.166491528098752 0.021423717091414718
Ni 6.329153816830551 5.46862443114852 1.549724162310783 0.2792457145750481 -0.4836797833558444 -0.08551206293089145
Ni 2.571965846105135 9.121969312123856 13.207392107539484 -0.0014619292575071597 -0.8504458495410644 -3.032641889768325
Ni 5.041525460066981 4.891285774691196 8.08990323031869 0.058613695878150664 0.34879996862510254 0.9324473282155361
Ni 0.8490354518326173 9.408265507789045 5.365477522084053 0.9257460049359606 -0.9661051254792975 -1.9002357549345275
Ni 2.5830899049964127 6.466860395855495 4.392446820814899 -1.1203139795559545 1.5176800300152187 -0.9482984363151797
Ni 0.4863494167561154 1.001600992521586 12.54436760645737 0.10343445173726702 -1.253263410033203 -0.8398930137258824
Ni 1.6907364408362517 8.005225040028467 7.115108438710361 -2.318798751186381 0.13289209487675177 -0.33464990237696557
Ni 2.512600451822015 5.9352694315885515 8.253705924497664 -0.70577167442772 0.46766309621261387 -0.7288987473634867
Ni 3.496402950117557 8.63754435755593 4.868209841526148 0.9253032609715871 0.9736556841330457 0.4321132241324623
Ni 1.6785277862030745 8.248471127784411 11.015604879117387 -0.7570227592932124 0.9533190294582228 -0.440136608657571
Ni 6.240457987270761 4.514059667638887 3.633512537982002 0.2862064621635974 -0.6854707580868389 1.1003455068538275
Ni 6.654133927290157 8.933490674309304 4.23013660453717 0.49091718164454806 -2.997934053973495 -0.8407502195198552
Ni 4.194465455692473 5.3865752267762685 3.193771073970526 0.5842302286770971 0.8164903185312261 -1.8750209462317968
P 1.3235034466879403 3.6202137255774796 7.807574615658057 -0.3233851280964237 -1.1531487666977882 1.037419042532936
Ni 7.275032544355909 0.975904416482734 8.31786764217274 0.6473459261906592 -1.3947483887852883 0.567334738473339
P 4.924954592935464 8.77328568617675 9.25560912061913 2.660909994937398 -0.08400076849268759 -0.22686180165669315
Ni 7.196765520006694 0.43122043490075734 13.125321582054358 0.07756015507366641 -0.08018807961481673 -1.172049203146717
P 8.518312986339584 5.7917227216456855 2.1440557457294407 0.35876350759571757 -0.166073723835043 -1.084628610339203
P 6.707659190655357 3.4660435393934437 9.10675808859494 0.15920322196745484 0.38332782719864306 0.7957546286457714
P 0.15596301367534657 8.93863555154652 9.240264408383519 0.02106067732504115 -0.23107918217215043 -0.06867802209268818
Ni 2.878498558903374 2.3603955160421055 13.05871720644774 0.7166348423944691 -1.779755403458567 0.06571019771361587
