# total energy = -340862.75044415414 ev
CRYSTAL
PRIMVEC
9.30168417320947 0.00000000000000 0.00000000000000

0.00000000000000 9.30168417320947 0.00000000000000

0.00000000000000 0.00000000000000 13.61395501613934

PRIMCOORD
 96 1
Ni 3.991427167173567 2.12814166364833 5.095594769716374 0.8150708124758802 -1.7019191119053785 -1.181004869678108
Ni 2.182398388449833 4.621532566587012 1.9382049899372424 0.19642173999928106 0.39200452903703453 -0.20622612768421258
Ni 1.0879063979657477 3.1438762927584523 11.843432847461433 0.4620205532148559 -2.18898015302863 0.15589086976477023
Ni 6.82624569578754 7.673387296091345 10.353127213088117 -1.3127700500392683 -1.6133201825190475 -2.9291884118676648
Ni 7.286604657535524 5.2658416379997535 10.700541402809739 -2.0267659121489934 -0.7927369248653702 -1.1778812364474616
Ni 2.381324209914765 1.355115884228868 7.691013057762247 -0.802983799404359 0.3675355973613928 -0.5478372918703597
Ni 6.731852203024699 7.027338809705541 0.11235597540713814 -0.6241638316472412 0.22889040205094774 -0.29740850152700393
Ni 2.103203847911517 2.386561058202652 0.48677388495924956 -2.09623634823599 0.49988390391953264 0.3961581461940919
Ni 7.392588048995893 3.74563945996374 1.7294082210422825 0.3544062590682864 -0.5329971415337336 1.8613907570428718
Ni 6.884548653280396 1.2310128116587231 12.879455380302836 -0.5820720446835137 0.7812867740468996 -0.42125185593792613
Ni 3.8536413169276105 2.3649253404093558 9.415696953324215 -0.9991288887034858 -0.4141101026868223 2.8774277343556056
Ni 6.184401570727002 3.866133479006886 8.550897965622724 -0.6034137435840834 1.1015171585644254 1.1979124440667241
Ni 7.931183477794357 8.544964421177175 6.26648986526596 0.2157026997160801 0.27998542095455003 1.6376950118189857
Ni 8.508036734315874 6.142953265272605 12.278780510166255 0.23330061530350144 1.9382945094794617 -0.8767988856132964
Ni 4.777772958579272 5.806390420511282 12.139223619220454 0.7706236379060987 0.264947295674505 0.40531615854427616
Ni 5.313150004593349 5.324963143715227 4.651562124335884 0.26036404717919676 1.8696424555287026 0.8603541097937117
Ni 4.611523954228635 5.6465223716233295 7.310244888305801 0.5258070515431977 0.00837022634156623 0.05911686076681432
Ni 8.933635301655627 5.646373544673762 6.093851533936727 -2.067344347791988 -0.1065151475451198 1.0109595627898265
Ni 1.0272036059111258 4.623290584928771 4.543317493410533 0.28230738421950735 -1.3110985758741163 -1.5940718758123966
Ni 5.197185905827648 4.845061343152231 1.6151323779857305 1.0236623550684758 -0.022381967239625968 -0.9609963434978225
Ni 1.999499369116393 7.525648643593099 1.4283629277951146 -0.7776139531810027 0.48873560061219706 -1.3415208969197154
Ni 2.2195028073137446 8.150340462716045 11.808037148012238 -0.5984350594225694 -0.7983925804892508 2.6279736492206935
Ni 0.48616927547663386 7.187030126590884 4.596670094493417 -1.5211818725208899 0.33393564991876035 -0.5606956358902666
Ni 9.154699131868645 7.740378026765172 0.3974470196607282 -0.5307546253564601 0.26703040345577883 0.16771511609320794
P 0.12305012190195867 6.87421448196984 2.4679107990043847 0.005840003720544781 -0.48380808140359255 -0.3166557797923902
P 3.077592490095069 0.18223022822882368 4.979290229303537 -0.7254562973408409 -0.22460437308108416 0.4897789542750468
P 0.33700281443097885 3.4689608590344223 1.6186177191109017 0.13870638756568368 -0.8953198272356194 0.05777757313010049
P 0.021145519028159972 1.152078718282149 4.108147492876756 0.7558590780024144 -1.1365859772431006 -2.107114171490758
P 7.101715077751627 3.014396846635201 10.350132070728082 -3.2009671286417065 -2.17156144333155 2.5249096934489677
P 3.3375931709885407 4.8911232840432035 3.985526178623237 -1.5628247448726569 -0.788823705853893 0.20644724255608315
P 5.1892701724475545 1.2021217800740378 3.184576742791275 0.18219968286262814 1.3322862656953247 0.2932574554731079
P 5.219761093740084 8.17139947607977 12.180487751324762 0.2472871593905806 -0.4897139053650662 -0.026783952962063554
Ni 1.8045639702367253 6.040495212180104 6.066378079046667 2.5686079056678666 1.0173191864592672 1.7958024296191006
Ni 3.8953965779654887 0.7178044699510778 11.62830535219927 2.2261228235171986 -2.443673375075295 -0.9935825049639597
Ni 6.097049453015547 0.9296307974381601 10.461085352135553 0.4032857583778086 0.06880194926506215 -0.3613160988142422
Ni 1.7978202490844726 6.499477524644594 10.095728213306764 -0.2586640337689545 -0.5997869454647735 1.4242330285079665
Ni 2.6602259134032393 4.585218790892675 8.5980026253291 0.15007426308299318 -0.5559938595392231 0.19436948545594268
Ni 0.7483939890976959 9.256515368741137 5.9060468062781855 1.776950072799288 -0.01381119485147944 -0.6610501631506293
Ni 5.948241106817288 8.510343552034163 8.01394986512228 -0.03235810461573137 0.2525031563738812 1.2817409486476055
Ni 0.12998824825708316 0.722379968481827 12.958974549624894 0.1156415353264202 -0.024093807724410117 -0.5202475551775493
Ni 1.1221365963661474 5.243312958509055 13.097618945336167 2.3185426693115168 -0.47381857429104857 -0.3922757804205502
Ni 8.114733615032153 8.513924700508118 3.1366553951991505 0.22761693465516283 1.258337996342633 -0.6975590567099406
Ni 7.941452537314476 2.017563240120082 5.319939303998907 -0.8160694289437235 0.6707344803179287 0.14741831351738482
Ni 7.31752345630806 6.705807486850482 7.880383258896546 -1.2297987512523596 -1.1372819748688607 -1.3110589808854325
Ni 5.969104784809705 3.519013222510659 6.162003114817175 -1.3349103335817332 0.5395683669933481 -1.1763342036753162
Ni 4.736417669968353 8.432776806256735 3.1185896638585917 0.9388812567663378 0.25029252187580764 0.9823956351092049
Ni 5.317903165295144 2.7466478626799007 11.883117553563462 1.983201397294481 1.5333671017331723 -0.6389301913231383
Ni 2.1885468018038177 0.471837240233336 10.351275247734444 -2.576858832822749 1.6991914285615706 -0.3617457301524931
Ni 7.304547606642691 7.047486258003167 4.635497185298567 -1.046769116289268 -0.6772920789307885 1.8395749467193607
Ni 0.3867891497348646 0.8292721345029882 1.8061768823026572 -0.1004709982335689 -0.004650868508450055 0.4049500334541091
Ni 5.659572634763482 3.4498179926463726 3.601422425159621 1.1658960390611275 -2.1065629269729786 -0.5688979691954009
Ni 7.442249741729516 5.760523814991617 2.8531307545897526 -0.22308459400244804 -0.3203771945080353 -0.1544816481220694
Ni 6.102788592258222 9.241921025999227 5.170444493495769 -1.363446493348213 0.8993289483950125 -0.7376178724040393
Ni 8.559316920126038 3.779097618563261 9.373902625212075 3.6168806030858542 0.99675833158878 -0.7142845969947376
Ni 2.796402572257003 6.948693068543753 8.167610900044856 0.1857174662078995 1.6963909829982977 -1.005265854839159
Ni 4.363736384884001 0.41144326409906556 6.996552094850746 -0.044999447528825724 0.3759652161859848 -1.4944423996435166
P 1.1417445469715937 3.763907968023084 7.213762237238413 -0.45392929156628925 0.09228897664340881 0.01352863061405412
P 3.0051416707090057 6.106053483464347 0.168163290989442 1.16978766080605 -1.0807202764237323 -0.24146566761279706
P 4.813240280997946 5.396548906456932 9.601691573208647 -0.18360427651963865 -0.3287471637392855 -0.3799810222135972
P 7.65815113712943 0.09876528440637074 0.9353578444911836 0.7081036649950062 0.15083685228063057 0.07085986023535538
P 6.603433148917113 4.121511222779434 13.356134147239272 -1.230305772795765 0.6505356367725507 -0.45416094796112105
P 0.4143723645002302 7.520086236353034 7.294874785089274 0.16647224482504233 -2.145728027208214 -1.9525425347580434
P 5.788531186563248 6.983509273058072 2.0069555992896975 0.3729189731604933 -0.274536739135153 0.40676728916850596
P 0.5673515859601036 4.871422316594278 10.949009855448642 -0.7163851882775082 1.6679283567822305 -1.4516880393951257
Ni 9.110478924478562 1.3845092067683418 7.727634719208502 1.2968407804035214 -0.19739850209025359 -0.29807184614261567
Ni 7.419590838657947 1.614093379844066 2.773162313913688 0.3545978062538022 -1.1646961052157556 1.2052025499702341
Ni 4.164066428671235 1.5170210019890196 -0.026337719231177125 -0.48614367151530474 -0.1580536817440439 1.525039298593767
Ni 8.46586289748234 2.9218543890575983 13.360558958483585 1.0146367545310977 0.3365743730931881 0.0755840051839021
Ni 1.225878281898663 2.221735211557249 5.587249248452985 0.4857636624680666 1.0793133687738767 0.5198858009627563
Ni 3.809486221327964 3.9634011922332397 13.343513621915996 -0.6707205963608577 0.5339538490200482 0.5717480370496862
Ni 3.6978008973623115 6.440653672828255 2.5323314742928758 0.5500044747250076 -0.779087966623368 -0.11915314802410447
Ni 3.2202059145176043 3.947244166520877 6.033895667135244 -0.47402400543363526 1.4550590127498877 1.021409040257925
Ni 2.345940602655221 7.886377264290355 3.657185092657055 -0.8612498821351038 1.0395198909260224 0.4473269557584232
Ni 3.9421096367608173 7.357771844481573 5.133618194993861 -0.3378046459558634 -0.29556502056036194 1.131418059888916
Ni 1.6542859579114921 2.5472197502601803 3.174965312354554 -0.2922948344495224 -0.23438999171293828 0.024190995423906722
Ni 6.952767206288148 1.8196420005647274 7.397142153652642 -2.9447669830322125 -2.243040939428776 1.0900261272056904
Ni 1.1391679804072157 2.320026110061875 9.382792244943396 0.4146150673476989 1.6508366914072667 0.5384226834246792
Ni 8.09024228014404 3.7308776869035674 7.18488701851712 2.145605899808053 0.7726162428560952 -1.2678726753059455
Ni 5.990470753756911 2.1850958769107343 1.0931776624857221 -0.9631254740256832 -0.2141898626159795 0.04239800535023666
Ni 4.278058570355175 8.629460921793815 0.8011075644658767 0.6173105561708336 -1.4353293955314441 -1.427441251032619
Ni 4.074323778082361 7.228990024684418 10.364453874118597 0.5979149252530412 1.9504547989910799 -0.4773962643399778
Ni 8.672974201173455 5.271915637878955 0.8129188432508843 0.18448359380079843 2.0958044029048937 0.844054858413056
Ni 3.9246596769240916 2.7715298683106258 2.0463407911557225 -0.26586672216498086 0.12123137070937187 0.7736608820705256
Ni 7.5097334616737825 8.67375554265868 12.027997798461588 1.539685330641716 -0.8653726460542258 2.446147290537084
Ni 2.9708184554651265 0.48935510236580143 2.3626473579125467 -0.6206535045011375 1.2342891829235452 0.07579200742965012
Ni 0.5725958755954692 8.586226692944614 9.048842243315407 0.5846783719581091 0.8223830298665772 -1.4243075904996438
Ni 8.75932173697533 0.8051063585670539 10.547724960825954 0.2552606645143604 2.223647622503828 0.643300295366376
Ni 9.045088083512582 6.1818715125843635 9.04984961573029 0.8302583188495959 -0.24671483182687834 0.9597537293399729
P 5.701262784010925 7.226348346329604 6.2127289202402025 1.6533800266544105 -0.07848112422603903 0.24744168269057382
P 3.3045070797629363 9.077411436621654 8.858532572061968 1.2850149914131868 -1.90881475485279 -1.2075167999257075
P 4.7156098020820245 2.531165043075645 7.659306406325442 0.28927327401437924 -0.07922314459838614 -3.6690968800780936
P 0.10968360149397649 8.124695718968791 10.97396441421728 0.28804171560012326 -1.752026312974415 2.562310502694929
P 3.2191455225019396 2.7024741637115586 11.595645278116802 -1.5078368186725517 0.9684862241169643 0.02461651299709954
P 7.64143601035619 4.241382028971269 4.8217494618394365 -0.08436869335506761 0.6261356106616314 -0.29707220123350775
P 7.580519279561566 9.618685750512324 8.895767214506751 -0.6113255422319923 -0.7709815354661497 -1.0870536748409279
P 2.0171725693774687 9.506321403589272 0.2767130171614053 0.8123022485918076 -0.601491586860706 -0.07210504549636615
