# total energy = -340864.3143529985 ev
CRYSTAL
PRIMVEC
9.32708917244526 0.00000000000000 0.00000000000000

0.00000000000000 9.32708917244526 0.00000000000000

0.00000000000000 0.00000000000000 13.65113780049817

PRIMCOORD
 96 1
Ni 3.6946372021933205 1.241239688655896 9.993820194711352 -0.5165693349950136 0.9242897321054082 0.8904085059769311
Ni 1.7161843920730158 2.773969565469759 10.35157561999933 -0.028241768454512654 -0.5454140271408477 0.18299749617357516
Ni 6.065415360594969 0.5037234367961485 10.4636107486988 0.5023117966347349 -0.5840075711433298 1.074287376314195
Ni 8.353714070197151 6.377061388270707 12.071278190076095 1.0881145120052744 -0.31956421168843674 -0.35271241630563127
Ni 5.515163739886558 4.3724460932603755 8.140419398820828 0.873319154594812 -1.1038779454871182 0.8264782829818734
Ni 4.02999269032911 1.1667815364715544 6.170409469742397 0.7568150141577805 0.7097869662347002 0.003199223663588039
Ni 7.876288361082795 4.236186648783231 13.217918810372419 -1.9296985402803348 1.8067602141821852 2.1334911188223904
Ni 2.918996473689016 4.49023790134456 3.2272241232142385 -1.3582312676958608 -0.006750174239639988 -0.7086883338538827
Ni 2.5358862894259775 6.829705021679964 1.6740660558812543 0.10853680596083888 0.1106322550372869 -0.057216301309991786
Ni 5.484832046174485 8.777294494010215 13.269056441711651 0.5922651831664316 -0.7295029566063888 0.546986256723974
Ni 5.140774383920195 4.814895218297156 3.084474890150113 1.3589298364247822 -0.19586123951012074 0.020503262159674365
Ni 1.930371665874998 5.263528203398852 5.264670771812053 0.834549490025782 -2.831149934334989 -1.0791470183993415
Ni 8.453831044460802 6.66859821187411 5.571835133181317 -1.0546953131148804 0.6862315475122633 -0.03517423390828781
Ni 5.777693316428293 2.891966569513866 10.255280886843677 -0.8725732775677231 0.9125747576613251 -0.7924173367424224
Ni 1.4901144067737453 6.021130341608216 10.49182799131477 0.8499038609946653 0.8413202330907124 0.7582481470598812
Ni 6.315036245839806 2.6490798425900977 6.254255337093159 -1.631174694201965 0.11618249543155475 0.4685480699207285
Ni 3.984019468217545 4.8187846144465825 0.7899652719246616 -0.3898661425377931 0.6257232057145611 0.41571318550788405
Ni 8.650688586738482 2.4305927807188454 6.057159954043753 1.1816412177105262 -1.0837721758761787 0.9429124894129179
Ni 7.149204458367254 6.5106999207143055 2.9174938796370435 -0.42055971496690797 0.4768162234667917 0.6453000994052241
Ni 4.190978247976829 4.8477825344191645 5.329991174817515 -1.1360897543329727 -1.9037797635320441 -1.9643030177280816
Ni 6.984236233679234 2.5784644511097454 3.931978041945748 0.5958156195218514 0.8131234589415223 0.10976245083782386
Ni 7.109135283647983 2.3537562208172287 12.185592859348514 1.8778756420717724 -0.5217475367618434 -0.680678221794202
Ni 0.8659950386202223 5.32076854912794 7.2030226951101906 -1.2017428735564077 -0.25385787062956283 -0.6829904148671464
Ni 3.8327713915770234 6.986269539100277 3.810796769687219 -0.33050117031591464 -0.4799102890110832 -0.7282577713453781
P 5.274664747769153 1.0761595388988292 8.45652470778923 2.2961689296020067 1.7891018776704737 -0.6247168759372338
P 7.071257974864241 8.415347474886383 4.18709071724522 0.5933532740242878 -0.08547298216283988 -1.6045195535082817
P 2.479168260685782 9.252313814140035 4.0642436268756885 0.2857372358366628 -0.27799178756328896 0.27707416084502606
P 4.902933612192684 2.8318441532567866 4.376295382926726 -1.183954182114419 0.23293397599270207 0.3084372485373398
P 7.892545477362052 4.249477750732709 6.850304830638293 0.06566726029082239 0.35669865464688894 0.24449159892331443
P 8.942999558736137 1.6757328067011643 4.1327184514104935 0.4617498160519725 -0.6094254969958021 -1.4697058161287848
P 3.714932948047401 7.322361867273968 13.364327060485513 1.6776592109167494 0.041687352436457235 1.4183230907814348
P 1.7843467591233941 2.798518463947673 0.9612348780000961 0.39112392620429415 1.0347651498498565 1.620871255393428
Ni 1.7006827700098346 7.548823590314907 7.563098700163102 1.9202080842913964 0.6068793335351805 0.17410302189742274
Ni 5.45179549662708 7.368279126851008 10.680759373286017 0.900009519401805 0.45986545454506605 0.9090819140167181
Ni 5.218888755026779 7.01152729634883 8.359110723943093 -0.7613805220412758 2.7730394033455013 -0.06111152259933992
Ni 3.212725163227948 9.39974711134383 1.5433562294110843 1.5870890167366603 -2.7969696889088542 -1.5397784045761547
Ni 5.22043705181528 3.8215042679595004 12.56327840859835 0.6496781738682618 0.6742540634354129 -0.5458076630348406
Ni 2.5085952267563814 3.6115981280486134 12.685074336027736 -0.38795401311674477 -0.19438208386143296 0.43348542188964057
Ni 3.7436324011691875 9.093650701675067 8.23283686104287 -1.5172416569262193 -1.2655697382043818 -2.1235990565196587
Ni 6.6426129416767425 0.1732394872906836 6.033720979167233 -1.8611058788126014 0.6997115842765692 0.9075029995653726
Ni 4.886340720706283 9.296552197681352 3.7620487385721666 -1.0773498172896026 -0.33314709257919395 3.9411532759935546
Ni 3.790370444585915 8.102554215252901 5.849266599957916 -1.3959730052210089 0.2627104359241863 0.9235988766859706
Ni 8.364738689498402 0.25455211724532134 12.481999356164426 -0.6520983532739801 -0.5063214320147602 1.3852574185757174
Ni 1.7382243035864318 1.3225066158740058 13.15217495752239 -0.23777921990014533 -1.004522291804915 0.3391483044679514
Ni 7.101729574912625 8.599837297034231 8.400036125440584 0.8824175173516545 0.8864292096142088 -0.008293864577676039
Ni 9.110775237239448 8.249120093171571 3.278839301514743 -0.1192444221863301 -1.2886003947716 -1.4510293227652042
Ni 4.118544074124443 5.685942741075999 9.765696384395046 -0.8157886644785113 -1.506785751700218 0.36230545931070507
Ni 1.125835615378073 8.884546691425692 9.541298746169138 0.5796999449069113 -1.5834822732220084 -1.6678645934238305
Ni 3.357136483567439 3.2907649176218334 8.678014159637701 0.8170965846566574 0.7281914368838168 -0.44671271921319194
Ni 3.7467476489243636 8.812392330245927 11.621213496799491 -0.22495018645627712 -0.13985695623035913 -0.22919944865093428
Ni 7.4892328181358065 6.48925694290248 9.638440379013923 -0.2056424872666007 -0.08493947825687308 1.8323005245451347
Ni 3.3458133974153923 5.681652280095816 7.492767784899914 -2.0287713726147962 -0.460241349827246 0.1171551437574692
Ni 1.8081681446524946 8.147585401366642 13.018625965134031 -1.452474539852163 0.5574768718426528 0.6422255742449585
Ni 7.624858020555012 2.5833891541478677 8.449044382341173 -0.3102758444079753 -0.1920909738344111 0.07223025822032077
Ni 8.868811892135327 2.1320233319435773 0.5767041780690535 0.5104624507663273 1.038069017412109 -0.8597509289920742
Ni 0.2714686587230541 3.3943235877587172 12.216375984172416 0.0987388460338106 -0.38942751233847767 -0.5027496555031019
P 6.118850253976416 5.023364986488591 1.1623968718915894 1.3185663450060712 -0.11635501645367703 -0.35385758565366804
P 0.8420663915666173 5.839793075571891 3.2824292981044656 -0.22834918483549704 0.09787624092319917 -0.09638037310396304
P 1.8957868195390917 3.456106225873346 6.969233610882227 0.9440090649112065 -0.08307311447209564 -0.07996670763263002
P 5.337939720137757 1.4167381969235366 12.642714428228611 -0.30397175656681846 0.3295562899041421 -1.4530332405691104
P 7.981264748760958 8.142595408704908 10.840764653870655 -0.9668425178659544 1.0356228698644616 0.13539506380426358
P 8.993701615014988 0.9055782719980413 7.641893016064154 -0.08177162205185272 -0.8531542496111628 0.29056113958786733
P 1.700402957337214 0.33410379278026675 11.330143960359363 0.31412272895789123 1.0399407805135252 -0.6200981462182997
P 1.1847641642319715 6.027743247771149 12.830458471759039 -1.0359067196534675 -0.7236668095405859 -0.11024710378372626
Ni 5.900475117174212 7.257389364691464 5.429029937582667 -0.12037622179792817 0.7798135319354828 -0.7573495465050117
Ni 2.177371639086289 2.4341464016611267 4.9992236818037945 -0.17760614995467475 0.7654791175906817 0.03937567358414509
Ni 8.873410147055392 4.444647089885578 4.657426905944279 0.671351030856005 -0.02185926196693655 -0.25811510324402
Ni 8.9746650261877 6.731164325472076 1.2419746632759794 0.25720518983524093 0.9417886602211201 -0.527846964791362
Ni 6.6159561210650875 5.023364986488591 5.093990637766939 0.12686671461827828 -1.1165930790609415 -0.12765758595068982
Ni 7.831844781581557 0.9991737455718146 2.165288395173623 -0.3672738590595739 0.41543653480772974 2.3772108725766867
Ni 7.312726984246732 8.371081110077803 1.2086284543708736 -0.6931645271866708 -0.8200124727518716 -1.1075119426952797
Ni 6.164133271495516 6.308675171082232 12.925757071800161 -0.7893358696036212 -0.6176594548698201 0.4818039064893702
Ni 0.6868701581154188 2.9629643716467995 2.8924711650334918 0.646837361985357 1.3231153978293342 -0.2834561531119699
Ni 8.172600654298924 4.448331290075083 2.3182769066378452 -0.9972303861291923 -0.28695311052163486 -0.6940214758703274
Ni 1.5721461552970182 0.3797766826232186 6.195199939827673 0.4650847939624765 -1.1815877387647717 -1.024014853311888
Ni 8.745535755667778 9.201630412039357 5.27178267724116 1.2532531256205577 0.800242489213796 1.9226840566357144
Ni 7.134514293054671 6.194063900376833 7.537775653290938 1.530477696000519 -1.0451763178808515 -2.0690772713226946
Ni 3.146801297558534 1.8837175662600567 2.6678552729229397 0.9448549578512695 2.6828247927326183 1.8708755566048552
Ni 6.036771870007707 2.618365738225443 1.8037387100449105 -0.1843460397816696 0.24152891675056468 -0.5567569629574928
Ni 8.774384442214961 0.8044679627465873 10.395750579334853 -0.556633550005751 1.554149328585846 -1.6479195177604715
Ni 4.10822831359383 2.419605469773943 0.3510445846896266 -1.2664125458206512 -1.4014435414172766 1.2052858537126596
Ni 1.8003706981754672 1.5480263029171224 8.092571431802705 -0.17765962890042952 0.5034772776977459 0.824747930554328
Ni 9.286618847803322 5.1226238685562056 9.18417103397674 -1.2462481550576343 -1.6457099117036627 0.8703042790278883
Ni 1.2250105536439013 7.223261545720838 5.203212716397664 1.1595508135693902 3.399271430375681 -1.0570496722796698
Ni 1.0246646800475514 4.998974648525161 1.2027057528004044 1.2212128093555612 -2.566471576051154 -0.8078169591269443
Ni 3.3312071759045976 5.5783547684533765 12.075195567492784 0.3961594317456726 2.8175272013452317 0.9314181156200733
Ni 5.158169405068109 7.189823931342677 1.4656681062757924 -0.8717392117022018 -0.501882165296484 0.5127335061886912
Ni 1.133511809696965 0.714822511401308 2.2169035734741276 -0.5499083154667755 0.04035192145448535 0.6496948860388102
P 6.297249486950224 5.125058238808005 10.904965806185634 0.02877038726447303 0.17295553855654083 0.6274497014873646
P 5.478135196209765 0.18174579253834985 1.9474710182988428 1.513462392389445 0.9585651083485105 -4.260501515016443
P 8.839086459213933 3.0385790828779733 10.250994156699129 -0.04464437818225214 0.7845988691392681 -0.06718086872187139
P 9.302875964082578 9.196565802664924 0.6718311596709703 0.08066733324408043 -1.3402777685412337 0.5433928829457609
P 3.701707135721534 3.931843731862891 10.863533943750703 -0.1457041590397555 -2.8875437397436854 -1.3088342053199717
P 3.1763122074309202 7.630361003116549 9.610128000089261 -0.5420803347819244 -0.6507495525555697 0.6817472864886646
P 5.229279132270091 5.813098946603887 6.687187100425206 0.31916594780875357 0.22598916924375273 0.3167498821680932
P 9.046287743289486 7.221293529923408 7.920389636414529 -1.0794236690994958 0.06322548361854917 0.2761056262841697
