# total energy = -340871.6015690808 ev
CRYSTAL
PRIMVEC
9.22865063907068 0.00000000000000 0.00000000000000
0.00000000000000 9.22865063907068 0.00000000000000
0.00000000000000 0.00000000000000 13.50706305658549
PRIMCOORD
 96 1
Ni 6.816650394019549 2.4225761241369215 0.39047989071352346 0.21939994606200924 -0.3623723079928985 -0.6509236162395886
Ni 7.261286774372443 4.929142196335106 -0.2286878047409878 -2.0897453411950075 2.006304816081164 0.6880158931061957
Ni 2.1506539376052065 2.505292518431297 10.01423105142574 0.7832294995955672 -0.5098574701924766 0.27984606716320837
Ni 5.115680908582368 4.5080850179706236 1.5608896454600012 0.2352986195701367 -0.20539309025995597 -0.6120058561284686
Ni 4.723961610108749 3.0115762840219933 7.7332261171843255 0.5156059426404798 -0.6376261277997342 -2.2525468220366816
Ni 8.230959538100947 2.0779967723391555 2.4021503520191327 0.433880343335214 0.486130301778866 -0.8054078354648193
Ni 7.472696699675974 3.229999983693897 7.928889196165811 -1.3274536201933718 -0.5124468281862078 -0.4536068752298639
Ni 6.97295604727893 7.470777140375156 13.18894403579589 -0.7607480306635994 0.08370817695293326 -1.786175705162614
Ni 1.027785575830666 6.8209509451454196 5.898412590902478 0.21137141933057793 -1.325879847948349 -0.7391199108708625
Ni 4.493706780515459 3.773807442155388 9.785664142006102 -0.008576685925417486 1.7587638888085648 2.994807592529371
Ni 2.5734645595617827 3.1965645829878255 6.08725477431072 0.02155201513916288 -0.6248554583976271 1.5865033194365195
Ni 4.87424095460162 7.7230053867725195 8.952656617575437 0.5475760677891731 0.11770767382682953 -1.1848245005345142
Ni 4.028592024737014 2.0987612359297327 11.75845153022452 -0.08599337344268417 0.8121477252918142 0.5810896261655862
Ni 8.740288758351594 3.8430776926935537 12.177292909607626 1.959538506459903 0.2739464138493218 -2.3535713787808756
Ni 0.21279053141604184 7.219933191550498 10.15286753046711 -0.5651503292275105 -0.5145584752125718 0.7602829181017229
Ni 5.0030175434651385 4.594151412390945 12.332650780462227 -1.3770386302103512 -1.5283071707117615 0.6105956060445032
Ni 5.849506280523853 3.0262682955936375 3.292454875849111 1.0326619874639247 -1.500195757187526 -0.9112712083585531
Ni 2.285152289769239 3.7036973844231147 13.373828973876293 -0.6336817984400054 -0.34611702247630066 -1.6967982457390454
Ni 1.1819501821775962 8.308092598852078 0.6357303544794042 -0.1009206841764778 0.38073769787396367 0.3346280480000947
Ni 0.13906191982871707 9.026303094173448 12.116861860503708 0.14140038945807906 -1.5162810927851627 -0.8309208921342593
Ni 2.3880609713241396 6.935958387485764 11.006041501936945 -0.07585731344994677 -0.30441861429624995 -0.21497584885238463
Ni 7.9160595262619795 5.573726518089534 8.875166408050548 0.5609877132093887 -0.5058192955673612 0.9949310485720542
Ni 6.758971328490167 7.280233193817534 7.474213889815658 0.4170637859985076 -0.5093015976890067 0.14006572980705553
Ni 2.259690443081949 7.25150440485866 8.363073206979733 -0.10655114298937779 0.6964056598317877 -1.3994905314559638
P 8.34386284813078 6.984095028413964 1.166182109959436 1.7694712479237398 -0.4810670283233457 2.3258947388012134
P 4.598313533759545 7.322620385493766 10.958671761864023 -0.6975575140480438 0.6185045764789349 0.8441070518072301
P 2.94857228716294 4.6971708377516626 11.316284736741332 -0.4851689663068611 -0.7223313785586141 -0.617529357049859
P 8.498571944856307 9.089353234284925 9.26303551354195 -2.0220921608224076 0.02448332985334493 0.45973612805605335
P 7.898958836913828 3.5510093621537364 10.088316811786823 1.552529790704552 0.43638562625557104 -1.5207026188916262
P 5.875503388939255 5.3586159039416374 8.375635246019508 -0.578647592382997 -0.27833888649006255 0.48980517952729197
P 4.953062858391451 1.7866944197895682 9.585814024299708 -0.015795058050727635 -1.1281643288383087 0.5427457362800652
P 1.8763507592484385 1.2215780073589024 11.812817510229895 -0.11278915347928961 -0.24516728483410039 -0.3206638725105187
Ni 4.3870604955142545 1.3018211233233776 4.998490890402393 0.5605809646892732 0.01669160172306803 1.6810502388761692
Ni 3.7037066130735994 0.19111335429252765 10.326365236714443 -0.9346389365502162 -0.6794417782839395 0.3945982579061398
Ni 8.480843707275197 0.2833878618939076 7.05379348833462 -0.2847507035536773 -0.08524801063622738 0.6094098132665182
Ni 0.7861647403004182 4.270761042106052 5.069862504655925 -0.6601063111801212 -0.008214160379676178 2.0371171734763305
Ni 1.022479101801963 0.8070694793783629 2.3120307343059308 0.8516051599564882 0.8048419356590203 0.34226422438911375
Ni 6.020817719471358 6.684034686554395 5.121702603023636 0.5563599846293902 0.3563117036211154 -0.04369846932921506
Ni 5.304259152586749 8.505742606282919 3.4082504449408484 0.04580780236273401 0.15765567497467686 0.7052322569844822
Ni 0.3398459769641629 0.23702496758886668 4.534036905998652 0.5749107510483841 0.011900350982011762 -0.2862470855935457
Ni 0.458921408438163 3.9720849978191892 7.435273599095463 1.4355391975494052 0.7563211052404974 1.1258300242781771
Ni 7.433797937882959 1.2381249776779713 4.468041903517506 -0.9913286759327765 0.8074688317589063 0.8165471399110905
Ni 0.08479099492333587 1.9037229365860617 8.954317774662684 -0.8117949699380858 0.9065699462281419 -0.8823236720862676
Ni 0.017527975865592616 7.3729073019849025 7.918150738461812 -1.0133306341251647 -0.1309560541963035 -0.9792354922136685
Ni 3.455437457734173 6.157623234256565 1.9939532981050805 -0.4576067404178764 1.5710401908039135 1.223053719219042
Ni 6.381759468578499 2.7453943180917624 11.250167916073787 -1.4291381791190678 -0.005603462229706479 0.7608462468043606
Ni 0.6993388279452057 4.469832261711538 9.842042890682189 0.3712567549667219 0.3938071294634121 0.694836515572455
Ni 1.6272141107634503 8.987016729060077 6.359463049007462 1.3147796242701293 0.6323265699636915 1.4934504680438925
Ni 6.327005885252768 0.4448910911062721 8.511947950868832 0.5737884645184829 0.42802568432664995 -0.08140035475536303
Ni 2.8276861944638414 6.030535488431748 13.278644672777087 -0.7854946414806601 -0.05135007233720189 -1.3404916843242527
Ni 7.485561438451647 4.555741769073619 2.143921637076617 1.0014811909857462 0.0683301518349662 0.9027575144605872
Ni 8.194063393463113 -0.049660291123224565 1.0133805752890963 -1.0071059933716913 0.6836509312692806 -0.3497764736057589
Ni 7.863465447149668 5.251065211192931 6.484159651491693 0.13109437954638067 0.18918742703437094 -1.144286431211152
Ni 0.28463096111419683 1.7254807811245465 13.474565231107096 0.4235807611814189 0.8321573356445217 0.6406134925628322
Ni 6.256129849530264 9.078038908790683 6.024838642487542 -1.4812850363259522 -0.3390547163128806 -0.19544317813609563
Ni 1.1218439815707386 5.45141921321579 1.4668127824189592 -0.8547786725884633 0.27423334896212126 0.09851104629372066
P 2.9265342698054737 8.811921543413845 1.7772322844476043 1.1104864519425715 -0.24827112057040468 0.8673853056088805
P 5.025609279851686 5.803233826993563 3.456794992220473 0.12085650386845637 -0.9943453512719134 1.2345856311180414
P 1.6485415220335942 5.626237539347482 3.8311699649731445 1.1590378784887134 1.3235046628479528 -1.520280443752543
P 4.691264501441454 2.5598153854949097 0.6785974359808403 -1.705923090858449 0.0502036174375845 -0.33039832618946324
P 8.104287081547941 7.990802366537572 5.549619437293397 0.6301447318210244 -1.6645121320118301 -0.6867871629054172
P 8.979873753584918 3.74289146303164 0.692492092150606 0.9995610911448979 -0.42912868758284156 2.502123805902704
P 1.9877497992492643 1.9399084751365743 4.226346315918332 0.22873407897874157 -0.04931015908903766 -0.4306088716727939
P 1.7735066782469306 1.6294566728312325 7.524555255344654 -0.19854187166607745 0.24901545493559696 0.726994074141606
Ni 6.164766209731724 5.714777212097703 10.693217013591987 -0.47281867227162433 -0.8578316004821742 -0.8100964991897404
Ni 3.960927559383186 1.371958867007105 2.724630777366234 -0.27932541877304795 0.42895436678850646 -1.4856127171670286
Ni 3.590323413218563 5.822106417234776 9.230794300208599 0.8866765497383245 -2.166970224416442 0.171106401162944
Ni 0.37834975251643244 6.643631654732374 12.884941214449256 0.1613025276986448 -0.9596454858968827 -0.6897166778473863
Ni 2.8869156732746526 8.708173054664837 4.17936879349101 -0.2147015121450754 1.1055180521937025 -0.16922795319330855
Ni 1.2397492201632787 7.59041736525882 2.8368077926029196 -0.5476897105489019 -0.6084284231898553 0.9178771437108451
Ni 5.791624184683808 3.9915020784390003 5.376378287529541 1.6477243710305298 -0.22053225989423952 0.8225673779632414
Ni 8.67732167609448 6.146373509315715 4.150612318580682 -0.47685016202852065 -0.4447316842274212 0.04574043945990833
Ni 5.373732433435578 8.70678875709213 0.9859659461592434 -0.9000064340780114 0.972226407885687 1.50502634580695
Ni 3.835759372859186 3.565535258016656 4.27910466500927 -0.9121392127858033 1.0644557349357537 -1.3235296025486174
Ni 2.980429588636128 8.429661611687044 12.697666055893317 -1.0912463727660366 -0.7477274500342155 -0.29277897317479257
Ni 6.74872752645215 7.963402503248496 10.723283956871143 1.1896982836870478 1.6839177902319513 -0.5022146089352383
Ni 4.597962845041127 5.409724170325912 6.72165435739023 -1.073731503810725 -0.10849566831025831 1.0167838827810876
Ni 1.3311497745637575 9.094558193158297 9.309378104815924 2.074605914450408 1.435193641284528 0.2409565891868624
Ni 2.8382899138707627 1.2706282846850883 0.2771059195089716 0.5677144904102609 0.6371175635944317 1.1474928539635916
Ni 3.744607992021794 0.2842359748734516 7.967560010291853 -1.0143215372835241 1.7298119816609048 -0.03805566922114091
Ni 2.8649699424220336 3.7436574410218704 2.020643478171884 0.2834957481006537 -0.8563424175311575 0.8732757029513862
Ni 0.5346572515059103 3.592879749402825 2.955021268121649 1.1555072396276358 0.16716747111985406 -0.8895950089367001
Ni 3.4233494399988675 6.555073524681184 5.068241953630811 -0.29554316618349097 0.11292670749841842 -0.7272555553331088
Ni 7.862967100023495 8.231171797062094 3.2838510050022243 -0.40762140963868504 -0.03779007426458008 -0.48258192230597535
Ni 8.496726214759367 1.7789700393338734 11.263107406918389 0.9107580161675605 -1.1066218267808425 -1.1138718234750367
Ni 6.255308499637126 6.678811270380055 1.907696793484774 0.22559167669501795 -0.15809353384304384 -0.009269084006751778
Ni 9.055345657248802 2.235086860889736 6.026743435947584 0.23165845171438815 0.3043790193075661 -0.5106288011408625
Ni 5.007327323241493 9.113993731079077 12.328030918029588 2.0262270089263876 0.2326511546449606 -1.5482717867591465
P 7.090916657774378 0.49813025288746365 12.309607763066978 0.5165073714088266 0.2032935274184499 0.8757874136296466
P 2.4259445815638374 5.165847852617203 7.3622140646682785 -0.6646183401178618 0.4560216553189436 -0.3019871220366218
P 4.097696159566454 8.516641642505352 6.207899999232168 -0.30072882414948854 -1.368908802014365 -2.3703524548939563
P 8.155330747378821 6.200324200049277 11.466482869109937 -1.061410520351527 -0.860100599022009 -0.40503436563779915
P 6.250398857579265 1.9417080619810911 6.417246398287319 0.16924569380512142 0.8256064218998813 0.03320245489389766
P 7.969908701840209 3.6067688683823 4.490855127515687 -0.5846423765138512 0.13195672754667598 -0.5885118867715864
P 6.600330826658157 0.8738064653584782 2.4639177097132365 -1.9965292247516389 -1.5993282391153294 -0.27466503718290114
P 4.8789844809507565 6.294290319284503 0.09817253812615233 1.4156308886612523 0.8458145214166402 1.0146917761387493
