# total energy = -381173.2438809964 ev
CRYSTAL
PRIMVEC
9.21469968501506 0.00000000000000 0.00000000000000

0.00000000000000 9.21469968501506 0.00000000000000

0.00000000000000 0.00000000000000 13.48664442514571

PRIMCOORD
 96 1
Ni 1.664672375132308 3.8886954566717886 9.451319454410879 0.27811365785313397 0.8754526559980471 1.8421383365711628
Ni 8.35951114292185 0.390175268626849 5.307723286380028 0.23217138679506466 0.04995036377619785 0.061815233534583854
Ni 6.044115098304818 5.934045509361559 4.631461997908503 1.131434000728516 0.5437127281790248 -0.30593273694793116
Ni 5.343152885587056 5.82757886803461 7.036454411484354 0.0963592900580405 0.2442144340025278 -1.3522377691165872
Ni 1.0608146687589624 3.142848441296629 11.743212485753848 -0.013482093646834847 0.09971483679383471 0.4348056833629608
Ni 3.855513322742557 1.6013581729029962 0.14865890870688994 -0.3481186262873618 -1.487956791919173 2.6414847963332506
Ni 6.036844700173698 2.855082581680972 8.757498634027234 -1.153352655178478 -0.4189473761744656 0.8467046373310773
Ni 3.049807617557819 7.322663908306163 1.9810941081423346 0.01909635450981873 1.5794353568461446 -0.06443364499403742
Ni 3.215552422607831 2.151263812029563 11.692434882583331 0.1028019603595907 0.9921627417982976 -2.9725302691884097
Ni 2.2789703363631433 3.424726107749059 7.2940356790111505 0.018782165703509587 -0.9368901944782381 -1.8915559677723424
Ni 5.38175326299043 5.1814441190432925 9.810832809499956 0.9453483525479204 0.5164865454732201 0.6208671631738405
Ni 9.175131865076278 4.274404360312384 7.506545085474895 -0.7741833302328989 -1.7669657078930667 2.2937572348367206
Ni 0.2770933943235611 4.518428040044102 0.5062685068201878 0.3722713122741653 -0.3632225718083357 -0.7830821753844255
Ni 1.609614543911214 1.2572259946966395 5.714480407271708 0.4675070302507238 -0.9047894572889514 0.22172885130550202
Ni 5.400449888856137 1.9512679678751481 2.3546875245043535 -0.20424817802223533 -0.012193970963030612 0.18866240776883636
Ni 8.29259399307623 7.004296030701342 13.16721348893657 0.8962845051417339 -1.0207999459190162 -0.6502566720795511
Ni 2.0880325420983246 6.498694668145657 13.218098904094582 -0.12162783481684214 -0.9991224609455824 0.660155676360818
Ni 0.5049756844402179 8.3581657967531 2.895663198068349 0.4621483370419719 1.8287202633930442 1.0117496627912896
Ni 7.9061663428523286 1.8389684215836881 7.717422568606547 0.2012628701416663 0.983511493881203 -0.9052054617804475
Ni 8.496561372838391 6.977020519334909 4.419762563555944 0.3446278395252839 -0.7604893776855741 0.48555514600168637
Ni 3.681235705690749 5.063698685178332 8.313559278029238 -1.1324017639584238 -0.8687238219146458 1.1212431762384432
Ni 1.775239557864008 7.890842297108282 6.481492666585233 1.403651604812189 0.5137814878372313 -0.8778316977531849
Ni 2.917936048920986 3.874808904094351 13.527239181333746 -0.9168265909591435 -0.8837928004326263 0.6077362822188372
Ni 0.33178355902319556 0.7583928291337406 10.48229231791302 1.0041628515829675 0.2912496810144597 -0.24738151887659973
P 4.024409555119366 3.814609270392693 5.858895025257186 -0.7581833552602169 0.958274059470653 0.5711386856004615
Ni 0.6344910543417818 1.723839962457939 3.2060990620974175 0.07846801159991647 -1.9356048784624407 3.386046961265607
P 9.033750726260337 7.0245407261310895 6.823581024379064 -1.3894182348216266 1.2160724028052026 0.6218364690656452
Ni 8.039438545856628 4.998606045890331 11.626553464993652 -0.26466524565771193 -0.930399444547572 0.7114646110474392
P 6.06719792126864 6.075601727473433 11.614860010965273 1.3408449538986134 -0.17625606368468355 1.6243119056438606
P 3.8782920606134432 3.62926479889795 10.055628681073738 -0.08053466432095809 -1.1170728469108373 0.02481345949925404
P 7.064302155707495 1.0906887254650355 10.613071944625217 -0.5237280575269819 0.9520463333933863 1.237571453219243
Ni 0.6540584693372619 5.397980349313501 5.7714346237087515 -0.9520831001685925 -0.07939026630386974 -1.5878387504184912
Ni 6.880828268269302 7.6370510356034496 6.208239959132459 0.42363115480338004 0.6169596005893181 -0.37525816281663116
Ni 7.122649634752176 4.421203742602468 6.275956023449522 0.21055123742212767 0.18426299314956007 0.9855357234000834
Ni 5.070231907326575 0.49915199417549294 11.895773819820093 1.0257218087006656 0.7253328843890992 -0.7353373038999788
Ni 6.857809948203981 4.978536429756517 0.22122098364138837 -0.5211204447008058 0.009092449219571438 -0.27859265437208147
Ni 8.670921922188274 1.0570642859460777 1.222042427973898 -0.5521271774949652 -0.15124025836663632 -0.25327577287384767
Ni 7.7409928491890465 3.3124081320580268 1.7897858829461202 0.34408867919236225 0.1659873347688238 -1.5169068992946197
Ni 4.398480292930298 5.545581410484963 0.22026357633362742 0.592423820231483 0.8777851607859658 -0.19665468194569358
Ni 4.608206860058683 2.0624801795918652 6.894750758175904 -0.1592569580235257 -0.28339933173210546 0.1560569630289893
Ni 2.8371139170983555 5.729635824009672 6.282402627419778 2.0406961490768403 0.14292839606683128 -0.9001666138049593
Ni 2.314953739027306 4.206621028686883 4.4779027118554415 1.1653267968212189 -0.5913388146974203 1.0947937237976628
Ni 5.524866765366131 6.710079881235515 1.9160069976742042 0.41682647317672084 0.7794728607666124 0.556971392961144
Ni 6.742782850775877 8.412670745987038 3.727290775220963 1.2922169084782646 -0.3068753033668586 -1.1521650626282802
Ni 5.995314048238389 8.265548849204444 10.158585443252216 -1.2652097837618017 1.5773566199402447 0.4118632156341746
Ni 6.474331001911588 1.3155181855426046 0.27081449788940987 0.17763186098628764 -0.032714459513885595 -0.49704540602947306
Ni 0.6604147692496152 4.023073423650402 3.0509622194409993 -0.7596895074920981 0.2958097895813164 -1.4947419331618064
Ni 2.677957622395303 8.966769073516215 11.460019881641962 -0.46180483765962405 0.7944551931080575 -1.054006771688288
Ni 1.3793023374610003 2.186786479704428 1.3717674774460231 2.1426897546025225 1.8526613475896738 -3.9600704246130314
Ni 0.6833805655261563 7.901236478466842 9.10824604520993 0.33984738741750503 0.145417223926956 1.3099870879774922
Ni 3.3397573610227473 3.0118430544396753 2.7763199352605032 -0.41634593399587655 0.5992683539571422 -1.1449582604671957
Ni 5.849878441516627 0.13982016867219985 7.919789355015888 -1.0069059615457434 0.7070114603720921 -1.1603154596495564
Ni 5.634153104827583 3.4064625727732913 4.595668418059931 -0.33202326338739596 -0.7225362954805685 -0.8475014222007599
Ni 7.7738985421247 9.097037284390291 9.044359610123909 1.5259391847002173 0.08711463153132093 -0.2533516204171056
Ni 8.962281514720454 5.737247166032873 9.66079353876513 -0.002701972312195347 -1.1797689403884781 -0.6703362164382456
Ni 8.156354656740852 9.232299862548357 12.294385146100986 -0.14325312639610166 0.9359296303371817 0.9552108471642968
P 7.5395410824684514 6.229422711000417 2.5464002750211714 0.36584483992253125 -0.29748074952583603 0.15600168431102165
Ni 7.463003786046291 8.312691253309403 1.354948807396694 0.5569875909110602 -0.022400479182387228 0.9160691439678288
P 2.7949198067784575 7.3298882329383535 9.849565878580249 -1.6495981910144752 0.16482211081612905 -0.6362490449465494
Ni 3.800243553426386 8.235785368895803 -0.2524035277170674 -0.9579974087704987 0.09966778560598319 3.5037934587501716
P 0.9617658607597085 2.0874151572126656 8.55738392024558 -0.6497128837609392 -1.0519601735719044 -0.6513378209588718
P 7.176555628500025 4.624774890273834 8.64615280916362 1.3278012333407778 0.6279248413515702 -0.7553985934262281
P 2.290285987700299 9.096207961409554 4.18019879852063 -0.7229967800567548 -1.136172800965082 -0.3416559013811535
Ni 0.8082950358245917 7.6371523973010955 11.548680958572508 -0.05515401946432437 -0.6249014811442141 -0.2929360675779471
Ni 4.319335236468711 7.3133386321227745 11.334756174221639 0.07993791127722362 -1.3375236028348643 -0.8394993778318897
Ni 7.849910600659061 7.363927333947679 10.803233861168057 0.2108314876667079 -0.3632246286908648 0.4861768387460852
Ni 1.487814642140432 6.02209196581638 8.186609280548085 0.9678691593582558 -0.26281945069822477 -0.5605948486463442
Ni 7.550736942708388 1.7611594965910655 3.379685576665279 -0.7819876567686662 -0.8521944568010549 1.3138792239430468
Ni 3.2766366674889413 5.186807074318721 11.573091619775486 -0.5490729640496738 -0.7962163987735384 -1.3109078000195489
Ni 0.3717403402350631 6.601291135562505 1.5238422753635674 -0.20748828222608784 -0.8867122880722664 1.0966824561799438
Ni 1.9150818418156945 6.610644055845251 4.264666265578584 -0.390997685039075 1.6673426594820895 -1.351503204943408
Ni 1.2004357999157853 8.667447980368967 0.5249513106362159 0.4282064328788883 0.2645099510267703 -0.4632695951306086
Ni 8.43883127867937 2.8441170889356826 10.058056754467337 -0.6077324255640953 0.8527716694607637 -0.708455134797154
Ni 2.800052394559236 0.6404750803827824 7.822914294696141 -0.8629133858804557 0.03752165109454183 -1.0319119966717778
Ni 3.9793588878658213 0.5495342867251924 9.65831202011277 1.2032127732337148 0.15943770657576414 0.7081167776211289
Ni 7.780533125970589 4.302582912257841 3.9528279242420936 -0.08033154717121649 0.8934663189666484 -0.27706439065301314
Ni 6.18405874395415 3.183089035261904 11.38110980002492 -0.48749092957181844 -0.48926370520152507 0.23933936529841363
Ni 5.548788126010476 4.423783858542536 2.2439480268866556 -0.07562257173132138 -0.7760730910564441 0.059425650256484754
Ni 4.055730319691834 5.807647472397585 3.706764109977765 -0.700335076793181 -0.9954858926342598 -0.23287998282631509
Ni 4.4875772251607176 7.508957493878858 8.54930539294323 -0.9248769720674459 -0.1906899797218264 -0.1269155655783427
Ni 3.7062720450091944 1.4970109125268172 4.536988288352977 0.5198595757105111 0.43869833354914767 0.1487920539364599
Ni 5.852688924951344 0.6558802154849456 5.217524276055209 0.21863915663658473 0.7074863431259816 0.9098061937772525
Ni 8.20110123890146 2.6690838665014263 12.710865618206805 -0.30982255892064064 -0.33364434393058673 0.507758678681919
Ni 4.548523249545038 8.108806805845314 3.980057362109597 -1.8250479567477793 0.4097389702023201 0.7392299540861655
Ni 0.3080428064946555 9.348681520844995 7.461486124991543 -0.022405364278393673 1.130316085073989 -0.5818905248003269
Ni 6.064415081933282 7.782799942117935 13.049798862793924 0.2645210067703638 -0.6766878696878862 -0.3804317365977706
Ni 3.041201087957735 0.6305158328541199 2.2420064896417546 -0.3032215086643552 -0.6133459150961308 0.3170725556148346
Ni 0.3087836683574465 3.000057453413436 5.2720909637777105 -1.1293696620003195 0.8681700062937049 0.3592558738511039
P 0.9936395073193344 5.326695431769337 11.601440643666983 0.12103982352385607 0.2765123748042851 0.161900823404276
Ni 5.172920521741283 8.975863982204954 1.49061130352547 -0.4535495396293673 0.08657495697776703 0.8700584815656692
P 7.40273964944613 2.4299992658549816 5.564292779870327 -0.0708886565907618 -1.3691517712631065 -0.30803589933386305
Ni 6.919797233664115 6.963170825556615 8.45061042941576 0.853704208577362 -1.409821738178643 0.19516318500183163
P 5.2518075666088615 3.110578562646207 0.34360233296866427 0.7906126794335159 2.156624105295428 0.4698860720058617
P 4.141178230807015 7.781620460545332 6.412009222849223 0.2551295382531348 -0.09032054006312831 -0.7153804011620776
P 1.3118507350277935 1.0213849683748515 12.520367365121778 -0.8844458606355929 0.9431924825471819 0.5563885238744805
Ni 2.428626275586874 5.2332675906395165 2.0902145830076395 -0.30077330423417875 -1.419827186130787 -0.7055150783322236
