# total energy = -381177.20903310337 ev
CRYSTAL
PRIMVEC
9.17053496398293 0.00000000000000 0.00000000000000

0.00000000000000 9.17053496398293 0.00000000000000

0.00000000000000 0.00000000000000 13.42200489166686

PRIMCOORD
 96 1
Ni 6.176428455192922 6.12732024210925 2.463125824989842 -0.3103786885344268 1.48049750742765 -0.7734654782302678
Ni 3.275641614898814 6.980216647269637 6.887756565705956 -1.7464670737190826 -1.5532754106213251 -0.16220755601141743
Ni 6.072205328825801 0.36410690798769996 4.604660257711353 -0.24367707344181902 0.8834773260747365 0.21666043564365914
Ni 4.716947035201626 6.476607566092615 11.5105900719454 0.8444006717882491 -0.3325220574006854 0.02726654902543691
Ni 1.8596376997123145 8.506312831003195 4.224267397227799 0.33130309739191977 -0.41536608658111046 0.13201329181622426
Ni 8.548598166302693 4.517203619856066 8.424603367216916 -0.3348095678832815 0.10711267191980263 0.8547683881758182
Ni 7.9677548422515905 6.09691991972412 6.2601976210629715 -0.6030954410127162 0.3122543082905848 0.5770097996692579
Ni 1.2897990172485905 8.013882631572015 1.7451958465778468 1.1864939178171372 -0.29182123724721354 2.7801639302054246
Ni 1.0123444912268331 5.7234865779911175 6.138983328084939 2.169130722402871 1.4451142428323498 0.3331139253484134
Ni 8.275545496915885 8.822677935570987 8.010158477448154 -2.2044965034966744 0.9117594608488815 -0.7102993870947444
Ni 6.028865382040845 3.9965281736839513 7.196704541843857 -0.26585309531822604 -0.627712725340764 -0.019513387442579296
Ni 0.07205013963295794 1.6348312131515028 11.660365995110004 1.0317821559621327 0.2586573489007352 0.6961300375728978
Ni 3.3442647257307696 -0.10007804470254306 6.187879701818054 -1.841654454956209 0.2516914591058633 -1.0688620915335656
Ni 6.872105214208309 7.2087280298315335 4.511350067585046 -0.26035607675939676 0.0063907340176922196 -0.2339665310222745
Ni 0.14302824376461215 6.805270357634302 13.513408246297617 -0.5421304712935696 -0.4975737677291173 -0.5705784422216174
Ni 0.07028481171164945 6.737445083317432 4.157050129358631 0.9269387396924812 0.36520257835284203 1.2967610762055215
Ni 8.585225281719348 3.4840786970984015 2.136058706478324 1.697906905422192 -0.11280637987047024 -0.09921192901548719
Ni 7.849482456791249 3.182780780970659 13.231667412377575 0.5706591748608817 -1.6450249698214958 0.926002858141773
Ni 7.208003557593698 5.273350884394093 13.705745537854872 -0.00884768019861702 1.2529530778816356 -0.3556406456960198
Ni 0.14740992522331967 0.06784269833271724 0.2712332353110267 -1.2000271764168817 0.794447994019206 -1.3130202183768613
Ni 1.8486055465209685 2.290322689303649 8.32217949974933 -0.862883561083785 1.223131366534513 -0.668843433942803
Ni 8.266209892635926 8.869273422158875 10.69904177344265 -0.24061488957672755 -0.20717974984673354 -0.5811603315025217
Ni 4.791851962273042 8.054196301920442 8.138177307141047 1.458542600423114 -0.38814093231657026 0.16364968777458266
Ni 3.429752449795381 0.6987406346440058 8.362606884727493 0.05638686343016095 -0.004266231475521684 1.3686835733774363
P 2.0053941775371307 0.9166270357532884 12.671875050629662 0.07461521351272957 -1.3304204161311797 0.13134866164903186
Ni 0.721106651616885 1.1033161950158212 6.584473228825158 0.9622009053288848 -1.2146747511267275 -0.06421741521817328
P 7.144250000664156 0.20514761141842744 12.79829729023892 1.774680560038821 0.6183153432862641 0.20798681912906114
Ni 2.0636729252769515 3.4990266685879226 2.532329430665532 -0.5067559484490175 -0.7542966186113009 0.06517103738069421
P 9.247292031219951 0.4300824854644254 3.4069077309134506 0.781083656897158 1.3904541322853086 0.04741268495600867
P 4.471552698337761 1.7091859081435505 10.454573660579056 1.3049135301093269 0.895143192448439 -1.4011008133658773
P 6.445225996499276 8.653344013145214 6.691849185007064 -0.7148471543664269 -0.466717444469893 0.43964321396092026
Ni 1.7556896893848772 1.164786288815981 1.8674170642611247 -0.08132733542558251 -0.3613148132626616 1.4380311107333235
Ni 7.302643475245145 4.689123633054873 3.5552071979984166 0.7534106164619219 -1.2669249666806954 4.093036310150513
Ni 5.1679631001256405 5.312985935177965 4.636295851114666 0.2200676615529952 -0.36032416721461813 -0.4863953825147946
Ni 4.164880848901516 4.910876331575188 2.4730978643749375 -1.111467842019234 0.05099011789462186 -0.08649448144881879
Ni 2.528600691274342 4.289086570284384 0.23492708860733683 2.6891836450711106 2.000350655380258 0.3779153979338201
Ni 1.4532087742864916 4.362349971652351 11.588316772530511 -1.4530885192870782 0.16675275217993862 -0.03570979469678366
Ni 5.754556349406146 4.035255341536865 12.121318334333955 0.29391771476492606 -0.744615386767795 -1.1448430750455703
Ni 8.175192336173659 8.07043731879648 2.5803802811033507 -1.4659419782109786 0.37063069134694876 -0.8996400518775282
Ni 8.125588914218554 9.210334776555674 5.40420891161653 2.1125494835737166 -1.4857384441116155 0.4069058716288992
Ni 3.5615422033388837 4.713902417695785 6.452051625443847 0.23758355894957148 -1.1750545656319442 0.3160004055965783
Ni 6.942452385555621 1.7557263715235019 11.314789986501982 -1.905691121622144 -0.4564967951831493 0.13130983799129642
Ni 1.1546987006942184 -0.08490998038127426 8.909043279802193 0.8659436880663474 0.2190703306367324 0.7672454654624851
Ni 1.1018947621441182 2.664471332739831 0.3353196826485857 -1.2372624066192561 -1.7659079560525135 -0.3468790974533058
Ni 6.0194013902757 8.224483959950454 10.1886565842082 -0.01744544916995705 0.1960867252573655 0.015382910213973507
Ni 4.686500860143214 6.934611578424613 0.7915180167067893 -1.3238653886214813 -1.1203150079972188 -1.5036078681928684
Ni 2.8517153093490606 5.724999716209381 4.35301069915853 -0.6055567580690151 1.213308209796504 0.6316370000958348
Ni 0.5359242111983574 3.598187659824851 6.690144382614486 0.605904371216421 -1.178109550408184 -0.6324160443537044
Ni 8.540225468161628 2.232209011187639 4.7249079763366275 -0.8605615978188275 1.0487450090687165 -0.6555397748553613
Ni 3.811173327213888 0.4908849643416178 0.8500810510209506 -0.7229458722141614 -2.9404866104893035 -1.258404073693878
Ni 7.720086212793002 1.4520166047811924 1.6824620531020698 -0.017904391084246584 -1.5307049815199767 0.3383708028719785
Ni 3.938506200914503 1.0679087607084337 3.8443440681186414 -0.39518421231659684 -0.17625503524341904 -0.18939388661822223
Ni 3.719990701127809 8.864706495900114 10.661970804148638 -0.2668537686685985 -0.5200608930880398 0.27098450300752036
Ni 0.25939407506993967 6.953218593241938 8.171866183253872 1.2806009215058916 -1.6717312754680886 0.5094023849329291
Ni 3.6604372490707835 2.387246070084477 12.399838476482756 0.41460426871442146 -0.13958184819210154 0.5798295285062401
Ni 3.571528915579429 4.249634930193636 10.80691477260292 1.0849397138217187 0.10268548938638446 -1.060390563727445
P 0.7099772907581839 3.2563376394476222 9.812545446355601 -0.01531683286272846 0.7964719664277703 0.27707878883071635
Ni 8.249336108868615 3.8476445435413886 11.162396792746511 -0.10251939612216536 0.7133320032734812 -1.4054061256094506
P 5.817264465384886 1.6824904817595037 2.842659406376115 -0.31100475215419987 0.0549627293891247 -0.9984681151910351
Ni 5.577913510859424 8.507064814844998 2.26151345468136 -0.1837631706950061 1.8033609586926491 1.4933201131136151
P 2.6228921286088562 6.293985538950084 11.301555987939695 -0.9632203477323348 -0.09974440448018951 0.17246702895589652
P 3.7669438385672867 7.247464368219102 2.6779584380586274 -1.477355619364559 -0.3407714418936712 0.748640191656472
P 1.1429787574036612 7.985188028632927 6.528516460460275 0.8305457681830276 0.6327705994796456 -0.5535695663684466
Ni 4.760030207016209 5.588890640842832 8.792795748393928 -0.06363737434498717 -0.12890328543233284 0.8304814906039955
Ni 5.2324869819662965 8.62459438699819 12.497564279046 -0.7562149186799364 0.3450464151199412 0.22569297815957262
Ni 9.114942875062424 6.070783895954098 10.394483732244646 0.96023606829303 -0.5181577625280559 -0.8764818685935098
Ni 7.133593839393712 6.648344168598298 8.611437420927015 -0.761272792818818 -0.44113188269130477 0.6827415320811338
Ni 7.779575471107434 1.9663185293672842 7.092065990256812 -0.9101298956652584 0.9211409020637813 -0.38191500601151646
Ni 3.9841387813634954 2.4826838242510094 1.475534440906884 -0.8826836265288477 2.8895682263728815 2.4161083209728322
Ni 5.758802306951942 1.9173203626994855 13.71178525197941 1.3631528733671943 -1.3210880829866605 -1.5937173206864552
Ni 4.641693627813274 1.6161600045915854 6.535174268620638 1.0565963867923351 2.079864848856502 -1.3985294530942751
Ni 2.6608489715506525 7.197961822145215 9.331527977303999 -0.1057150202413276 -0.10910347709758629 -0.22350882602406022
Ni 1.6421309587377966 1.8381144548743353 4.3539240844102824 -0.03126718554439776 0.066168368296957 -0.6777301949094715
Ni 4.5866429082724185 7.791735600061486 4.6308063690694965 -1.224041279943292 -1.0484426473369493 -0.19090852349053572
Ni 1.0558770192395677 7.900635699103243 11.474887346422083 0.5909544347748081 0.5701786356800373 -0.6880200068712538
Ni 5.886602877920021 2.998077042461183 4.58774887475195 0.2103288369986765 -0.5661641152040056 0.601341434436087
Ni 1.7971129944266975 5.760911529922857 2.3071753808412523 0.08138312836418242 0.6155025564278175 -0.7715299517704519
Ni 2.4598400224225445 7.602556640639809 -0.11712331746792533 1.3849422013281438 -0.05429964188382907 -0.9895178479762828
Ni 6.859073884461923 7.604977661789032 0.6017649818156375 1.9290814755216263 0.1771883456909658 -0.9081462895763263
Ni 0.5747935223384408 4.382626023777094 4.254775014868407 -0.06493886676523009 -0.19531359453676686 -0.5143702704611658
Ni 2.2763101123490546 1.6307778368334853 10.4868805371192 -0.637833872935166 0.09033493824083151 0.6838051974589578
Ni 7.498122591975596 6.851526534439913 11.675734894140243 -1.3555097549996398 0.18072027010362426 0.972652439679512
Ni 6.417934485362579 3.2846103977925263 9.516630634071019 -0.6786503927308957 -0.20066483154635117 -0.1749021207599504
Ni 8.629940808702724 5.824894350218802 2.2147244698122273 0.28248376189637153 0.4417805720188973 -1.5999843846420896
Ni 6.17388821709317 3.7404318228763627 1.7613295681984082 0.26968069659443233 -1.248600714450211 0.5931020772454303
Ni 4.1191015398980255 3.171739457244657 8.412724773676807 0.17006253327946197 -0.5565646444410286 1.0384186874420438
Ni 5.558187690814049 6.175676471351118 6.668870576319154 0.5087200141539239 2.1180660425165714 -0.02335744377901784
Ni 8.426015629553962 1.6664328755765885 9.376867100643993 0.2471843152641291 0.5949558426247172 -0.7410438673664528
P 0.4089865875414226 4.677302813883098 0.4116396232174462 -1.255708786249902 0.7998719932482546 0.22349288518446028
Ni 2.3666307081774565 4.984607430210617 8.44330025327387 -1.2070887112493534 -0.604964633010971 0.55294838784468
P 7.6641642924598115 4.069479776873608 5.8998698904070705 0.4513733579136549 -1.4574074583774062 -1.2981322455214355
Ni 5.908969811946366 1.0266505252904239 8.343507412199132 0.7279286701407335 0.04878591115445147 1.251892240717289
P 4.748943030616926 4.630734838899178 0.40606668930690504 -0.4348172533271867 0.4675630802996399 -0.04510023477274813
P 2.5931154025803433 2.3576160726104627 6.225085477971512 0.6630561378370645 0.41909084373086525 0.30298342451162014
P 6.68562239197554 5.211724891504779 10.44701714002239 -0.5442061228756757 1.4248395517437138 -0.7921100899146487
Ni 3.5079495988083544 3.4325678039348184 4.452495410268821 -0.13856754799497426 -0.19004334727676303 -0.03875372372943003
