# total energy = -340862.11739307764 ev
CRYSTAL
PRIMVEC
9.31068621593248 0.00000000000000 0.00000000000000

0.00000000000000 9.31068621593248 0.00000000000000

0.00000000000000 0.00000000000000 13.62713041560244

PRIMCOORD
 96 1
Ni 7.648933533137459 3.7989554864316224 1.304773491543733 0.05809227615704189 -1.730764318271845 -0.5819712574395912
Ni 2.7518570970960905 2.2393689976118583 11.555452583817242 -0.1093130220052311 2.5331079129890437 -0.7854326778944731
Ni 7.015304095746694 5.789207764573247 8.116986382820835 -0.7530118383616063 -0.6886195881284657 0.033382946335819924
Ni 1.0896668465570116 2.044133219073536 1.445430027686536 0.9123014493952805 -0.7996058840710617 1.6445601143699355
Ni 4.573818722508439 7.0788867716796515 6.412750004555055 -0.7351791810555596 0.8578606539478968 -0.35784228133302887
Ni 0.49606218692296017 5.62645697012192 12.093600934417484 -1.266668370585199 -1.3019482768334156 0.4007961591867355
Ni 1.1383058711687812 0.5879810051804704 4.705420616339805 -4.279995104964681 1.3480198743804979 1.3769913219121834
Ni 8.79990193751298 2.041833479586724 5.475176941046111 -0.832619877103237 1.0878355473122747 1.8743704571319912
Ni 1.6325915791683252 6.701710874470083 0.3925115284189945 -0.9800590165562283 -0.7274129068465794 -1.0441422201893826
Ni 7.263135940523891 7.890759985327637 0.3349807985039631 -0.38498490318609185 -0.889099043136888 0.5166644658119811
Ni 5.4918710013694065 1.3335323390209217 7.7652975579643035 5.478150004059514 0.46889645439908284 1.1201784824193546
Ni 2.9177362821043764 7.328692481927312 9.823934963971265 -0.059535179251155534 0.5199742469115045 0.6019361305972923
Ni 6.199743850370863 2.251379782785898 12.4195215041983 -0.1596858180308282 -0.18675387789221384 -0.19268207045119073
Ni 3.347610663100815 1.494411685549782 4.608681655846171 0.259658793582056 1.1323115182374628 0.6617718718080022
Ni 5.549066546581907 4.997873924641486 6.216573846712409 -0.24435867288987595 -0.8812024139976308 -0.023955482374332936
Ni 8.122912634575313 0.7746770223531884 7.566341229227883 0.11350109194464969 -0.21074329882827578 -0.33147664685530653
Ni 8.320680919754983 7.714434210423791 11.873850119163468 1.8916963500049486 0.028124526150358015 0.09786878472403146
Ni 7.471490475891842 0.908522791554278 0.5818974028295265 -0.24764711383316057 1.8715867237392672 -0.08240694164300646
Ni 1.3692388205266905 8.537526800920395 8.136705485084477 -0.14733912354001721 -0.022142340424994123 0.23547191192320738
Ni 2.6925945795513138 5.0454980844594814 11.046928974509061 0.8186294763614159 -0.3964185989443302 0.07042380113920128
Ni 3.6302365421380016 9.500624179527101 11.67424018025711 1.4066973336170483 -1.588420333953574 1.143618972830482
Ni 2.101561531440572 3.4215933754984262 3.261080870005114 -0.9168193918702919 0.7006960596770255 1.6610820232843586
Ni 9.085199983484236 4.2781206400725305 7.446136546351201 -0.7780556687041117 0.5193921491557894 0.6174974753706591
Ni -0.3187634453131553 6.950613448158145 1.925568148033403 0.20854449140474407 -0.4085017553611094 -1.373323643252609
P 9.217132406675043 2.568306229715458 3.5084276280322597 0.6337864423386699 0.7878055490020238 -0.7959297207710551
P 5.084826422889824 0.31359042807075505 9.724102062459544 -0.319876600722533 -1.5741288570315664 -0.18655333184563355
P 8.26947214575714 4.943210886070335 9.768322235409606 3.746094992000703 -0.15198587828340923 -1.5770573435322712
P 2.4073337763247835 0.14025152129391072 3.3494802488860453 1.5003111997194676 -1.3172440266502219 -4.221567042734774
P 4.64009218674783 3.625739480712373 11.643279355498015 -0.884022142834613 1.105589014640954 1.811557121350196
P 8.14038879253785 5.727086866370772 -0.07052379248121131 0.6964334277459296 0.5742893154143013 0.6087292422597259
P 7.195912786293996 3.1302899369401507 7.156669175107903 -0.8127668469330518 -0.8819102386979328 -0.7195486736071542
P 5.6746677031693435 2.2665748226339852 1.4097403054158937 1.165137306518232 1.1954400712668314 -0.6865076839917854
Ni 1.5928163278012735 3.696798637649016 13.329786325137123 1.726457463366375 0.26918318813272346 -1.6991652033093254
Ni 8.197472609516172 7.499832204628103 9.340185228454622 2.507971522932732 -0.5592393630597143 -0.10164547815764431
Ni 5.142338531432493 2.4253499540858425 9.99244721103166 -0.33665330596023957 -0.053868467883681416 -0.03830892288252757
Ni 1.2255842434334687 7.374789689211552 3.9031094774001445 -1.123694465992413 3.4746641454843834 2.1040275621456344
Ni 6.843764013540101 1.0889685450934048 3.1112514458363707 -0.024485643846190088 0.760055118361633 -0.03642199027245985
Ni 0.7484283358705122 5.885871308508811 9.664428943654165 0.9946186595379579 0.8836333920366266 0.05481489095735076
Ni 6.486103314566802 8.26725620244596 8.171931535183285 -2.0585750862397902 0.9663802335175551 0.6677185763097403
Ni 3.9465764158381313 5.748520065960415 2.4679826550419746 -0.2350145126708146 -1.811416482007274 0.45684415122023897
Ni 8.387270947324541 1.9130480683252398 11.729293336579264 0.5578422256018716 -2.661258122305436 -0.77937207352269
Ni 3.789700664367285 4.835039334014527 13.455128644648717 0.14456593167025425 1.9731681814281954 -2.978076138707303
Ni 4.054924870931386 8.94615419605082 7.765065721878386 -0.957084667148242 -1.3557691793086135 0.9834143061817064
Ni 4.971310536965878 9.07877561001905 0.1067051189822328 0.4590149336193126 0.19767361012851117 -0.20107749360373758
Ni 1.9889115393314987 3.3762503337948817 7.221002292347084 0.716932576140546 -0.4088295710141733 -0.6209322120838209
Ni 5.4452151529142805 6.4678543696512065 4.167748972872052 1.5855471261708372 -1.4537955726564318 0.8217592802396493
Ni 3.3766320719283196 3.577659097271489 1.4930569807103842 0.07971036864744982 -1.8609966069282464 0.526435429155816
Ni 2.7180127528266067 5.238974143309513 8.451955077432762 -1.1859411306374608 1.4565427963842656 0.5365460352272565
Ni 4.523662056049097 4.017514533854417 8.18846079636117 1.669738413407776 -1.2349347869273442 0.19443916235161351
Ni 0.5831506211895465 3.5230146800727 10.739282488496528 0.5871306901533436 0.010361545739982155 -0.4704339740895317
Ni 7.436826791238394 2.8153094234225082 9.40465521278067 0.4432502145858882 0.11012651904546195 -0.681108110242769
Ni 6.38756832270877 7.747282311271862 10.71847403594966 -2.329995391233149 -0.3969158502957229 -0.8014035994014327
Ni 6.991142865105893 3.9475726592595444 4.6933064825491515 1.3394632430597382 0.03608954663370558 0.08591444057563269
Ni 1.1081764906856866 0.5091381145961549 11.580962001817113 0.27822961460570794 -0.9646028299021582 1.985194259354794
Ni 0.4291081115237076 2.2230659861081814 8.615344584956135 0.5199261672823885 0.049428429834456805 0.04776852563353064
Ni 3.202727075431645 6.171318325458969 4.591729689515648 -1.5980200618268674 -1.8751906390404416 1.63679949658791
P 4.671487820551598 6.019563451387907 9.504174344168078 0.5917447918865875 -0.22868471379804486 -0.09634437765970504
P 1.5989800020533773 5.922452994515634 2.7125343450774553 1.8262820862651967 -2.9233674343105136 -2.3811996820211054
P 0.38820347392284865 0.38026704502180114 9.69905538556289 -1.294581037835067 -1.08794147676252 -0.8975394605947574
P 9.13622254375845 2.6120478333957973 13.564363477066445 -1.9947808746019646 0.19729437241222147 -0.24761986013965093
P 4.968265942584552 6.959821716791575 0.5212755251022618 0.20030102044902923 -1.5665338182931277 -0.9711118346652694
P 3.7199729355545856 3.8402204475877024 5.177450991159887 -0.9982590845040228 -0.010546922277910868 1.1583650207914051
P 1.3426754328510822 1.1614056835848992 6.842127194909406 -0.07262363700399752 -0.15020178979979293 -0.6354340052444218
P 2.267729347720482 0.6482704914110581 13.711482560487775 1.1617845879959154 0.009675061195918822 -0.66135561020619
Ni 1.0312422907685634 4.179138735277791 5.328098824643978 0.4649894060351928 0.48863275648574556 -0.0023952397050539392
Ni 0.32523530327786454 9.059269722468963 0.4354319295781321 0.1416688126281173 -0.26741658315060396 0.05849311113988636
Ni 8.013670353608642 9.118318094231567 4.810690027512862 0.10885767963536735 1.5079725729194675 1.212402410152783
Ni 6.216223764911987 6.021798016071449 12.52222861453423 2.19591030448956 -1.9875267641427126 1.383152713527889
Ni 5.639836426164629 7.8081183347813 2.335553972277698 1.0277961747311912 1.0052712541557978 -0.16322288464980922
Ni 3.9384574974879283 8.246530615006106 4.006689930099891 1.7659992302147391 0.9193840672736746 0.8277728334235809
Ni 7.858815021039165 4.025447238480991 12.019973890232004 0.5101562323798182 1.265882127238478 1.6102446289175174
Ni 3.2390666835977506 7.5551190591734105 1.6012555337561178 -0.8021636174959088 3.6029102569486917 0.2292472711697342
Ni 6.9366381081998245 7.270519314665762 6.279531775602593 0.7422504860800443 -0.32861192371300174 -2.1697264470053406
Ni 4.464948868989025 0.9406958676541955 2.454314567727641 -1.2152478500213781 -0.7018031766982752 0.19577665021611446
Ni 7.73466633149603 7.2542442352206296 3.808918851714366 -0.2635095347867139 -1.4074768920955503 0.09711622282872306
Ni 5.555341949068188 4.634179901022624 1.266570815072724 0.0581203011814999 0.18479546861426238 0.3874750165977972
Ni 9.009047881206351 4.874544575482318 3.606093001800946 -0.17560068948887175 0.13851175505637434 0.11690626097145673
Ni 0.4378238448581404 4.63859316627262 1.3973533685201247 1.107950315784279 0.3185879638180965 -0.38122826435713697
Ni 4.522591327138233 7.095571521316767 11.936685146996057 -3.8160086862727054 1.0170489635170161 -0.5896043485048169
Ni 9.614307657802312 7.376251466942036 6.238104808506957 -0.5445095130487074 0.289256818954147 -0.11154345399764662
Ni 5.470065374332507 2.0169739474823167 5.384610965490761 1.3247634749557184 0.8931102211788102 0.2643705972354286
Ni 4.1232187540721466 1.9984736140398232 13.475883095215734 -1.13640471447023 0.24953661754638956 0.40448234978907116
Ni 7.470335950805346 0.37369928698942323 9.935895034234296 0.0338953671958642 0.9397487469729556 0.17113571173898268
Ni 6.515338869176479 4.828074940750821 10.434920812568803 -6.555998872472722 0.5317550415965164 0.3849630488092209
Ni 2.3824835549065573 8.523048683908277 5.949169077444618 1.7702801169782802 0.3206487030018671 0.2967986358571469
Ni 3.6650119550256277 1.7913294678754574 7.023913687258658 -3.802709398060638 1.093940374658432 -1.2606046808896225
Ni 2.7789791259425844 0.669861972665785 9.697120624974389 -0.6869172607253783 0.5746135315229394 -2.066422607308667
Ni 4.983460982432639 3.4390322907162374 3.559065656967181 -0.27913027204310636 0.044587042581755464 -1.934030077776153
P 2.5597497091147274 3.0176678768896217 9.255097660648424 0.10206559641419843 0.1775668120763071 1.3023817648264084
P 8.447343494567102 5.651474783891411 5.824944040274796 -0.6250218087721623 -0.5769012991158516 -0.3826909649455925
P 5.768314584782126 9.282297899258843 5.555740446436753 0.4953690467683146 -1.8004388999498475 0.46734582208251124
P 1.7578016869361421 7.171583963301929 11.840299992577316 1.676328150810152 1.5115613187119905 -0.8154726758999892
P 2.3649608435131135 6.5425446941986065 6.739161247497634 -0.09889105534095873 -0.412861832102018 0.18793478557419246
P 7.058226359043068 5.389593113666441 2.834470815583883 -1.32626628475349 -0.16827895901647794 0.3320435751023701
P 8.322636163853083 8.99591050300436 2.274272897968788 -0.6394061025182923 -0.5006827456717442 0.3251422199968465
P 6.807173016847097 9.359101749569426 12.137467301292656 0.28348494946737635 0.3124653958601264 1.1437596121734044
