# total energy = -381165.0096258969 ev
CRYSTAL
PRIMVEC
9.33933016317182 0.00000000000000 0.00000000000000

0.00000000000000 9.33933016317182 0.00000000000000

0.00000000000000 0.00000000000000 13.66905372775853

PRIMCOORD
 96 1
Ni 7.629887066666175 3.8094660162795617 0.36204846734354057 -0.4078286405534847 -0.06937761926287406 0.8235965905587042
Ni 8.819409512627706 5.8784358123899825 8.407998950425332 2.0646362048322056 -1.5222128848885654 0.2000796484668425
Ni 7.716966979721717 4.902214324630461 6.323317599431456 0.14118570234411168 -1.087425970578682 1.7732777661540233
Ni 0.8202985713678222 1.7564291171739408 -0.15383931186545605 0.7174532245307064 -1.3129880795873452 -0.08487262957467964
Ni 4.24084033032101 8.118838350247245 10.522861280294187 0.19509607920932207 0.2051074406987371 0.3814403803679431
Ni 1.284961059380085 1.363925094652995 11.233023000666577 0.16696692507327374 0.09773560158027683 0.009144128393113283
Ni 8.286600735298371 8.888968842575977 2.272616688876404 0.021685969613865878 -1.2002642321283523 2.1133714652543794
Ni 3.2359190814268164 1.6641565366303155 7.692793057912089 -0.1610356471905033 -0.37952439429215284 -0.2509026446559808
Ni 4.362961409591096 8.995082310201147 3.316836904538768 -0.12965379044511216 -0.04978118518818524 -0.13228660008226895
Ni 7.452897423560685 7.290000829447131 7.38895756848216 -1.3083611223382952 0.631605375526951 -1.2843665591959106
Ni 2.275425025411775 5.3109034060666 5.157429262004711 2.567707505340784 -0.16455265920482626 2.689188273056801
Ni 1.4772765430394306 2.687868517513757 8.999130909762448 -0.6941978535471915 -0.05784493603292619 -0.816086398224588
Ni 0.5701427490624462 3.825977951745263 11.008960332488815 0.7751765473841037 -0.8968491193959521 -3.3977891894032
Ni 8.712137968080734 1.372302473676035 9.767974442415179 -0.01926501887719908 -0.45930649671780255 -0.1802289322895025
Ni 3.860458758158933 0.6768333872825139 1.327549338179375 -1.1399592645907077 0.05724406922413367 -0.09750883028145142
Ni 0.6984389933381436 2.399021718824158 3.8251346102449504 0.8636533493702739 -0.47686610286812064 -1.1183691971247578
Ni 2.35056927470874 4.255036111943106 3.0071101657356674 -0.7678378476308454 -1.097479498159942 -0.5517903629808368
Ni 3.6868312738586764 4.394276183129838 12.761223174543272 -1.0814491841699567 -0.7748142789486785 -1.3859673001585486
Ni 7.072142278198026 5.1253589366677925 4.153943468133752 0.4742098961921962 1.08713055082545 -0.9942461066898877
Ni 3.477863764783412 5.2983513465270615 1.0424980432076831 0.9320405796954208 -0.540685768427243 3.297662718993243
Ni -0.17379465830751722 6.48340025341163 12.712835171804954 0.5224329928646422 -0.15012105716052856 0.31413044226737513
Ni 2.503472785706739 9.125515393184171 13.193931144910797 -0.705879660760494 1.0862201231960391 -0.5132035038465742
Ni 8.151283182717744 2.553242075354207 5.5190583934305995 1.0330808201688981 0.763927971053478 -0.7905720560035675
Ni 6.49741858776345 1.149652846129473 13.090155311588266 -0.03842205142162415 0.9791172214682491 0.5261947738999196
P 0.8860932173872338 -0.03141096863789222 6.787874553014554 0.862623879664495 0.041601991811502544 0.777496453766532
Ni 0.41587849768132884 8.417388712821948 0.47544381058104423 -0.10318556895125455 0.14380128559008784 -0.4650912217203797
P 5.690313687907164 4.507898472086695 7.7575155488458325 1.2910012909036088 2.7697823298607847 0.337643952008283
Ni 0.9063978547718387 8.088513545690041 11.357261306050958 -0.1381955093675362 0.19324848447762202 0.5256067626069335
P 1.9070631709784076 4.900439851927699 9.192725881633786 -0.2818237597148695 -0.5299737813263776 -0.6893168713058064
P 7.4101513100841485 1.1808648870380558 3.5704389396195078 -0.1769849714309081 0.32482880252148577 0.35898950756359466
P 8.37225173086169 7.767277950510029 9.28273647644789 4.29196204751857 0.668399661537165 0.44691969301767553
Ni 5.706965713323083 3.2425780237271815 4.179572457559645 1.330281062339838 -1.3906544212215728 1.0178007540813763
Ni 4.305645941291882 1.7930579694909548 12.764366793026165 -0.6687511313393129 -0.6611542928286613 -0.4957739955162172
Ni 6.5767842142269854 7.843318775488388 0.8792633653476029 -1.6470103756826409 1.570014577752877 -1.2564492639603522
Ni 6.54037950583032 1.0417368878114983 5.86734535799772 -0.5751971719405513 0.2646881284758474 -1.9359198385996979
Ni 2.1819103139762164 5.6921908932400855 11.188421162316152 -0.3037107895959479 -0.16345479815495723 1.3617053422873904
Ni 8.292101600676935 3.0228889637952276 7.87517896589998 0.21951975946932517 0.03398381314461244 0.3960427036621502
Ni 1.4514719742092648 -0.17153267257799634 9.357492209616249 -0.34375674977424026 0.9683034186821969 -1.8832075958076469
Ni 3.099004503413704 3.0751798725466206 10.638651227747417 -0.4432070200527787 -1.1281622719557798 1.3941464935352312
Ni 5.438945620565901 6.504787319144919 9.121373400322723 0.6899413922636828 -0.09047120670837967 -1.1697308394261854
Ni 8.142448176523994 4.61309668537044 11.951714331141243 -2.174454191498313 0.9914343482727055 -0.3556522156602456
Ni 1.4608393222138454 -0.033651473908379644 2.901133986261712 0.15574174578141564 0.8735089020081149 0.27388265049092186
Ni 3.683655901653734 6.485641692615118 7.301625493516225 0.6231400183684171 0.6407677587525094 -0.30983772842929225
Ni 8.007382785853759 3.267495356205966 3.010144514057391 -0.20371775944006207 -0.14446154488190605 -0.6470906156467436
Ni 6.598610228470958 8.583927645641172 9.141056972261362 -2.1484683089575127 1.438803984343606 0.8096488701293604
Ni 4.875587894759016 3.071640266471111 2.0532965324800245 -1.60284010892333 -1.3684611729539853 1.8530896933763439
Ni 6.097788656441413 0.6209776562645725 1.6377710614732457 0.5553158596355919 0.6982013182796298 1.6808201251432342
Ni 2.787846045319376 2.631785840776463 0.649859534334528 -0.4454665055109167 1.2458552904945899 1.1839359272819738
Ni 4.701017138127291 8.466634999988601 12.971084457500927 -0.058192806290648165 -0.3455562648768242 0.6126650869790222
Ni 4.816049665916342 6.119577313365328 11.74670576405914 0.879683406249943 0.7681548646506319 0.24738306153849657
Ni 3.7323885256695877 7.233852777399734 4.682415994537338 0.9487018424011856 -0.39954711727098285 0.4866429797492264
Ni 6.430063339698609 8.306110595698739 4.766891168451826 0.24536346000530648 0.7381032966808901 0.8753649813802472
Ni 1.1028254454365847 4.056902225684705 13.050214732848096 1.1695991989443277 1.630295119810489 0.6758221792534812
Ni 4.120783242984137 4.919426709847252 9.863110461541263 -0.8009518565759949 0.46821562628197433 0.025099109060472902
Ni 8.621425055649537 -0.20687923488401447 5.293327720912242 0.4888207041268356 0.5170473030726966 -1.654192752363693
Ni 5.580810043486718 3.5642152100978204 11.63595905481376 1.1973673701965315 -0.27236544251544703 -1.139734035953779
P 3.030210998526625 2.06172247601914 3.1524805731439414 -0.3992041321092673 -0.9982230890597646 -0.46397073496269126
Ni 2.38646965928462 7.533056893075455 1.7904821822729455 1.4228050378121884 0.8049103270031105 0.18840041235670132
P 4.626293158680981 7.247394805920813 1.4099082199125694 -1.446867992298663 0.020161048328907215 0.019885168959701237
Ni 3.496785247392863 4.1987759879355355 7.555870074501964 -1.6181317449750776 0.12051403292737307 -0.026645113391354114
P 8.423674081921732 6.956166478077506 3.383637396400745 -0.034408302276540736 -0.6377181732929081 0.5012545590148142
P 6.770892849249122 6.653646900246624 12.68151946433321 0.1441365574423195 -0.6877209875735962 1.6962182048658594
P 5.7200781326634935 8.505822828729599 6.843945088622831 -0.06622801789029885 -0.3938672932773862 -0.6068657066884258
Ni 2.720752298494942 6.765690842431025 13.34635461434605 -0.9628079427852644 0.6762543816948935 -2.5335732826612367
Ni 8.021681300106016 6.374895917302739 1.1653868154049636 2.2033346219780894 -2.2324744767668387 1.0823138461630972
Ni 1.4394055598304831 7.080426263920921 7.231284461645737 0.06417036403032175 0.5047777416767243 0.3803970267050933
Ni 4.221386505900729 8.818316811016006 8.25118786374925 -1.2503734900799175 -0.3509895200772536 0.2319073345004006
Ni 7.313237082523298 4.5278472809977455 9.591752492236884 -1.1195567896749556 0.5584893722675672 -0.2295051528168112
Ni 4.865398685713156 2.908155294566641 9.028327523253894 0.11977612632008403 0.1327879651987197 0.8302457204441057
Ni 3.43522972326705 3.0994247732643583 5.07098629125616 -0.766585720391299 -0.19712673648610568 -0.5253967034786565
Ni 2.41954956619611 7.102681887345562 9.369616527841123 0.7483200893128918 -0.5489243542869514 -0.2840390221986334
Ni 4.348018481567836 5.0525028232243905 3.9207628120627986 0.7212952239846158 0.755384452358841 -0.35454792685247327
Ni 1.508367172657824 1.9567390673257299 5.933025130257953 -0.5605236290887766 -0.7073405615767366 1.0043772815866185
Ni 5.933024196324951 5.145914802029789 1.724255125273861 0.21907624417400337 -0.09041644221104428 -0.2820582443231787
Ni 5.832738470628852 7.006234626285439 3.2058445709140044 -0.3009381119468172 -1.202553285272845 -1.210792385353186
Ni 5.52074881216323 0.9440288171994126 10.293056792023489 -1.0473314165506415 0.4319031650041852 1.9843817907558279
Ni 1.4459150728506154 6.491170575983724 3.6210282224422516 -2.0215671415568734 1.0491463582721932 -1.3817319219209623
Ni 6.74771263215304 8.66099579692113 11.850125768908118 0.12241484949451176 -0.5817560561049917 -1.4332645425826154
Ni 8.332017897159066 2.266711430508212 12.133580972380326 -0.10274745297257143 0.4296616772681761 -1.1119542947373495
Ni 9.014750939211762 6.808679778487939 5.885033115112251 0.4344835241368517 -0.6487800875340246 -2.4089249158505157
Ni 5.085928285346418 2.8908401767196894 6.639264332024237 1.252156035901637 -1.3051449293938424 -1.752288051276234
Ni 0.23307885737379502 4.567044449068757 4.822333167150123 -1.5482859278265335 -0.36632332222084657 -0.9068185719038383
Ni 7.341516573807316 6.651769694913702 10.693765415962202 -0.0118242463284377 -0.9126855722075765 -0.572945142681581
Ni 5.96058455919785 1.192800550796634 7.998898004535553 0.136407564229178 -0.19689379453969316 0.3946010861196172
Ni 1.0448842420263973 5.617046643943121 1.3912771904665697 -0.49675949935793806 -0.3188376179350573 -0.6527205602390114
Ni 4.225860044977693 0.3993460156895955 5.5942241231865975 -0.5398043942635542 -0.003148315820994578 0.5096543530427352
Ni 1.1798282214064422 4.2834930504974 6.9395462063836355 -1.0365140142201634 -0.008078149022444152 1.294674625990138
Ni 1.7673934906110071 8.234552649127357 5.115369589284244 -0.4337885549523562 1.182546503133615 0.24257149908246614
P 5.356217835297133 3.498438308805436 13.844153979182888 1.0605597423154576 0.6189012976967213 -1.9289968862276201
Ni 8.239297028774741 0.6375605706383843 7.432834674823456 1.02139207097706 -0.38288714011679864 1.123760286233342
P 8.545813839851846 0.1735098087420738 12.606420977753316 1.3338350982396836 -0.15257157558355017 0.5906299615558538
Ni 8.336977081396784 1.4984488041823858 1.189270284051139 -0.31390804184392396 0.8138945327795919 -0.04502130190569666
P 3.302788684330901 0.5822082295082266 11.1827344442703 -0.2103676606564119 0.09768135130357371 0.2587514512764382
P 6.926084496100683 2.504789631238789 9.802023771782178 0.31671080140004165 -0.651532196357865 0.5214037802691794
P 0.33057866092655674 3.4172048163389936 1.2074679685844643 -0.4238255302023733 -0.034605762999327494 2.0811599135188414
Ni 5.811005849685025 6.147585964078924 5.960677952497995 -1.4631083654169255 0.2508126560453358 -0.09313255559062669
