# total energy = -340875.9663407683 ev
CRYSTAL
PRIMVEC
9.14543614219479 0.00000000000000 0.00000000000000
0.00000000000000 9.14543614219479 0.00000000000000
0.00000000000000 0.00000000000000 13.38527022895398
PRIMCOORD
 96 1
Ni 6.875923126433377 0.5467315589606958 1.9247082859529159 -1.7101391858223258 -0.7896510868511949 1.0713766304253034
Ni 8.980525802785067 3.8101625301746207 7.691229628063253 0.6420139724547845 -0.15159687037510666 0.16101764946837432
Ni 2.3534957255374023 3.3641396013196805 2.29620322522769 0.42646116805300743 -0.08739770998937851 -1.2609060141801252
Ni 0.6027409545560681 4.060226195208056 3.5248240027486 -3.039610093556042 -0.9921725119903106 -0.13048888475189785
Ni 2.496640094666734 6.5934205988071914 13.3058288112736 0.5748480161312487 0.6888491876407684 -0.7541500657311077
Ni 7.701509098476067 2.51328478875154 3.283875594085674 -0.693676948046715 1.4943498399297104 -0.013540200578279907
Ni 3.734584644506029 2.6887399843652786 9.048188313327065 0.04755075319576972 -0.4883455642626299 0.51619035438904
Ni 0.5827590907616216 -0.1609386445583469 10.30801057590794 -0.16663988075115818 2.0046276854890572 1.224733163803994
Ni 4.8764106587237235 2.979272205071937 12.917027048325151 -0.4754154864645231 -1.0941866863412832 -0.22495327178007066
Ni 4.748575749977889 0.6591408602818918 7.71917808142763 -0.4192186275579813 0.47042548944909945 1.3313544979096748
Ni 0.7988941016273523 2.952530949300524 13.045056754864397 -0.07153117527076712 0.2919636763623488 -0.25722241622642156
Ni 8.533643202916956 0.4473846843215486 4.009785455782045 0.5761613356260334 0.013045777440364628 0.20554298557425893
Ni 1.3107788046147864 1.9367016111302866 3.990082527795064 -0.940894944762257 -0.8838565637910262 0.34541793952674704
Ni 3.7662461450124014 1.0207312920325755 12.284947534085536 0.07104549388360024 -0.11133493753126632 -0.5973261426291068
Ni 6.378694899676883 4.13314275891034 6.110255309465096 0.0523898264556259 0.6778502654271036 0.5756813106658215
Ni 7.468858344177506 3.2708927326995254 12.243212335483332 0.1588782345278683 0.35313613410661115 -1.000085081969168
Ni 7.578338362248503 0.6649335796408566 10.135460885409993 -0.877219775200799 0.7679880000554645 -0.8695848843633605
Ni 1.9798497796424377 -0.2656977884059492 0.11722162990769312 -0.4485510579735114 1.3550461850996598 0.6634194347137542
Ni 5.639359537476944 2.0000337575793425 10.702300515186218 -0.13117176975153538 -0.57483464639481 -0.2780031004171986
Ni -0.14008613522715663 7.565324406378898 0.7832215674223346 1.4303936487927236 0.12752594546883197 0.9633257629619474
Ni 3.9729147147533066 2.0681946944002543 4.038242395405277 0.831878113841206 0.377499393442324 0.08436895046538374
Ni 1.0163689189125467 5.182325503304361 1.0222393744801495 -0.011189955178548469 0.3193186713365339 1.053949178977475
Ni 0.06086928045068329 1.339221111539922 8.471149692977557 -0.48089270752901053 0.37775213288307846 0.35834184667726676
Ni 5.5536667992491235 5.376656879462628 2.301931926532483 0.3948944489903199 0.2926437331485089 0.5845629294261674
P 0.8523418605122004 9.100989489864773 2.4877726796202357 -1.6172652832097243 -0.7720128049441414 -0.6419684639288299
P 4.439112476108841 7.92019477152875 12.967904025063167 -0.8844854556242768 -0.09801688026612151 -1.3367106200152656
P 2.5466473404116354 1.8961324556576493 0.4375469384825234 0.6337365629373408 0.638499788653939 1.552595353835165
P 4.801006536345028 -0.09970080302435717 3.2477748987942654 -0.716035004026941 0.8310972698111235 0.17238706764758055
P 2.82802497937165 3.547121491016823 11.214634259096488 0.6459667864549457 0.24234447067332457 -0.49731331497887904
P 3.0328461709778676 6.534432534605543 9.010629835487789 0.19962379187634652 -0.38413515359128686 1.8919498607766514
P 5.640008863454976 6.619302183565433 5.770537103194204 -1.0256709008580722 -0.15071215377730818 1.096953193342827
P 6.440454031080561 7.770941250944115 9.22219670091651 -0.5935769599993197 0.6407561887882837 1.219392468317371
Ni 4.412352929464807 0.5780720546525759 1.2074582378987992 1.8460782950555172 1.591305625921169 -2.0483382390031304
Ni 4.170520157110671 7.452021595930183 7.496955868153742 0.9752605667263204 0.9513680763794391 -0.9572790425472352
Ni 8.945773144805802 5.511680101148384 12.343026541917936 0.04896923080985115 1.2682357150723191 0.024774635841518622
Ni 0.5729003104190826 4.127198225308624 10.740822922012603 -0.3825564962502573 -0.8780844371939395 -0.4445547923299247
Ni 1.3259236471446978 6.681390550676284 7.622416621633414 -0.36953565851055714 -0.007682713356238381 -0.25363238488231804
Ni 4.789638759011284 6.735723587795972 10.884366946708695 1.7638359040148333 0.21285366030305922 -0.576974061335316
Ni 8.551312185868518 7.951261818674951 8.546642526088462 -0.7730204202730493 -0.014286077605368945 -0.704801854315283
Ni 4.730641549373325 7.495480709276885 1.6043582847000477 -0.06294086249859483 -0.8410474390452998 0.9845607610813237
Ni 0.8787044952203663 1.160327231873498 6.2915187716795264 -0.0850531210166019 0.3964743918829301 -0.24489757611248147
Ni 8.961439277205402 7.964403810652899 6.010588344555087 0.4833756218518643 1.0192868517085993 -0.5465319427953749
Ni 6.437417746225531 8.727745943167463 4.546159808121288 0.045166055013677056 -1.454639922934598 0.14612350596536125
Ni 4.206608048791245 5.12649261462978 7.625989743599861 -0.198536986570071 -0.053263487309830854 -0.11829234268570595
Ni 2.0835315910926826 4.463475918439569 9.067650716339084 0.2376979730402487 0.990437788687391 -0.2742873421285083
Ni 6.767613724210103 7.9716469962106835 0.27746979402460986 -0.6227823779186823 -1.3132981546285962 0.3148228403487094
Ni 1.9262300865549553 8.67933000334056 4.401304327858293 -0.4904782943349166 -0.9774274924706521 -0.4817465708888735
Ni 7.476805728331185 3.4382176354333778 9.463747793832287 -0.16540292302026355 -0.09195704722528679 1.2558743652934885
Ni 0.0376124359135065 6.430458069193367 3.0230093396824738 -1.6513902499178914 1.186887296600814 -0.5239399164274718
Ni 7.945555066417303 6.084358177465126 6.849136143480412 0.6937396829638505 -0.9592263960815931 -2.663377482641284
Ni 2.1340601267072725 4.596157908429879 6.632455150066954 -1.3953729097431646 -1.8151144996841515 -0.5743600207512366
Ni 6.553290424277449 5.658894189435814 8.557645400513424 -2.189353477207649 0.1892357637738031 1.1617015413638059
Ni 2.095658439640184 5.6728501252453825 3.6993939201274983 2.5023228092873873 -0.29307979224466296 0.3202602093141968
Ni 6.48026411533944 3.391484455887576 0.9746538402702248 3.0594368984739826 -0.28490574107430283 1.074597708465762
Ni 2.7951288449633824 6.529841525577756 5.7152694024835995 -0.4781629673026732 2.0142677796819823 0.6687441893607774
Ni 6.986281106390165 5.84391551143016 4.286111155724232 0.6744684934390642 -0.12068475417728249 0.17437915837694484
P 8.623771477755287 5.587358586616389 8.80517852331979 1.8894682320053784 0.19432680514346531 1.7055762490419915
P 2.150055494814045 8.622856934124254 6.472300269400403 0.5252493792675148 -1.3296380294392005 0.9015364975692925
P 8.992716669386741 2.073892301221592 11.143693109637235 -1.716022641186296 -0.43955708200501725 -0.3653697000583256
P 3.4652881269119633 5.528937539465982 1.872613137098366 -0.7466756117309334 -0.4478956837776996 -0.5284246916717028
P 6.743707553694892 5.643026857437387 12.058562318203183 0.5425274496216721 -0.1993052321946632 -0.5699436368510958
P 6.580781605826311 1.3173269370129848 -0.26227007887683645 -0.3097371982956859 0.28376442838100807 0.7113864495113361
P 0.215430812269835 5.568628733052828 4.9751575927409135 -0.9979716351705911 0.7903342289611485 2.3267362608659026
P 5.7900580369986105 3.7979899544455673 3.7552908268562537 0.9864461510294946 -1.4614872848737346 0.6286673759445496
Ni 2.971900983405809 4.308323591434769 13.3342052710573 -0.3178019775816914 -1.6322733265827827 0.14794256145197102
Ni 2.447108411609971 -0.3551255228229094 8.616205458295749 -0.16168896450378606 0.5301920679847708 0.8480056155306879
Ni 6.5241713550653495 8.194146316204774 7.0806071364949394 0.1216741146737453 -0.030137957035961005 -0.27972573953526014
Ni 5.0910083217456865 4.2281638421747 11.03893945305142 0.10294105704061626 1.324696626273525 -0.9815173462693095
Ni 2.7675004818698663 0.7728424117537378 2.5849502567665716 -0.6395624255904986 0.6180860008842775 -0.7662802733357383
Ni 4.237419023720757 6.987415140492646 3.9896408032212745 0.8985900133464589 0.4313778886283345 -0.456268224112111
Ni 2.6802347285966692 5.709578197467679 11.15041226169444 -0.07570793235627607 -0.912070821441713 -0.3568583201532048
Ni 0.9267710793802143 6.929451365157756 10.072589668950977 -0.09575173838102864 -3.9180344305879036 -0.8048198241718333
Ni 7.7647497905620195 7.727015720345586 11.198210884570392 0.29794534786708043 -3.123356837056395 -0.46526348563218584
Ni 8.508429235009368 0.2345795268164102 12.648920351995061 0.4763408264922699 1.9085962110840806 -0.22874642027391573
Ni 8.552272456681104 2.962124511990063 5.628545973583606 -0.3486955818367543 -0.4233779011419934 -1.0721564460141213
Ni 5.927605399106018 8.87351505251786 11.699998111327588 -1.7529349408316133 1.423562227693187 -0.9118021411613587
Ni 8.750627824815917 1.5416004716512806 1.3607595285943872 1.837289493119294 0.02331013548085018 -0.45563444718285395
Ni 4.058259926401334 0.2072438176848249 5.476918297732808 0.17747733768629434 -0.7649067900269795 0.1632156855609576
Ni 1.7908593382894062 1.6917959721758795 10.493811089075926 2.354187672208636 1.412526795814632 -0.4819499451489313
Ni 2.2060164195969727 7.360009361211922 2.103668927304405 -0.1606633514527491 0.9726722371738538 0.632389304880827
Ni 4.27431171379664 4.722172875349957 5.130828465984508 0.5358700922061546 0.6036639119216765 -0.8357823339916187
Ni 4.963703848305852 5.634238093143157 -0.131939380561912 0.17924934198505257 -0.0022003500854284688 0.2222412721655463
Ni 6.08365397886923 1.9329519822430499 5.2753894631983105 -0.331263502403236 0.14418849372617748 -0.8062755827817533
Ni 3.958080817057946 2.7945252461669003 6.469422200593541 -0.1662524155047524 -0.6785195235799862 0.8471093289686636
Ni 7.531971000155114 5.54974340707199 0.8988098224050022 -0.3594204244534262 0.5460256925829177 -0.012326125665520707
Ni 2.8656401589160496 8.179906871869585 11.220993080963064 -0.2599002201689008 -0.1698697005423655 0.13173509845417314
Ni 6.779164410270053 2.0456511938952833 7.656253821438015 0.6768346796783956 -0.2875480637931564 0.41713911932113323
Ni 4.616451631602508 3.145042383633033 2.009276135514565 -0.9735916636643298 -0.30680588358150385 0.09928803366906126
P 7.62578488582651 0.7727802227868275 6.189429180690911 1.9760532162854745 -0.7448282741095494 -0.610256991758162
P 0.7635049212808876 7.604979018220502 12.114085176586846 -0.07008287286001479 -0.19323871428560913 0.4696742131053717
P 1.7285423352707974 2.633263767706799 7.939191671832573 0.6033720917128704 -0.39865185915022305 -0.8773478161382309
P 8.723749387499847 3.756012401781139 1.4696889913995015 -0.9026641834158325 -1.0012395072885854 0.625838905356819
P 7.0520002117162175 7.224583740328511 2.5487965179445635 0.14620321016336113 0.3596695643497547 -0.972776623962202
P 2.5586552982871025 3.4790062813774627 4.7066759335220985 -0.6285025682319111 0.7731641449397653 0.3128410340319903
P 5.545225561534686 3.674499127947141 8.260291598862889 0.5401496934181149 -0.7759756462466313 0.8876867361703937
P 4.063728897314913 0.516468395666173 10.183273226440413 0.2985996936216277 0.7986401777236826 -2.162616832543753
