# total energy = -340870.38160736655 ev
CRYSTAL
PRIMVEC
9.23394602547841 0.00000000000000 0.00000000000000

0.00000000000000 9.23394602547841 0.00000000000000

0.00000000000000 0.00000000000000 13.51481338985578

PRIMCOORD
 96 1
Ni 3.693578384409999e-05 2.6394680492832294 5.693425771286565 -0.5312685888784012 0.17928225210551704 0.6172645334242467
Ni 1.9585845759551292 5.737530790774805 3.382027817868804 -1.017214799670919 -1.432260269687817 0.414759306235047
Ni 2.6906702796371134 0.7998397821710049 13.641852247639335 0.28009366439764016 -1.7498064225049605 -0.08678347344414732
Ni 7.340340662797602 4.048522033205839 8.50253433539817 2.105560968071025 0.6229968079223336 0.769038809917482
Ni 6.313165748039142 5.866833736067038 12.978937109756794 -1.3531476825253663 1.293577279160901 0.5670056372686945
Ni 1.5246814552465648 2.4251758653657225 3.924350391684148 0.7063753694499899 -0.4727644219949212 -1.2242701081246463
Ni 0.5187427694092701 0.09454360251114666 12.753820894383772 -1.1386711419069036 0.8147108580333001 -0.8027593420983787
Ni 5.13444331216834 1.2704524550476246 6.58791719313646 -0.17226751135058074 0.17303087187916652 0.6858502529134447
Ni 1.6660347000179354 7.562694081539084 0.4694436553179538 -1.5872489393532923 -0.33029368229079886 -1.15720313927282
Ni 8.336886578803341 5.9200304987485035 11.880304380784345 1.8673734569888678 1.3206684789507386 -0.18751903819301252
Ni 5.51893558803946 4.753921633060461 1.393795811616612 -0.1894684486098995 0.36510564776366156 0.1558330199436413
Ni 2.2208286412482394 1.327555176870603 7.191610418597969 0.11502369923676319 -1.4234138750407808 1.3445067190209168
Ni 6.5231918489226555 4.882753647108681 10.81059421735102 0.5588804370583988 -0.5323116854309349 -0.1815985589435195
Ni 1.5383938649986868 7.727058319645329 11.355605716230214 -0.5143121635297208 -0.06591202931177681 -0.033829546954935286
Ni 2.8796152818916068 2.3177666059470794 9.48880471633848 -1.0198427242120693 0.7361865392741515 0.22517438665194126
Ni 5.50073548055028 7.197556156402273 9.297569695485652 0.18783759787469587 1.5618559532014844 -0.5246629106364255
Ni 2.708214776963061 8.749108394395419 9.556676065941208 -0.5768953855785807 1.4194358642296394 -1.1539787187982513
Ni 7.3058518746331735 3.6619428855475276 4.374650230235704 0.43117785680238646 0.1259208057652412 0.5723810426479948
Ni 3.827212050357953 5.976782330624963 5.048620248222786 -0.1712300712250019 -0.8166353287495226 -0.636514125682478
Ni 4.219507010566139 1.6892580741099132 11.6523505738175 -0.10205685466345003 0.4461812721897542 0.32502163525858213
Ni 3.6013035624214766 4.618505815542029 13.573332675030144 -1.0083457793160635 1.3590231674695368 -0.832535544919547
Ni 5.712312884355246 7.804411084960836 1.1950748307731813 0.7482722667940919 0.5573562871043886 -0.0760228924935336
Ni 9.50727076147134 9.009237886063456 6.404345424036688 0.37463749851349676 0.6392556929833572 -0.5372050089674942
Ni 4.271106300596347 2.4325445542426203 0.6544993195336636 0.9498902062823319 -0.7167798526127656 1.4281071667513923
P 9.181173959857741 5.2364414792538225 4.1509126429946654 -0.9495307660603839 0.26691470381352095 2.074410253499834
P 7.72913595748656 8.154728526830203 4.788190653311017 0.27534689374127413 -0.07882230961554168 0.46014467634838174
P 7.837542483068993 4.51473473083203 0.1918167594483723 0.9049658349658156 -1.2730951000471495 0.30091471490804955
P 0.1841802861386046 1.8177853679414202 7.702078649031564 -0.7093781608320557 0.15888929027146184 1.2208320289773749
P 4.133335826857854 8.585288959100875 7.654249579137243 -0.24954433085587344 0.7212291466333708 0.8857298695543391
P 5.924859852486119 6.310571009224094 2.9001709689954445 0.583942265123033 2.129461685948023 -0.360231864611128
P 2.261661150287892 4.019499741050338 5.112126711569735 0.6990425832340026 0.4534168707062449 -0.1770741887106047
P 7.756145249422558 7.259626741152283 0.7058825352283834 0.6810152934186464 1.1656037046316896 -1.7266184144242718
Ni 6.664822112072858 1.2604613255177954 4.497797827150318 0.3185234291287482 -0.6804761330857249 0.8142634860832364
Ni 4.081598027638231 7.4329294389488 13.244016919854532 -1.3692841830759128 -0.5931753536855268 -1.2229647590496615
Ni 8.497169412794813 5.189616139285465 6.5070850769828406 -0.22133058742581885 0.23644404602848954 -0.5445861319229137
Ni 4.1994231781009095 6.40539440029786 7.220586541023665 0.9893931494729605 -0.39050069079799843 1.4072354655087054
Ni 7.742691390157344 1.6512880883181784 12.055605304486827 -0.8732008838493928 -0.0911008698725786 -0.6923278902179882
Ni 0.490300369060121 7.004077286680916 5.1920668285435205 -0.689134065871039 0.1457147005627168 -0.4506632192205077
Ni 4.9957309759418225 8.271547177183129 5.667815422163662 -0.03021329035858668 -0.559120578093663 0.424356720115495
Ni 2.73703392230742 7.762285823486639 4.096002059942834 -0.6082345620114944 2.2469819263543944 0.12142831721152635
Ni 1.9118054057165768 5.518233808146422 6.640220109848898 -0.04784591583868534 -0.15777754526452184 0.2623695076449998
Ni 6.951268349729814 2.977864466916913 1.6087759245082154 1.126183550962854 0.04020922522903398 -0.4365717741244481
Ni 7.759746488347358 0.6177805334196477 0.5408479126453679 -0.19206449147184987 -2.0289696046685317 0.8915274500727227
Ni 8.187989200181814 5.828946855788953 2.2885577880831653 -1.3898337250924904 1.4025606857408555 -0.9205588043080662
Ni 4.575937324661704 8.73595002140096 10.974825486635426 -0.31277649934264196 -1.7081249836057744 1.7241139028348629
Ni 3.438656838263982 1.0485330317663106 2.879858134670382 0.01599149033224988 0.43371270740909823 0.1854726971869451
Ni 5.7252773444845255 3.468214699285223 12.698085719957621 1.0837240962470627 0.1480307502904031 -0.29334872963533354
Ni -0.10986179546589102 2.416025024918347 0.44560807060875995 0.744719259335511 0.27610305518100836 1.2752951930222618
Ni 6.457446153680158 5.980041913549205 5.0767717792741625 0.9584280685500138 1.9008595045614554 1.0756683158221216
Ni 1.7492602549646536 4.666457696917632 10.400202569848418 -0.714989336371246 0.07156382828091547 1.0866515543065027
Ni 7.147369660104102 8.769210694752571 6.738026065468075 -0.8780710674575006 -0.6056092085735054 0.47304210113634015
Ni 0.7902143169012324 4.231529608207394 8.158663111204195 -0.6323749067031239 -1.9395039564065306 1.2465888262265048
Ni 5.072188048499109 5.0292132639965 9.134972834636349 -0.12643914016255642 -0.48375845911257975 -1.2522434534091207
Ni 6.80412542084088 9.140064432439257 9.997379987850067 0.8852351893061078 -0.7782464445586791 1.5429578307454006
Ni 9.092897436470341 3.8850811896956965 2.6644855790754347 1.0103836356816984 -3.632773105946395 -0.5399697161968249
Ni 9.33044069631771 0.39407711177866384 4.217256697935437 0.37290534631373845 0.13256813587842978 -0.6487412638762893
P 8.805472400541516 4.549288156618186 10.215076727643403 -0.4906212476706841 -0.23670269900651497 -1.308574781010998
P 6.0911816871361015 2.402497294085445 10.762440112558869 0.06003808702950306 0.11777709361218427 -0.8272840667126204
P 6.616796359129566 6.309564509114343 7.342301029525127 -1.1433024700313277 -0.4249884401622229 -0.17187361834627174
P 5.3295750582167205 2.572771257606746 3.0661871600341173 -0.6200022440703838 0.5515198829282696 -0.25839098261322596
P 7.05213074146209 2.529150096886864 6.377423854587319 -0.21110762414623 0.05876281986150526 0.12017079065534143
P 8.338604092752092 1.3827003021498445 2.6078048485828753 -0.41146752285765265 0.9693542285442145 -0.7283827269590166
P 0.4578550531368674 7.0538113196269965 7.710363345347796 0.7021975839232165 -0.7573752575366247 -1.9386806891742872
P 2.634684865275419 8.401274883989569 1.9972600352182865 1.6344757335507396 1.1519393197707193 1.6979547279409917
Ni 3.2188427546617824 3.967771175776676 2.4789682175616736 1.0472691958541382 0.36251680399056274 1.1051470420075291
Ni 3.243746706918667 6.547864952530515 10.061183784256961 -0.07937843922932782 -0.6532908309201846 -0.037408265445129124
Ni 0.6757983392873638 7.763310791488314 2.7379120705683135 -0.45785562320388895 -0.852608404410022 0.26144802427199487
Ni 4.657907062957723 0.8803837992106415 9.28385266876055 0.4109425035921181 -1.0609281813984694 -1.4228778000316527
Ni 7.195847876399483 1.297203196496714 8.418890482699416 1.2657872535318264 1.5257620356924044 -2.0263923308596588
Ni 3.3870113785039697 3.2392497752356473 7.005808651548608 0.019809321416443305 1.3968795761956783 0.7623559985806676
Ni 5.430068092110555 2.794358258833463 8.578393048257182 -0.9107803847650636 0.08805899772246124 1.4344025128418005
Ni 0.9767206340274192 4.674592803309295 0.6723143714762692 0.5585613631560832 0.8621353700638508 -0.5717184693633315
Ni 0.07550228254491699 3.5592891082988127 12.084567575993583 -0.5813359378484375 1.282671945102307 -0.9867958210594295
Ni 0.3211695680487949 -0.28056513747437967 8.612530946475092 -0.6369982644077481 0.5337502176496742 3.249757924892165
Ni 1.0719872545073141 0.7305417879173005 1.7805901102158155 -0.659079926798136 0.6847624191659045 0.5976927819399062
Ni 3.954963692728734 4.174962455250155 11.064766890479596 0.4367309254101317 0.06134446454575242 0.5958562429517996
Ni 6.133436223853752 0.868118348790612 2.2032933778682526 -2.1038262447681055 -0.3942177346382695 -1.0516552407369761
Ni 4.866954365569368 8.340266203025077 3.4323980696915997 1.2533791096754607 -0.3774970794494789 -0.852692479483396
Ni 5.674989274780782 4.218380469158895 6.898420630205675 0.19052491489887188 1.1955316025393734 -2.8487028556170872
Ni 6.533884758345522 8.480271291686138 12.339416173966509 0.8237511138586975 -0.5850085016040183 0.6707535064813223
Ni 4.0856886656989655 2.777044610156541 4.785514655771512 -0.4775219912845647 -0.8372625180815709 0.4681981427804775
Ni 2.435813371112823 7.736375371120003 6.383019625839701 0.33328696059116797 2.037965894629871 1.1334782848520544
Ni 3.796038248793533 6.536608772404025 2.057549391792415 -0.024772578958989596 -0.7921761672658938 -0.057962435447396946
Ni 7.881348322708096 6.773985821224095 9.004716946120938 0.9501992528823184 -0.11218108758164551 0.5238486422652462
Ni 7.560034705102308 8.369463940153837 2.571842322643067 0.5418836453900862 -0.5654490914148519 1.427293412600845
Ni 2.2267753024471393 2.7612083928333835 12.497553038916637 -0.06479128544377227 1.0640870387424253 -0.2804289362498719
Ni 5.213504357486637 4.6281275872334176 3.778174256937334 -1.140787416918958 -1.7858111227343438 0.17112517021602142
Ni 8.98450014483387 2.112422115665806 10.14324586201259 1.0090754583932364 0.24429593797274057 -1.8135116739734056
P 4.8559475019838265 0.3370408743666046 13.406235188919435 0.3969870698532905 0.23768588885539066 -0.2669309017634371
P 4.92984677150991 6.600276829805292 11.389162799247176 1.039690612175932 -0.7709460542425239 -0.263469682687714
P 2.484448564489542 0.7862363329812228 5.211514442132035 -0.12744752682241278 -0.6609550323336617 -2.0192883728250255
P 3.088561011097681 4.668175210866383 8.657697869748848 -1.4123301064227936 -0.16246286655533312 -0.13016132620915005
P 1.579540328201014 1.1723602471036558 11.130448871494965 0.41017348663657743 -0.42052757617739184 -0.533123639809269
P 2.1085253904702532 6.074902240406814 12.610888644853066 0.5860387426407455 -2.2343187290644293 -0.7304398665983614
P 8.572638453134271 8.117118664930947 10.915130796181188 -0.24433450452015987 -0.12979340134677003 0.28405290615570433
P 2.10255102743347 2.7952354836997606 1.295923371586516 -1.4717683550847684 -1.615918796484159 -1.2539516943494793
