# total energy = -340885.4142969229 ev
CRYSTAL
PRIMVEC
9.14583496084765 0.00000000000000 0.00000000000000
0.00000000000000 9.14583496084765 0.00000000000000
0.00000000000000 0.00000000000000 13.38585394036753
PRIMCOORD
 96 1
Ni 5.205845740553909 3.159693854225943 9.470371069632623 0.12785581800442497 -0.3906629274074756 1.1504907602496508
Ni 4.830555556159757 0.7213292454089651 5.888463411086305 -1.1073191099581834 -1.310828352931865 0.7662833586595319
Ni 2.7988449429506286 1.6908819342689205 4.632429337303917 -0.23944580896929088 -0.22479463471501931 0.4691813326293533
Ni 3.459750401713474 3.0744546740691585 2.781673638149731 -0.11455601557172529 -0.6962264539414461 -0.28395314735304644
Ni 5.362230369470311 2.948635424990094 0.9372925858377423 0.4771975180656105 0.006627018398214393 0.15827942460160485
Ni 5.234179536704737 4.57432584894168 3.028911160611354 0.47809611862047985 0.646363250562416 -0.18277046776443362
Ni 5.324549530173535 4.892738086834218 11.823683987905824 -1.1662665350266688 -0.057108572087533914 0.5961066683997088
Ni 5.606835720682028 8.283345977605064 13.264685253461478 -1.6678239699938824 -0.4280030586188306 -2.459550194206551
Ni 2.4530226382201197 5.2872985451114545 12.017685435275535 -0.23480651042506656 0.07020062938480168 -1.42526352665501
Ni 1.0031517420940734 7.758585415388774 11.511365619727712 0.13020374941131124 0.21209492776016375 0.13390690929451132
Ni 8.161413708307828 0.03236436553871392 6.979839533809607 0.22880067055061884 0.02822839871807396 0.8168991239338705
Ni 8.627961032144512 2.4793626423887396 1.222456055968266 0.5774908530707344 -0.0023150212864218194 0.22986176482528156
Ni 1.346495525598993 1.3449956086949466 2.4632248169180695 -0.24928053567152547 -0.03233445046664754 1.3067639530545043
Ni 2.063455805733184 6.782523635915343 0.3941223727912377 -0.6646731046151971 0.32249964016767685 0.27013141097860577
Ni 7.73551962007167 4.138160988246716 4.347243002586441 -0.6344505582852299 0.010581889280904358 -0.8291820550662817
Ni 7.367097957597875 4.071643331886169 12.906118227963965 0.2003760966613388 0.22141106295476706 0.30012230091374115
Ni 6.938432681423144 0.7826356051114285 9.278083551700828 -0.40635565555238407 0.6438088595716783 -0.07379734559712452
Ni 7.201466889718115 0.7064681784736906 0.6479512983793623 -0.45380356462170235 0.9533318849740291 -0.24372823839472865
Ni 1.7011709983972878 6.702104310688025 9.417858430071872 0.431764839654108 0.03808806512097311 -0.8048766455516978
Ni 9.076207540584873 4.824208346821901 1.1698611038944868 0.6786264814714957 0.5631703226830044 0.7993814267650814
Ni 6.201278398093011 2.4805790384145823 7.482357425839062 1.7461533991334057 -1.7825635623313236 1.4023668245624945
Ni 3.8155050830159 4.653537923977936 0.6514358614308361 -0.5376870908102352 -0.04088516825013604 0.40644358728049995
Ni 6.02056584865976 6.019111660929617 5.03591887407762 0.8648733378203041 -0.06627404063688586 1.016456838458972
Ni 6.53190947125266 2.3613996653863567 11.350788540147805 -0.11181341982958162 -0.7852814970285895 1.0782412187556205
P 0.25873475136453017 6.059399063138913 12.63356869316308 -0.009904917818537782 -1.3780575583931685 -0.7550926321500351
P 4.108226671009253 6.485576672253274 12.921672549175621 0.6349172135090033 0.5631875490741849 -0.8164718065884647
P 2.5156898981379614 8.778044180896961 1.2135187462204968 0.42085616316140423 -0.16895078827252194 3.244181716355968
P 6.586583271572108 8.157343811830383 5.975404631095791 -2.782113340622312 -0.16291795181488072 0.751281485934061
P 4.903136900979954 1.5921800853148411 12.757588956540767 0.18455044248299185 -1.5724540404323049 1.3367746404839815
P 4.217903521700258 6.4576452928328 8.555849783232045 -2.3704943797884597 0.15035734154105074 -0.7716690484514774
P 4.757855315487409 1.5916404810627756 3.742322856850606 1.3218982375927815 -0.7224326800231687 0.0576148222999911
P 0.11485888067778918 5.813046857484069 4.010722926411455 0.9795867049055001 0.32665222888346973 -1.213883879794316
Ni 0.8735945903401073 0.28579453273039696 5.054993427096395 -1.0811151978693059 -0.43996074520133904 -1.2090689749041756
Ni 1.8764417761359808 6.649415156516004 5.239945985534012 0.7431753118871589 0.3084027957549786 -2.2076641025913784
Ni 8.284964790361261 7.107987312423855 9.461376141125735 -0.08939982802107184 0.27365125120640615 0.052709928799206
Ni 8.665486392250013 2.5733452405959416 10.401999639990635 0.6560977042413604 -0.2896288575815851 -1.1514317840066817
Ni 3.983761005477742 4.5610735343443425 5.074148463461243 -2.572848683222092 0.7223059246373174 0.5911907191553302
Ni 1.4706776702523001 1.28358132814207 7.165006104781094 0.3204206461514611 0.7458700851105026 -0.30389385214103143
Ni 1.4198908497146794 1.3269783141768279 11.67626593540849 0.6762438401719322 0.34567967782856596 -0.48515585368073866
Ni 4.1180675892333625 6.948721745551512 1.749852447768375 0.3679647144790114 0.9232813454455517 0.806596970676914
Ni 5.523270228290124 8.146679768476005 8.405338609411855 0.4416576732877877 0.5020675418344128 0.33614577019620173
Ni 6.9366766811452365 1.0444177486249115 5.156926499478522 1.7107971311212988 0.4533981016531676 -0.962749064522871
Ni 0.9303691889086987 7.844483095649774 6.98353353647756 -0.0668247709340333 -0.8588857527783014 0.8985380770626008
Ni 4.982202642659718 4.733801770013981 7.506813388042844 0.09916847737206147 0.329394053294665 -0.9132275607539756
Ni 0.6235383215990505 0.06531589367035333 9.160354708068832 -0.9961831758116004 -0.007858833922786466 0.11867363728452462
Ni 4.684999595623788 0.9355365855598343 10.752227493335042 -0.744431552891763 -0.9681668931043326 -1.1796997777134393
Ni 8.279916289562276 7.650710294149581 4.9898577063712235 1.6016170351495063 -0.5285517041678703 -0.45431264304763697
Ni 6.855050105726857 6.45941958478027 7.442855650837434 0.4023251942367522 0.5030579307721401 -1.350465764817829
Ni 2.5435846942193128 5.282204315138565 2.8331024962889617 -0.5027218875889601 0.9310303932633514 0.18996647129224056
Ni 3.386163015067392 4.684487428876064 9.386588820956415 -0.673306097699847 -0.4754928766696778 0.778234360373821
Ni 0.9770403837949725 3.6512275986836937 3.9197127245080035 0.7668086350353827 -0.20564094460470392 0.12240327953028596
Ni 0.5325784217868939 9.064628913752417 0.5576316070018595 -0.006950463175904158 0.4414846380450332 -0.2661120054065675
Ni 2.4446724910652757 5.429333359256826 7.130055297166378 0.04896383149321244 -0.25990073438953304 0.2999965739691543
Ni 5.445366007627517 2.999513703875522 5.503674362688844 -0.1887002029853073 -0.5027542834887921 -2.5971324954701207
Ni 4.261035278526373 7.24055618757113 6.477709425174855 -0.03552878903422913 0.1441069897559647 -1.2383723518539835
Ni 1.1226329276700642 7.391572211471218 2.5583177194676567 -0.6462799468199901 -0.0007811011403986548 0.8504723319036257
P 0.1712292333490705 5.752858118791815 8.057681650224323 1.2119691792701064 0.8611071859096524 2.3541771306856747
P 8.518622577340397 1.8240361428421639 8.104358332611465 0.41158399383085886 0.1310864091265807 2.111139233489751
P 1.9869234602876933 3.551016686990787 10.669368973971691 -1.564934335016492 -0.1923984777725009 -0.07489314976446457
P 4.157989158051428 6.451124312634111 4.095897171141296 -1.0386881390533464 0.888575052312618 -1.027050040593786
P 7.125556461037717 4.352438751325397 10.711052030568533 0.3605226563786694 -0.3694778086894282 0.8992083636567482
P 6.050664790923277 8.264359224600184 10.617043824023945 0.8194781975149563 -0.5431920797888645 0.29296537815398577
P 2.783278732153756 9.00415665418196 6.00423778982565 -0.7214281500180543 -1.1242768208584444 -0.33818208389994014
P 7.041387343550282 4.1023458992452175 1.9961790450858334 0.9812874896466907 1.0744763523965495 -1.235096252205873
Ni 2.6539566283536558 1.6589080958753455 0.47886036120203607 0.3465438256010741 2.023284895578928 0.06926654760630652
Ni 1.0908145684677624 3.6341065959740906 8.123392643957207 -0.41454204801791833 0.05051137848599043 0.334188903580147
Ni 8.08301561256706 8.956186750756817 11.159705528656637 0.04639478521445558 0.1915512992808572 0.30834468882353344
Ni 2.468479098999622 1.944587391087505 9.32545531753131 0.0640495221817413 -0.9374362967896952 1.3778346437490852
Ni 6.834508560809245 2.1630722381653404 2.9250099045844067 -1.7323602020040552 -0.3964638503599688 -0.7143180213358342
Ni 3.8998388255293888 7.442038927791512 10.575158644478448 0.26230574428659986 0.0058955395488285555 0.4248408588407651
Ni 7.130284857619375 6.733913524055546 11.828409640737046 0.9079012634450557 -0.5896372586252813 -0.013079458891777473
Ni 7.253031106212101 4.51192381823248 8.616473863659863 2.560040732824146 -1.7243059642410112 -0.5037076485409969
Ni 3.15146260292325 8.939833998168798 12.618322586583536 1.22729629654548 -1.1645557229831494 -1.7578598889370565
Ni 0.31734674814057845 5.033373588258131 10.491712047938694 -0.9384207721901515 0.011203324914987158 0.2859264690293334
Ni 8.750551801545964 2.7147307004718786 6.243014500531581 -0.07011655431142763 0.48669825846719406 -1.5739612211054503
Ni 3.636155262964983 3.112958638496204 11.952630197896434 0.24189529895104792 0.029596739820510316 -0.07885624817727065
Ni 0.6318107291582579 3.4398582110652978 12.545328764614725 0.4498486937390124 0.4077574209959171 0.6090146347106286
Ni 2.9337094226278757 8.488569364250782 8.232835361277823 0.5475251599465796 0.2712668101346296 0.2488619600768682
Ni 5.649336414908269 8.341732986845505 3.887385856891891 0.3409714737196192 0.02847342484934451 -0.5895557546550685
Ni 3.2202667179789892 8.544871123161208 3.4966254929660647 -0.7195090786184706 -0.031077952351727126 0.4918222099573208
Ni 3.676790206895948 2.7371379956847672 7.565001932668542 -0.10861471038662586 0.5977817421092866 -1.6347914650189457
Ni 5.929802584295389 5.927031396356816 9.695279951060472 -0.4899720441224593 1.8071371379056296 1.1650516887829614
Ni 8.235467532527728 9.02160690694367 3.0156990876870524 0.04290579822459062 0.47003982397490657 -0.7311656890207924
Ni 4.67161923933952 0.612306321904786 1.7746294287729616 0.25906075498674097 -0.22675175844139017 -0.39068786710814
Ni 6.093092318471273 5.880817493209581 0.7391023461384372 0.48849931623167475 -0.07545082204014748 0.14950373529150382
Ni 8.435358897496258 7.148055214598414 0.7689516071124393 -1.1105687272437323 0.2371017342171465 0.6494269770894041
Ni 8.811463061185897 5.436787214603154 6.122957127364402 -0.20516040542385958 -0.6060316408229046 -0.6592802157344001
Ni 7.275712776468413 6.456895334380777 3.043447550411911 0.4157916041543033 -0.5954572077411681 -1.1252669526858554
P 8.650862202435562 1.9680738948045244 3.9069826370766485 1.6271115798761848 -0.7815464554661895 0.6145635895533158
P 1.9474408915391055 3.6583339123083527 1.346389433915536 -1.4513406833580358 -0.5314948459565942 -0.29409717776558386
P 4.625972377948692 0.91151962342553 8.207923936501958 0.32922950269234263 1.7670101879777567 0.5710294137161068
P 8.683311624237737 1.2752403268220072 12.58243433090379 -0.6658002762411049 2.0611490176145537 -0.007536674696677343
P 6.545180077519558 8.145737747493586 1.6780238051506349 0.2671455888774044 -1.4618446682131534 2.50873539768195
P 2.2615362954151195 3.3096672529610243 5.908650097614422 -1.1958902714303727 1.051887154242124 1.215079442764314
P 6.885441714703358 4.246978130468328 6.449050037305831 0.6394567532505696 1.1947996094693552 -1.1754674847996467
P 2.41541496560159 9.134375049790576 10.359379135328764 0.6151274324765857 -1.3176116944022855 0.08769981461082961
