# total energy = -381163.0019550291 ev
CRYSTAL
PRIMVEC
9.29528090261073 0.00000000000000 0.00000000000000
0.00000000000000 9.29528090261073 0.00000000000000
0.00000000000000 0.00000000000000 13.60458318237199
PRIMCOORD
 96 1
Ni 8.609186805287115 8.886307011018369 4.0947208352037645 -0.27389396334483157 1.6248119852087308 0.6933583883650317
Ni 0.2645474089556164 6.811154168664662 4.944544668599989 -0.26542166420776225 0.36091474961076553 -0.22341806608246684
Ni 6.044432933977025 5.008009127616214 10.798338830115892 1.2044361041178548 -1.1512685189559397 1.725601800234299
Ni 0.9076404798138413 6.601266728775629 11.214244084507516 -0.6148307271717733 1.583239561083583 -0.23504639435001456
Ni 7.3068993782130125 3.2353897886313434 1.0187339575187908 0.009670176099912378 -0.27031293086179253 0.9516329000050513
Ni 7.735923062361742 0.14156619666811227 6.501698469703028 -0.3905415713382629 1.4272445616407807 1.4279235899856764
Ni 7.434105295612544 3.499998546440072 12.252545537584783 1.2995903181242003 1.215032134466146 -0.9311692328340608
Ni 4.7643612279540655 8.236901514986156 9.623828050680878 2.9878630428907385 0.05192368545248477 -0.183389075185039
Ni 3.12006324006167 2.1799013614019582 13.168011714282708 2.254464607884685 -0.37227902558364917 0.5119318362230023
Ni 4.781854946371743 9.095655324622477 12.330636120899742 -3.482755664243266 1.2153026145187134 -0.4123131586873996
Ni 2.7755615439958015 7.310292155695719 10.080206816620988 -0.3516947736743943 0.2523283213589138 0.816395959045207
Ni 3.2393031018374234 7.55058445899826 7.829913223441544 0.8516691804252042 0.6634004085503606 -0.15335396227552944
Ni 3.684909566887925 -0.06040724116947985 2.6869598571809976 0.3939310566357861 2.0389038330631077 0.7735377262291001
Ni 1.2217902955666164 0.44779829225713724 2.412160683059145 -0.554891884724296 -0.13988138171039136 -0.36196504525215084
Ni 5.3360302908688295 5.78245474062749 4.800636061176693 -0.8419576095643951 -1.1922182218954243 -0.6058166965986211
Ni 4.677664144169963 5.883652462419868 9.320813051767919 -1.0756148368763667 0.904572456182139 -1.8958394256390445
Ni 2.756720009865816 9.390464449667675 0.4829818595168351 -0.8596200598411647 -1.2457483326030805 -0.7730430459808687
Ni 8.78060107805034 2.812779848217045 9.089970330900773 0.9566864032685589 -2.2112788165258306 -3.7017277787392375
Ni 7.728914420657741 1.8078577484011378 2.8877500057759913 -0.9170965567910786 -1.4400144597119393 0.06022397778806402
Ni 5.04756984259264 0.3435600841234083 0.8098708575711123 1.0280229460300168 2.4572721968056515 1.0227305872828256
Ni 2.2985184393658176 7.609860464497478 2.302969949328743 -0.9710025627809148 -0.09143896993828768 -0.43598864792746844
Ni 7.249231456287789 9.159978667582271 1.7067901605396034 1.9184828740701734 1.2986590645591827 1.662379144829227
Ni 3.6652314574882316 4.001646259280253 3.4888274780052337 -0.9983439309083452 -1.4794063312460004 0.4580931931359917
Ni 5.8865154088984255 3.4660893621745634 3.7584157177248816 -0.34510503627201855 0.7265047932100133 0.7184873222221755
P 5.554729656932122 5.2873137243294845 12.94978083037045 1.0397394631359964 -1.0491160192548898 1.7547727653713003
Ni 6.969713068116705 5.071309989690807 8.683709859840805 1.0029467197876794 -0.7814518388698541 -0.23533667189692373
P 2.0470346180107346 4.393182076065277 13.597672125164491 -0.561540243278749 -1.0265095947092837 0.7223866572765817
Ni 8.094042344762306 0.356349460941093 9.326934923686029 0.1857848291107252 -0.4110486901526792 -0.1725181939088061
P 6.123842517633889 1.1813000525127357 10.712234785245206 1.6298842575253156 -1.9327386126582389 0.17331060790311442
P 6.530111354446553 8.064204493476044 7.95043676349226 0.7228301725719035 1.4897377950789956 0.8910697937100138
P 8.326703222548954 6.844505636083699 12.99175088212364 0.29374313686027476 0.6008894345003328 -0.6069145576484902
Ni 5.466461670697125 7.821923000087752 2.105064126358088 -1.9983909605507262 -0.116165011930058 0.6494408610464751
Ni 2.6747356334344046 0.14981761741166824 6.4960655295536585 1.040170380025828 0.7738670845440608 3.040919042175453
Ni 0.21462338544365872 4.164090586096052 10.46944762858278 0.6515710200156004 2.3416861973075154 0.5816462700000047
Ni 0.7140337242014095 4.379843348153817 7.224468828304424 -1.1737849548909012 -2.7392142272659408 -0.42805113824794666
Ni 8.895899740777692 2.087971034541793 5.158436515446692 -0.201440276259795 -0.26535970062157527 0.08767976000617157
Ni 0.5876727478242839 7.898237255246697 8.994833132173392 0.09924715312879681 1.0211807262972026 -0.018849014385703022
Ni 0.39861417309483266 8.635083457524972 6.398888016696267 1.074419273906369 -0.4959305756987395 1.3244994226610545
Ni 0.10313206972155907 7.466824683938912 2.4690821939381737 -0.9767682616200986 -0.2668532544479662 -0.637607872967289
Ni 0.07372273087900327 5.048071787754465 12.57362777373921 0.48243305543293696 -1.5996773949246321 0.7331973747388405
Ni 6.247776496200784 1.3017483007891788 8.24916570844008 -0.8875247566712329 -0.8098576437060567 -0.6901028575422115
Ni 3.789295569985969 1.2766417474171559 4.800146199879876 0.316589445330829 0.7184546692120272 -0.6902985184927853
Ni 6.494259456499166 8.404253750050911 11.411456479532392 2.560357492733616 -0.2986986810933372 -1.7695908042207396
Ni 2.0598063337949477 2.7076316320954894 9.388563564749283 0.5158640813978728 0.6775306773041557 -0.6323350546041239
Ni 8.577768756269181 5.151937255129136 1.13194118207187 0.8467627442625223 0.603715076874586 0.9354948567926082
Ni 4.919415806554107 3.5889822692947093 8.08675484463507 -0.08702412870004368 0.10067025872856857 0.7452216528932263
Ni 0.5856398699188928 2.62540557836394 3.033304807424457 1.902204191514808 0.460511058548865 -0.4099873387677004
Ni 4.62903123515759 6.630063508615144 11.735653564274363 -0.582134779600649 1.7850742445683194 -0.9664923336153869
Ni 4.4764492012435735 7.803044284834669 4.365534192929496 -0.3630130269006909 0.8417935731827051 0.2966790795601471
Ni 8.937858638193948 1.7451796701384388 11.344235797555175 -0.13049505539948492 1.749393246226942 -1.2675338039092878
Ni 6.143836666579917 0.20423219106580448 4.233800544264688 0.05358693208752061 -0.40403626339058807 -1.854215579450671
Ni 7.142307841538296 4.9952281165512264 5.856065928137199 0.3717033555858373 -2.8052380995652335 -1.1860830555319637
Ni 8.160196858034682 6.3866479909723575 7.113061170109295 2.0466333404968817 1.9371017747229415 1.1251929049148106
Ni 0.9820185279874495 1.7311437961688887 7.016277777156745 -0.025275486737337115 0.5986710866927754 0.6660080213765369
Ni 7.374503955286216 1.35105047001732 13.082439359472325 -0.5448553264239003 -1.4484659329134022 0.18974844174416353
Ni 2.275698525064331 5.002831656224798 8.963869622385333 -0.3309850519308687 0.8320454926570058 1.5763104380639175
P 4.397829716452545 1.597598497281124 7.166485796360943 -0.4546723403799008 0.17172012348754295 -0.9976479332825852
Ni 5.73083804648649 6.315111510131525 7.147806929644512 -2.0499744890549727 -0.5479005410081274 0.4152514153801171
P 4.03661510555406 4.095082421625893 10.23177566493058 -0.9143151373911995 1.6517466048160458 -1.4195309950466068
Ni 3.829534840458937 7.046259705295012 0.418277410045287 -0.09101088126193357 0.21362267725859982 -0.06690036136697511
P 2.0005768046996018 2.728360108222705 4.9126153791394565 0.04996810438801072 -0.6326705835666717 0.1581776089164179
P 2.8410189112100865 6.498637533743973 4.807274750705867 -0.9759822753836934 -0.6383126123437974 0.5007238833223248
P 1.3795962772759212 0.8028808064286609 9.035035221523263 -1.9542852284807632 -1.74423047107908 -0.5820252506059782
Ni 1.7297216182103847 4.910724719029916 2.244906048442524 -0.3352919068363387 -0.14441063703931256 -1.4479565973771515
Ni 6.777542433383938 2.9455722293620723 9.734242043361208 -1.6837277857083324 0.6283516444763437 1.984962345849646
Ni 1.4002875722800394 6.440346828006855 7.117672558901542 -0.6062267875528463 1.9221022159903156 -1.185429481108365
Ni 1.8650702015684095 8.780907822315902 4.6912687171115754 -0.012401716098462513 -1.3385659280564495 -3.5598509638653724
Ni 4.228702082759855 3.5231437955686675 5.820829377777087 -0.09531902171898422 -0.4888780397273322 -0.4605696797009423
Ni 4.150565952569101 4.443395182809322 0.7529288970743796 -1.5581545930904972 0.6990526105363315 1.2252296438244383
Ni 8.83987708354956 8.776167229120887 11.369839648448638 0.18341761443012927 -1.8847667127646508 0.1685754072109742
Ni 0.6473335779475684 0.5986653468682507 12.939740997605876 1.2754319757104422 -0.6091843275192734 1.8357650860549675
Ni 6.43130251981323 1.8109716674606076 5.717366396059954 -0.7586140150397321 2.438794963937071 0.9023026863113557
Ni 1.9747916958310374 2.927790357240384 11.63787743533509 -2.357577671726791 1.0315291594110623 -0.4904448699938198
Ni 8.052306534084638 3.8522710972334533 3.739695951773043 0.30987295254260183 -0.8954026167574128 1.1162194977716067
Ni 2.292894794497223 0.6536329897284718 11.116794219923433 -0.4358189551188236 -1.2468384803434653 0.7144409200669437
Ni 5.466591804627968 3.0296666345293035 13.234416270607918 -0.5996712458225156 -1.4981540441671488 -0.7473831793209192
Ni 3.521349806379182 0.7014553502573069 9.175107666570906 0.48187461182630553 0.6494819986970557 -2.0377758901062517
Ni 2.6664628335450673 5.124813625829039 11.592002436128523 0.10133823132987063 0.7212944526536675 0.17244748857187076
Ni 6.62483026553908 7.879609512574525 0.13875716281804737 -0.6045789675367782 -1.5890785363628632 -2.3606830501249925
Ni 3.431399374323993 5.34635734780934 7.0843824403356175 1.1851029510068816 -0.02754679927001707 -1.894312704581873
Ni 1.1855108147036009 4.71933488788221 4.628252290628683 0.4735730339391457 -0.3069339245189359 0.027607734414939546
Ni 0.8957322956135827 7.61654377137437 0.1855635491582255 0.4832182703383936 -0.17184045111549115 -0.5114975768990611
Ni 6.3584554043831885 5.765472262652412 1.566867369512429 -0.9837104972658864 -1.3480448140811623 -0.9319786161092336
Ni 0.4339539010715427 2.618266802729096 0.2601265734192469 -0.07105192164150344 1.5771434754881741 0.5011452871304595
Ni 6.943156450943854 7.612054150760269 5.657166439651747 -0.4156967304476518 -0.7833796520201862 -2.3590696828912856
Ni 7.877034719799979 6.737331048753294 10.392812686237114 0.2761310802054664 -0.6671429063119285 -0.2277586024393497
Ni 7.058417932548105 7.099335758517615 3.3755691294078947 0.542051281316202 0.24382979696959947 1.1403112486134876
Ni 3.7649791154797816 6.120022157235555 2.762437537070233 1.557028964126486 -0.6530856568879139 0.11550706663108494
P 2.727662962164615 7.918036203296459 12.239975529393378 -0.4537881380027346 -0.05989950456910974 0.23379015334541028
Ni 4.3761345311247775 2.275484733606516 10.87543574791605 -0.6624871527074719 -1.9628475162284775 1.4363434386182552
P 5.207588101126285 1.8888289392281246 2.649342785414526 -0.8777543075480304 -1.6062763882983886 -0.6371748991949285
Ni 5.020381146327122 8.75195302270322 6.406534314661401 -0.0055774940877774916 1.2843202793390076 1.0944376260098247
P 8.574719904175133 5.658957640256999 3.3147835703108917 1.7200014233283862 1.9262175237102697 -0.8211746113807729
P 9.332554850442314 5.794250451930377 8.787907168739126 0.06996408789396338 -0.5202005039896976 1.893727007281732
P 7.94408158002671 3.2012296317849223 6.981694685035082 0.18358422191498058 -0.5737840936431087 -0.052451275821180636
Ni 2.9198057110550573 2.18488363189711 1.700830956035048 0.12984559474094412 0.47194295453489044 2.3177628537226984
