# total energy = -381166.0799986067 ev
CRYSTAL
PRIMVEC
9.31215581475036 0.00000000000000 0.00000000000000

0.00000000000000 9.31215581475036 0.00000000000000

0.00000000000000 0.00000000000000 13.62928132201918

PRIMCOORD
 96 1
Ni 4.138349932450655 6.092366125131135 7.479531844427931 -0.7323725648447 0.7188110241101815 -1.480353011429986
Ni 0.5206137578696038 7.552819441053921 4.899167953123582 0.26117060224089217 1.1130691250680829 0.34769850803080765
Ni 7.165731752644732 0.42951573223929745 6.8718149757261235 -0.566618943353237 -0.07664612789982929 1.2720075234099253
Ni 3.991487924802914 7.653688711667093 12.181429228633164 1.284759166648639 0.48107577007409413 -0.0815610487029434
Ni 7.32678548558923 8.045404541462428 4.522603931878346 -0.1977214326473111 0.3242572462887319 0.871025216354313
Ni 0.4439654042491257 8.862061972614013 12.580943988832722 0.39182789424985426 -0.5323476808751929 -0.22281359972924852
Ni 8.228546707742826 4.66060356094018 9.338347075673806 -0.7689701614630756 -0.02154301627809838 0.21593744143470556
Ni 2.3807177914652633 1.4134455539162039 11.970788266551372 -0.08416711886722279 0.4789965189475622 -0.11019671016176506
Ni 3.8601306564065507 4.373174562902314 9.260087719116097 -0.6175697233694912 2.0707808842773625 -2.1899646284290863
Ni 0.9802440704482603 3.071847363692774 7.832393635753327 -2.8427345538487945 -0.8524662224052029 0.8866624086709375
Ni 8.426653508243621 1.096478397977213 11.633804631921187 -0.04165727052947019 0.1166442655593217 -0.6895151033595416
Ni 7.548051617332176 3.3243557778311397 11.755732411449115 0.5757299045155697 1.5238283090048013 1.6272293364009718
Ni 2.1099575521420917 6.490302474938436 8.912146470866034 1.2820985890973402 1.8803120194274068 -0.31741194123212435
Ni 2.9107098213469165 5.85619123210203 11.100327062158579 -0.7919992753683973 -0.08892931614255653 1.1449808861750153
Ni 8.115292270039964 7.608180206729263 2.199411982290195 -1.3948951987757976 -1.381135425987544 0.7386337152630634
Ni 2.5048115784105303 3.9357919215221364 3.187071322327568 0.7471263261151068 0.42642542971906555 -0.22637149228383593
Ni 1.3224285440405443 5.208055882771584 1.0155017543843379 -0.6912081747912483 -0.6737005049247881 -0.03569822473255787
Ni 2.033057770317537 0.22170194063001086 0.9265837044049311 0.740882144977608 0.8861080788293643 -0.8723426496141556
Ni 5.011895322813453 0.8646876678547435 2.239700092738942 -0.03232365183337014 0.4049443770271542 -0.0227923153041672
Ni 3.2832146739196744 3.3803963308730594 5.661794394434717 -1.8124271826599756 -0.6416319065250176 -1.1378915834284016
Ni 6.871402447228324 2.050816051249897 5.290736650858755 -0.6850663235595685 0.639165447262396 -0.14175340192212363
Ni 6.794521289715182 6.005530273167709 7.345078284259145 -0.5526246859566741 -0.8628802186496752 -1.3559771815543615
Ni 5.2464312764382095 8.134298379836999 7.587066756095839 1.0206004283137005 0.026131664090045317 -0.7945739780741089
Ni 1.5673009904995523 1.4068246112088585 9.614626629684238 0.17380631659261034 -0.06562920796403536 0.4424508586130445
P 7.679669626088322 0.28589435477742964 3.018885409327435 0.060687804798359994 1.26405895798681 -0.05650487706526398
Ni 0.6173745053850532 9.213530665445711 7.650892271308421 -0.846785884190974 0.02949800945911694 -0.1272076428974648
P 6.122779625668674 4.159414028658834 8.48572703039916 0.21612538907579557 0.42662983242038777 1.3065340964318852
Ni 2.948163311598595 8.76850274423047 3.416561018774953 -0.02329136642777279 0.5433892834013352 -1.644809254266264
P 8.15691760604817 7.9425052209052325 6.699132222735305 0.03559126684104839 -1.8584077631551477 -0.11707826777294678
P 3.241254100306034 3.776228133490683 11.809294999857526 -0.11722147821903038 -0.7778918894327377 0.2590442999265087
P 1.28703304020001 6.0440267248585196 3.0063056181834784 -0.7328117092646476 -0.14969528247701963 1.0331229862607432
Ni 2.3033151532325555 4.635544549933898 7.323516918936237 0.7898958558721493 1.5991207510902137 0.3977257477915279
Ni 4.716597553203567 2.37556816935955 4.16792999505246 0.32969847190896123 -0.7780937210308987 -0.7129460806889723
Ni 4.198133972086601 8.303099826329333 0.9352272473317356 -0.4207414919604109 -0.5226818756506547 -0.5353543289120005
Ni 8.574297736970712 4.450279212152411 6.212962266393029 0.4539596305835924 -0.9023744200895556 0.939723293051659
Ni 2.8094866888168966 3.3353813701876756 0.4011993291668701 0.28406730433340754 -0.02152501855596938 -0.8897947836523321
Ni 8.552833218067152 2.3050658385053837 9.46665368186071 1.4017453889284115 -0.8746000781897648 -1.1958131383355342
Ni 8.423412878057748 4.4659888188293335 2.2180428122122566 1.3998875097840666 2.8298481848044297 -0.9693079486873112
Ni 6.502911133765083 0.45889930835569365 0.0945630787687075 0.22703792222324126 0.758885523533564 0.7598502014396785
Ni 6.464619549499816 2.5484855886741724 10.025494770121202 -0.9839131001949958 1.1714408801387568 -2.2065947807865998
Ni 3.265177028316119 6.944754297728689 4.898295404133879 -0.11828745758969951 -0.42002518261967664 0.6647160420379906
Ni 0.5179523437686765 1.8805712206230492 13.481771201768952 -0.05732608741497869 1.2004043572506424 -0.41525604336580746
Ni 3.3924928211358463 6.263877408934071 2.5533372217972765 -0.1277797133508509 -0.3328573292529171 0.6343099189423075
Ni 7.309120326213936 2.740455678564363 0.9286184104268086 0.7726545522931982 -1.6345040156855142 -1.9547673103235041
Ni 1.519967303043242 5.298290671567895 5.235157049524309 -0.32161852311430417 0.2180832841331147 -0.43796556914818124
Ni 6.47180853370526 7.664816737736401 12.860657865867726 -0.12797074631573446 -0.6594008004726644 -0.06768969003748987
Ni 6.4121548642492066 5.541002697902988 2.860322678034434 -0.09101499502699163 1.3289006370525436 0.28324172310831863
Ni 0.2290510939136072 3.44983707597668 4.241909484847445 -0.4132027603812045 0.45156027711348035 1.4147515713800924
Ni 0.027585398849464513 1.106777642188639 5.140582796168753 -2.0868397375124386 -0.8988270690579294 0.7492749970269935
Ni 8.615122227588156 6.615187795118758 13.643046564019265 -1.7503227000197465 0.7723953850945408 0.7930254026400665
Ni 4.228230859330118 2.4359388748050073 10.133915267796803 -1.0912173193003143 -0.11313548107511485 2.573573734313574
Ni 2.959421707847794 8.981462433083188 8.264632242321214 0.09676243903373012 -0.440404517606977 -0.2378452972513904
Ni 0.6161574066342094 2.687180835767284 2.1801805183250615 0.4976375310875172 -1.4307271208727423 -1.5922584767527417
Ni 8.628345488691433 5.773033681642684 4.216395109427114 -0.5436379090770315 -0.20813182934735766 -0.7600800580622974
Ni 4.908493145848104 9.221129384502243 5.058003530578785 0.02749614853773974 0.46883063415815385 0.8068422539185007
Ni 7.4340894557956165 5.881008127059943 11.34453648313128 -0.738799037196334 0.33813400427082413 0.042100785824792014
P 8.507930003250248 4.292996902269059 13.77225272444742 0.6532088127293396 0.20688021632844372 -1.6879713914760348
Ni 2.371247329111718 8.943785451094552 5.629847181852312 -0.19959525263125624 1.8139988980224695 1.2958318795230328
P 0.2869596653902571 8.952427131590216 10.015749599174317 -2.0798134267932764 0.7713597447411747 -0.0969249327535234
Ni 7.827053114455629 7.076744792713097 8.940426556531206 -0.5247292450979867 1.0148005338024715 0.5028805246540115
P 2.8495941434449366 1.93674214384486 1.9738883329582224 0.6091516745091251 -0.7905126635205418 1.1261200447147703
P 1.719666482169855 1.7988477421425104 6.3232777877549085 0.8715389227659377 -0.8605495136339696 -0.16428089360067838
P 5.88423944509011 6.995384488305113 1.3562800924649354 0.6099818837199042 -0.43004374319794325 -1.6757604512321398
Ni 1.908852237503792 1.6668851836252225 4.099156000297426 2.420160122444703 0.6725972445582804 -0.43373019091059495
Ni 0.7064313064844875 0.09052346562321321 2.9263160630954963 -0.9643202656647328 -0.08415683445457764 1.0392766645669649
Ni 5.851842455387079 5.1938548453191205 13.411144088028317 1.6192450326439145 1.7720737185435933 -0.010838999597032948
Ni 5.480296754852094 3.8125921015246966 1.6208486794588324 -1.9939079850787078 -0.6682479664506491 0.8729178053913353
Ni 5.069360635678473 4.7942143710175245 11.050648573895364 1.436596949389958 0.5812971141907021 0.8716929318452988
Ni 5.020853616603139 7.8018171724909235 3.1321454343237205 1.8573070738918014 0.0858254804062522 0.9335575305605793
Ni 3.6291798827288106 5.624709665549018 0.41704489331710765 0.3328496159434332 0.1226022829149695 -1.5418399150908735
Ni 5.048808708034153 4.235308097667084 6.659989507438462 1.1350435724566452 -0.7788488540293683 0.25230338165824934
Ni 0.9622064248447048 7.570624282764813 1.3460069222894875 -0.019900081358036694 -0.2721006188898346 2.40365878235557
Ni 1.988713284843024 7.265846738645675 13.135778056492695 0.6617032233535959 -1.1652123827305416 -1.548101322619553
Ni 4.241994225464374 7.024429101953791 9.451770063394957 1.1595739534978418 0.9442278657902319 2.061250061968792
Ni 5.405697075487053 3.1070845608862974 12.718232169198576 -0.8829461361616148 -1.1125759874817487 0.12364769346034833
Ni 5.500951116209186 6.558383645308903 5.264855376503586 -0.06263927209777599 0.6182443808390127 0.2982682784241379
Ni 6.638542681630745 4.622507531944751 4.987185517646167 0.12941082119637068 -1.3481276036029557 -0.2666923033900697
Ni 0.3089782575583558 5.390844187135132 12.201764183049521 1.8750361157404483 -1.5366331740789536 -0.3356066098632801
Ni 0.5167054461195717 3.219407783018506 11.300405246022446 0.6248742274507044 -1.6534967547379331 0.6223866851421604
Ni 1.3407083056924698 4.670185769162203 9.859394779999333 -0.12515127458906833 -1.3636776355224127 -0.7185004348482981
Ni 4.301647894920428 1.1450226656753726 13.344456016151547 -0.6643581444779397 -0.33458022548129474 0.38119638267793704
Ni 7.4461021366570455 2.8864237192642768 3.1747234038607046 -1.7155194762976327 -2.677774889013537 1.7581905328035978
Ni 8.760782967149755 0.1953541272739447 1.019506912553718 -1.0644387656548893 0.819255539981189 -0.6338034116195344
Ni 7.385712806900175 9.21804706096338 9.619819087706203 -0.44788539936505445 1.0184666698001492 -0.05206406768509098
Ni 2.1015672998505046 8.340488131491066 10.678637265575052 0.8854629890461977 -0.7422695122434378 0.6006878600124881
Ni 6.063656749087893 0.9878334773490852 11.485340933491925 -0.47220340728512866 -1.2868859831836548 0.9017154463493181
Ni 3.2502682670299583 2.399379351501156 8.0242119375055 -0.25547072364263745 -0.6651551864579384 -1.0045850267220504
Ni 5.111973060191571 0.9520096143460505 8.563781519531323 1.3457017677702825 0.2917726433974652 -1.497803859916582
P 1.7768524303636781 7.2249384386268725 6.824099489885845 1.1483377184623902 -0.20677505820914713 -0.324741385014002
Ni 0.14978695575516376 6.7270640337770535 10.422215883608802 0.9773609008987749 0.8300693427672413 -0.26026480259717116
P 4.808210541044445 1.8060553506593675 6.512247501076454 1.0024042170206477 -0.6378086761241855 -1.0040037002972837
Ni 4.082486310367161 0.23384778531804262 10.421739101236627 -1.2741942466485991 -1.2282987696680652 0.9012212803217189
P 8.320606679057617 2.3057176894048412 6.879829016927166 0.8045254328598661 0.4697490322073652 0.5731580300233355
P 4.670306827186388 4.481307314966582 3.803604940052321 -0.330961654892101 0.8974019065756286 -0.08504386504522127
P 5.633900763231367 8.084888081658132 10.697567946910866 1.7088469493734635 0.060120876551296464 0.5822653916412424
Ni 0.26891922613998953 6.01366909725522 7.81453943961719 -1.456397014835021 -0.4185480838535179 -1.3636411258575225
