# total energy = -340896.11603446014 ev
CRYSTAL
PRIMVEC
9.02749877008211 0.00000000000000 0.00000000000000
0.00000000000000 9.02749877008211 0.00000000000000
0.00000000000000 0.00000000000000 13.21265696358148
PRIMCOORD
 96 1
Ni 6.392326611187986 1.9965486697550026 11.479631707548213 0.1772060863027787 -0.16075668249750377 -0.782775185666968
Ni 4.681588546662807 0.40499164156097056 6.065031941706344 -0.0971948985854584 -0.3403204703991817 -0.320710409477738
Ni 2.7776349299034546 1.4994404326234345 4.762607638221749 -0.5158517401026986 -0.8909468949789043 0.5349393528617691
Ni 3.3187612501399064 4.260798782576499 4.949210547741744 -0.1725009675176255 -0.15172568264348707 0.03112371798799801
Ni 5.160777199101349 4.37533968463449 2.812908977878029 -0.06756319176195462 0.6764276740479641 -0.7017679525849656
Ni 6.9214463583051815 6.178149207237337 2.581132465434153 1.8266893490059444 -0.618274976966632 -0.5670316054106235
Ni 5.388784730885607 4.304573123219563 11.870779680027693 -1.898259090824131 0.7811775021625449 -0.7634888266335302
Ni 5.723407020969432 7.97867477269795 12.31058857813479 -0.34803377988303935 -0.3555408868933619 0.03944560759013207
Ni 1.9295826852447426 6.3078382519224805 0.30029612946076994 -0.5145957562084105 1.0114149051596903 0.6616029503303057
Ni 2.688677958837925 1.4935093660524936 0.4665293911715244 0.5124663685702336 -0.2934520879824172 0.0788613903835932
Ni 0.6173536155459939 -0.07936074006871054 4.53511196560731 0.19167214112943765 0.15320663806438778 0.437451348515924
Ni 8.54834604346304 2.2945463980758003 1.2097525167509644 0.35851153948591163 0.4967407303048606 0.6593586343808193
Ni 6.83037695257055 0.7591747155807379 4.6732769287147615 -0.062065144761860855 -0.6506855320868535 0.01372377734399572
Ni 0.7238708768608305 7.192623388327249 2.3710372963440514 0.1695179736299016 -0.024659707530209143 0.4607288309866259
Ni 7.60747305834403 3.8424464431083853 3.743317286636255 0.1357845859331984 -0.3465780212731192 0.19213108304372717
Ni 7.521386831828819 3.894823989903819 12.611467884004211 1.6404214096112133 -0.3718349960676951 0.23556421452669754
Ni 7.868430959966851 8.75846107305003 7.1349403806128775 0.006099942250150785 0.8220336169469584 -0.40658782616784817
Ni 6.704768337246235 0.8300080804852006 0.3855969635990074 0.2153298897576937 -0.4091995527590823 0.13147156038014132
Ni 1.867067257537335 6.568272558627319 9.41119074730462 -0.4342084160985941 -0.005569523667977505 -2.027048476386419
Ni 8.898838676060889 4.972454551100737 1.299557169933711 0.6169086927467247 -0.7015514656987853 0.7009948218643669
Ni 6.479884319972701 1.8931025634590917 6.816026840818391 0.021323186957808438 1.0327501763023568 1.1648244032635036
Ni 3.3841383948990464 4.414663468474702 0.4443334803983543 0.05941845116763315 -0.16864174167253534 0.18761185501713495
Ni 6.077257883041237 5.701307704431131 4.6214040190902805 -0.9739693587187227 -0.15354499524041298 2.1796714740331944
Ni 5.05939838998161 3.13953832071389 9.478165759313466 0.5529928679293702 -1.3235244603422949 -0.22324297395718326
P 0.1640025668101768 5.509509469474946 12.405746537978981 0.2232362890889639 0.48826611717494617 -0.429415365585325
P 4.066129803069995 6.11205889008991 12.423610152180773 0.3170478730244862 -0.2270168391773187 0.5121287827251567
P 2.412445529607749 8.322559276330914 1.4339829431268798 0.08001273037921705 0.0011315425012819221 0.03164513770910679
P 6.445426357870292 7.814482628417469 5.8149566896288345 -1.2037015399446753 -0.13915813039112163 -0.23659779799753444
P 4.635918431316703 1.0491668581555533 12.591806894833962 0.35887895012765936 0.024587459531377007 0.4935715885482596
P 3.9375060032179885 6.267927680674185 8.035950640226098 0.8317323322919612 0.9329414942431352 0.5533687632115502
P 4.660933629898251 0.9101253249354101 3.820096162109396 0.7095221426090876 0.7188498477679168 -0.372578559101939
P 0.20659701338806294 5.4042939734561966 3.5506767860620045 0.17219140669700667 0.6389798136141511 0.7641496001459808
Ni 1.4570382717654282 1.0395525721615622 2.5574948631368137 0.10776933166719506 0.22709680048563471 0.0864433164959092
Ni 1.8958017855362779 6.455148973847314 4.879711447128279 -0.5358739488608963 -0.13236501872868817 -0.8862047523082286
Ni 6.0098134411059245 5.6364902645843165 8.974472864713336 -0.18118795376866215 0.22822268655996175 0.7373823593544656
Ni 8.739981783444678 2.120424005350822 10.102397426032063 0.4405850090488993 1.198494541822439 0.9245167605145498
Ni 2.288850046468093 5.300369409735232 7.075642353401487 0.03190584756966118 0.0373316465709228 -0.5188087658484936
Ni 0.722069890892942 -0.03770695884347595 8.976044552217143 0.4396753527504363 0.40180865961164985 0.697641846231734
Ni 1.4701732822079234 0.9027679135878957 11.569848014666476 -0.38824069111922815 1.4281791576399079 -0.07359731377117648
Ni 4.1726813688794575 6.62400833489671 1.6705954865632258 -0.7203673128537078 0.4961329215175327 0.54256344506593
Ni 5.524612474609168 8.028010052469932 8.033017605935536 1.1724577514390453 -0.6910168847160486 -0.4179202204615319
Ni 5.196164993558106 2.86878558312536 4.876606890364585 0.7531141682674256 -0.5072611702202103 -0.12767609789345108
Ni 0.6515840846840368 7.464567755729118 6.64958684939002 0.2596960745778947 -0.7903861652450065 1.1310339370766196
Ni 4.89860058516943 4.515482572682114 7.022368375996472 0.7064717858185381 0.6815809361141294 -0.40338551718046656
Ni 8.218138200187726 7.247330029757847 9.095857513449305 -0.05848822604387991 -0.8279702941463677 0.03871464296137849
Ni 4.684865528649492 0.36926531590724265 10.475126593146717 -0.07463295412454243 0.12886394755396516 -0.8625326055022694
Ni 8.12275365012903 7.166524889915391 4.6207829271875696 0.40811634699723265 -0.34036906424893 -0.4551014574975194
Ni 7.427500846535384 6.08678189404937 6.86246880729359 -0.23514769581456924 -0.14603428868566465 0.33824687569960454
Ni 2.28603346690929 5.081921998953449 2.597965139297436 0.1638448345045243 0.7453478940584454 0.1214969656659327
Ni 2.1983945106373026 5.125633147106411 11.442227169907364 0.7544459997049716 0.6585489939953304 -0.6740329485635425
Ni 1.1301435204711412 3.2833373456888064 3.7197067668346735 -0.831932107007593 -0.12347157289380026 0.7832482686486445
Ni 3.6113515068077455 2.6677522171157917 2.89412667440586 -0.24074884405143052 -0.21882016229913923 -1.110285905895991
Ni 1.0971028756467207 3.4230920512972363 8.200805402902784 0.5861400441053002 -0.39985899208444686 -0.014283249391891531
Ni 3.7276798535857463 2.5506204229636453 7.013832876083498 -0.7527220750353295 0.08201716240375552 -0.36329430558653564
Ni 4.152035479613488 7.0134546238927475 5.872999894536783 0.36949632063218946 0.27225308530729886 0.9109660184133086
Ni 0.9590995047639569 7.519788964579114 11.283767487228934 -0.8196946844011367 -0.47671646466413375 1.3253095772671755
P 0.3096720894920932 5.556759397073584 8.047128488975167 -0.2730681250094265 0.6839113840195189 0.04271707925255224
P 8.622272229383034 1.7187274007737074 7.969148053440242 -0.7553140041322217 -0.7569258287040319 -0.6946408546218811
P 1.7769908766471525 3.2749598270010845 10.40693557707835 -0.4748860963236144 -0.056451398119509236 -0.45708840602056117
P 3.8809758070730376 6.065973509808853 3.9742479224626313 0.8115178050172991 -0.07404777104503377 -2.107455871100893
P 6.8556358936139175 3.9073812404368162 10.346276203080205 0.7986154951333343 0.5244286831384323 -0.4673015991081371
P 6.312929761124932 7.738182210369382 10.055096041691483 -0.5692514958800777 -0.5830377510308926 0.4637179955219369
P 2.3942009549656307 8.543552441713924 5.872273180900618 0.783738835131818 -1.1079467162398533 -0.8241704607843032
P 6.958558404991846 4.022563094894406 1.5462507210409395 -1.4698536545605587 -0.34353332090952443 0.028785299662808492
Ni 5.030429147019435 2.8641544763507896 0.6386007362177851 0.7192478545372839 -0.762672501379822 -0.06337435049158763
Ni 1.520321036852638 1.072087677065172 6.955882654410983 -0.6600281496440181 1.0067226418903437 0.35301169271360494
Ni 6.927901019794105 0.7728757501845693 9.14364728546338 -0.6276890711916803 0.157619936640735 0.24161864825089355
Ni 2.7722545407462538 1.7553248800409753 9.213648314998222 0.34632065384667454 -0.6093540203279184 0.4341955605827877
Ni 6.240077847536661 1.964383692293415 2.5019883853315044 0.7961863168665514 0.17769819544784882 0.9663897465992519
Ni 4.022120747463697 6.894643715003623 10.352248796144641 0.8865917033340022 0.25740239344771154 -0.0710884313063937
Ni 8.202213692682184 7.166434614929532 0.2602943804767564 -0.40474151698772876 0.2844532269179166 -0.2012171045053954
Ni 7.756526087495944 3.861900702561015 8.15486536534896 -0.8270930337477368 -0.07114756667910327 -0.17491060540038264
Ni 3.2434538569362683 8.178453316404077 12.55748073421091 -0.1147269939319508 0.6491104742902497 -0.2967536415518244
Ni -0.11992490221462612 4.892931316057481 10.299028080981284 1.0119324682260573 -1.0861316772472909 -1.1501187216222128
Ni 8.550404313140627 2.1965619284243636 5.626689109369597 0.9029688591404449 0.903448884100657 0.5821291231736943
Ni 3.4344486445183073 2.7583973304168867 11.694125976699226 0.6730939816890408 0.0007237655399019793 -0.41119138637813063
Ni 1.0897725467949642 3.354239319582522 12.628234657127816 -0.5139023296858117 -0.6634196918240703 0.34483609888134803
Ni 3.289819089673488 8.498622581251864 8.051158364343916 -1.6100839349699367 0.031169226513952774 0.3108859671881485
Ni 5.551315815426282 7.923029271414418 3.542682936064184 0.26755696538321017 -0.11816558729985455 0.8354164660117677
Ni 3.113737729755367 8.179130378798021 3.6233463441788407 -0.45069227268623024 0.5057395913693612 -0.1683254959836972
Ni 3.355864269327985 4.539640158898001 9.114195974076717 -0.7430349296545525 -0.6447521973215542 0.9241359801363633
Ni 7.24229268554691 6.103275133965822 11.28934287035559 -0.8919838208838509 0.4588331566258098 0.514058909868334
Ni 0.5252505612232753 0.04976769695424802 0.5036956028497045 0.13014744225207908 -0.06907988551679717 -0.34844592771979344
Ni 4.554300816601515 0.18800849104982134 1.6684279841527496 -0.30862673884032654 0.14571161523892326 -0.7346338500750509
Ni 6.016954192487378 5.841974187396738 0.399767428129306 0.21157299381842268 -0.5091285624462523 -0.4701007591198291
Ni 7.83364800791535 8.694438053078777 11.243785598741809 0.78708589722718 0.1292311010853968 0.27251173828532427
Ni 0.31152362945206274 4.773930829698052 5.832092687444603 -0.8813746779094369 -0.5764089328604654 -0.4838255649050893
Ni 8.0004220167914 8.813212851973558 2.4975748412728542 0.7125107929237664 0.6784562744422187 0.5399550609088055
P 8.514195016312552 1.665438076621097 3.4966499152749257 -0.3760397781776621 -0.03769185812381896 -0.0933007057373748
P 1.8527045072871566 3.141578535394305 1.6487814389802395 -0.3895419264291549 -0.1293506573823966 -1.2622368171764067
P 4.878532455812959 1.23555762145878 8.274835405056516 0.1053380965178831 -0.29855701330915035 0.14454870527907362
P 8.467071473694118 1.4408880767952403 12.297375931204456 -0.27710064320758726 0.9638476969036884 0.7337175089083686
P 6.441959798413304 7.933672692247202 1.4834906481218537 -1.7020777489704297 -0.7069420405867374 -1.595512207803349
P 1.780863673540507 3.0304410003032007 5.934742568365237 -0.41356477170631356 0.8295294111033713 0.7045912809663737
P 6.802653504413228 4.056100252141052 5.990275225916445 0.5488225386017646 -0.3972860891509481 -0.15044630171043125
P 2.5627533810631045 8.705433546356412 10.292091351067873 -0.0022754262977380166 -1.163140073582545 -1.1746496168840415
