# total energy = -340897.68152659887 ev
CRYSTAL
PRIMVEC
9.01367844866464 0.00000000000000 0.00000000000000

0.00000000000000 9.01367844866464 0.00000000000000

0.00000000000000 0.00000000000000 13.19242952620661

PRIMCOORD
 96 1
Ni 6.296928824686426 2.1439124672457672 11.376293550375701 0.6230330604769078 -0.5261024712964294 -0.08162944004703362
Ni 4.754607294156993 0.4740005134834821 6.015181061932959 -0.5739848968000051 -0.4197780996058771 -0.9047133526353772
Ni 2.5773352024350777 1.385168044244195 4.792532346840971 0.9014395669801121 0.49130927487664416 0.021978818263936346
Ni 3.399445785952005 4.25383435251381 4.672283564822877 0.06225360662358311 -0.08803817178685483 0.48859470415895845
Ni 5.145097878203398 4.506118202679424 2.5262051106109875 -0.8807534993856703 -0.4090092911251472 0.5431943937817096
Ni 7.2428783384054105 5.9914101887450375 2.4077103904472734 0.21264257273351767 0.5781585685617204 0.8611105283437621
Ni 5.05952201363259 4.467233193225193 11.533838230311915 0.28563927680621776 -0.042046278437772755 -0.5267668443533057
Ni 5.718620219778222 7.928350568116894 12.191493346514658 -0.8121652087933108 -0.09246175477584721 1.1147953637305703
Ni 1.644987329714339 6.525407549685461 0.613659350985753 0.5830166679849701 0.18553208966997078 -1.6268971498725335
Ni 2.779286671332166 1.527476001885223 0.3613881199701692 -0.4874114824841348 0.2575067802360598 0.2764316421650207
Ni 0.5232936176101283 9.014579961793272 4.624658892603968 -0.3303530747738246 -1.2590136822534188 0.9470301111257176
Ni 8.411447686037373 2.091831432330017 1.3685035552597298 1.0966732002085628 1.3164184454251329 0.20787446192091297
Ni 6.994407274285029 0.7941357306327941 4.959258359792965 -0.6620217830352791 -0.9676475302657529 -0.4870810957279096
Ni 0.8807986448420307 7.487996314088848 2.6342376540307226 -0.693404925332251 0.01914931923494121 0.11899451095905313
Ni 7.566235044284194 3.9248350838352226 3.790422207274621 0.6279757491941637 -0.5460516607248468 -0.0449631949742516
Ni 7.572202099513379 3.7966876152652644 12.688861821752916 0.8079354869826795 -0.05342315281614671 -0.6270311258927072
Ni 7.815688599371314 8.856921709506775 7.196470512796682 -0.03441858668918588 -0.44680219360320467 -0.6942281925644948
Ni 6.815359562695127 0.7790071724807355 0.296711370587256 -0.6157010455918687 -0.9139001613409681 0.05301434741350225
Ni 1.9401222079155158 6.337274050072874 9.081246030041866 0.1153520291104594 1.0418140862768381 0.44573261468810976
Ni 0.1848642383865681 4.757599835450179 1.40767159422181 -0.6071554700147028 -0.6458801402784102 0.15387769598948337
Ni 6.392248475817277 2.060409748751564 7.140838088514923 -0.3079430825097406 0.07744548387267307 0.0039034488194642446
Ni 3.328832627847127 4.465646785792662 0.6045375082486919 1.0320066132681132 -0.23539889259342686 -1.1607106382054462
Ni 5.888834526346069 5.609780050756471 4.773641479243804 0.6293263496847871 -0.5559578640949651 0.10705919297404787
Ni 5.088771400669904 2.8849179707744774 9.364554060559943 1.1282669158544438 -1.2267501942340227 -0.5312189665873883
P 0.19265025395600818 5.535074682569947 12.411134159652343 0.1388513977839802 0.06278813897081445 -0.005529671568977574
P 4.092768929718805 6.154665935438367 12.509523869712288 -0.3360701797632599 0.4094584628474238 0.218121850680534
P 2.3174438075361823 8.55989395880087 1.305779168660263 0.9725920187552219 -0.6243116700790151 0.5541341806226651
P 6.217184810165892 7.712373815327645 5.738680161489023 1.1603172594217694 0.18206752816013802 0.6647571796885713
P 4.74809040453358 1.01912255654454 12.498995893114571 -0.05395974204590706 -0.8436956753014245 -0.0012904366766493904
P 3.950929683364661 6.030953196736625 8.065072749133261 -0.1001059015846663 1.6989947391697318 0.14510817732696946
P 4.595380661795152 1.0440093231423915 3.724209527059302 0.4875426087453604 0.22777222928610447 0.6955140012554538
P 0.1650945371264929 5.542492940052753 3.5977737560543317 0.6087768076682097 -0.4639655927563687 -1.4359940256986368
Ni 1.4134349403147715 1.084291452778682 2.5923781306404936 0.3694472125618089 0.34498496575438653 -0.7580902813257784
Ni 1.807332694869682 6.491362885636174 4.676650692101638 0.9121389556754871 0.3546816242168601 0.273905019088425
Ni 6.018297991990742 5.696013913864636 9.22115184233761 -0.4212107182873455 0.5724628037285238 0.29660503178910214
Ni 8.646308095480915 2.4797711453343374 10.179423956062362 0.05186917806546551 -0.4249791841908423 0.25507451664548325
Ni 2.30385118021653 5.249990056001006 6.777874377526533 0.7359512833348938 -0.06463779058504351 0.8055433326014192
Ni 0.481259228855177 -0.028719382735992127 9.168316362523548 0.7175552973262094 0.6363274635929687 -0.062375734023744196
Ni 1.443504572104135 1.0397638805246485 11.314579597146615 0.3831352515718627 0.14578129213459406 -0.2809572979495161
Ni 4.021317499504691 6.801947208947353 1.5496226101905184 0.22433826390389106 0.37014115330503994 -0.6795073414145524
Ni 5.617162253524903 7.984848305543672 7.876712104820106 -0.6642303606508237 -0.2540486464841302 0.6889206643086522
Ni 5.341668180979907 2.90171946767357 4.828376141137608 0.034515774388682495 -0.40704188298613125 0.18655873116227228
Ni 0.7196818440790409 7.413227850152167 6.9810778463803205 0.22174222104194072 -0.22077188670887138 -0.22350162693520864
Ni 5.334385128676008 4.660847009422894 7.224280415362547 -0.6070048033694514 -1.1385431009694713 -0.9441749010651095
Ni 8.282516027429745 7.0347254586356955 9.351876321617576 -0.2769967706398713 -0.44505718588764 -0.5539125515301622
Ni 4.557180691914059 0.2529391445993943 10.41531733307277 0.1326943770436489 0.8635772447166998 -1.1816011085012101
Ni 8.028663797188784 7.0484532911342574 4.57505571793369 -0.19542672307586342 0.9958088231913172 0.651572305567181
Ni 7.384402106008766 6.207621297177729 7.030800001608037 -0.1055152455256957 0.015307576891347832 -0.31640252613100345
Ni 2.3842622069530135 5.193122757751877 2.6355175963910615 -1.139048065630348 -0.1133213718336758 0.05234740325346469
Ni 2.444482593639086 5.17551002977933 11.419670977241148 -0.6672328949225734 0.16413434072048508 0.3693651943709639
Ni 1.080902309627363 3.228185892667261 3.790501527646248 -0.10388002391511787 0.7560745364473301 0.07804223691640752
Ni 3.5361562491861998 2.628677115706125 2.6151349649865985 0.5134271898216061 0.19639834296051337 0.291342240728266
Ni 1.0558352694576327 3.2671790662646187 8.109082936236003 0.03642456137562114 0.2544317408551618 -0.1902166396298337
Ni 3.6475833439644103 2.7183091356442035 6.983702629586873 0.8635209375574676 0.04257155481362346 0.33847159011590094
Ni 4.120332758859055 6.840165206185633 5.823032869874633 -0.6171969134111048 0.841867363843434 0.6201837639535707
Ni 0.8539009265498726 7.40817117646097 11.325753854499514 1.0759354534405792 -1.000798820206741 0.029535290454955586
P 0.3781436471084329 5.388413118168049 7.94343856471528 -1.0360267901710996 1.363296083813278 0.5918905734358323
P 8.447042702804819 1.7391442163065722 7.9998894310133695 -0.11903204906520791 -0.44844127186852445 0.7781554275067695
P 1.872059920852721 3.212988830557889 10.310055594452809 -0.7583980423741842 -0.013622732989757183 0.08146951743040162
P 4.060905575889248 6.092219170139593 3.671347907577317 -0.5217256823849724 0.44473014156552443 0.24228584952124727
P 6.897762612400871 3.9957637206908885 10.329276362686514 -0.13955202339543063 0.3344496134407014 0.544802618809094
P 6.267778588113643 7.750718004066239 10.057446350489952 0.6244746780194407 -0.7063841112007383 0.30352618438896756
P 2.354120465734899 8.352056557781944 5.688219785984462 0.18656335914796257 0.5014882722921751 0.5907729148916213
P 6.9458596013781015 3.9398879270870926 1.573540406339522 0.22654349908532598 -0.9696218803833043 -0.19091726524128408
Ni 5.195322095328796 2.733199732681382 0.3996809307407785 0.17419121073585483 1.4099772899199008 1.2151138955466751
Ni 1.3198369017953622 0.944552393536925 6.945246671233714 -0.14145541106573056 0.6455289275865786 0.012259019873011144
Ni 7.0556822613665915 0.69188185655963 9.4923752339648 -0.923249720876668 0.225293942948941 -1.0959720603764804
Ni 2.6033396651785767 1.570011551169997 9.081826510943316 0.6929686091257807 -0.40426791978541987 0.3494064918608498
Ni 6.368326172828976 1.9108547935210125 2.718840942681245 -0.22297120835303533 0.2887117450839544 -0.4107411862145894
Ni 4.043581285631707 6.831800512450462 10.330701425272213 0.1840742741775217 0.08909849473056913 -0.18971450318243457
Ni 8.035865726385337 7.16602771471353 0.3157987363777704 0.36968606804549237 0.09564709448236432 0.2984641964850279
Ni 7.5507855991741915 4.021092157539843 8.246099864542392 1.0496965743487083 -0.5429835633224842 -0.3001927491403604
Ni 3.204768355680221 8.350497191385195 12.418337891584615 -0.13433191264707187 -0.8678157082780795 -0.06928274555622262
Ni 0.2167077621232177 4.811735989085347 10.23915940684008 -0.35347783371674607 0.3355415609532995 0.14852980141400873
Ni 8.533285579591578 2.3820538556975 5.861172448109146 1.0148799808901554 0.9553936525990643 -0.2056283461992136
Ni 3.5572031887030358 2.651040052297675 11.537518515281818 0.20277750701397979 -0.04632639387036538 -0.41212803925978697
Ni 1.1640715220135909 3.2162337548517046 12.462189437944104 -0.7210787370984355 0.8216523223481398 0.5050603059141495
Ni 3.0372671663691473 8.465070059992687 7.892622148906259 0.3552773488193301 -1.2027600019670126 0.05024501219848121
Ni 5.653757788616273 7.7820675782159405 3.5997387379878094 -0.26556127510942007 0.7578622244753721 -0.14873497544627934
Ni 3.24252665531021 8.321473146312726 3.3971698321070365 -0.910782955868225 -0.488647668884081 1.014849384762536
Ni 3.419329960930223 4.336679072470655 9.26666641239768 -0.2921552235478646 0.2952698579174463 -0.27271408410411746
Ni 7.159393647268395 6.091876650353024 11.459049936282327 0.6258121658839415 -0.9887670858531873 -0.6421330145311521
Ni 0.5774703327989679 0.04350361836576247 0.19452149363210886 -0.38554566078556823 -0.7090917399398885 0.6573760567331517
Ni 4.550780980112367 0.32430043802756886 1.5851626435185402 0.4919145125608108 -0.21799098152962457 -0.5589611696976632
Ni 5.975428936597992 5.565126287002122 0.3790756614750456 -0.5325950209993087 0.6553230308588649 -0.20565739966493612
Ni 7.974780026554248 8.596128946748486 11.44378617295136 -0.709922720481616 1.0141829548231307 -0.020923380416228484
Ni 0.17933885340848663 5.036284750217427 5.74360163000131 -1.2128001598118339 -1.4103321021561583 -0.20310326578451474
Ni 7.756270430080103 8.779196758991283 2.5314817180598768 0.433908368359672 -0.12235597123211832 -0.15568209618807383
P 8.565698767815364 1.5770692615090471 3.6400289799348347 -1.1669874723530935 0.9621721089734784 -0.37631102956117773
P 1.8007887642104858 3.229682163313854 1.4916808814529927 -0.7226350258419619 -0.7275568886236115 0.27216438224823447
P 4.619212827997513 1.031390173110884 8.133805653883446 0.3515860160106719 0.8337035970857191 0.581100939019496
P 8.560813354017453 1.5950425366253513 12.326887812674139 -1.1694089373103924 0.4144440889874733 -0.45948827371130546
P 6.142272127371708 7.701683592515239 1.3738072037444007 0.7302434343168391 0.019127464858070285 -0.3257885953315938
P 1.8993893943495286 3.263952169327991 5.976619643540251 -1.3786771942550387 -0.8388733142121165 -1.166670712443623
P 6.953223776789345 4.024066671475841 5.936949542680488 0.19133841193910273 -0.09245789812110528 0.23400921133475183
P 2.4528292600170687 8.4620775186995 10.155558439249205 -0.5407099367969591 -0.3381293762851338 -0.3006383213182113
