# total energy = -340870.6428648155 ev
CRYSTAL
PRIMVEC
9.24341863314874 0.00000000000000 0.00000000000000

0.00000000000000 9.24341863314874 0.00000000000000

0.00000000000000 0.00000000000000 13.52867750868969

PRIMCOORD
 96 1
Ni 5.246296430298628 8.684201170535477 11.370488406223966 -0.7408914009489885 -0.5888944669219858 1.1869847414106267
Ni 1.9651878025255154 0.8460713791702237 8.040214958396419 1.4418965072260006 -0.3884597491085697 -1.235468805053943
Ni 0.6950736632960348 8.297031332260639 10.638004778513428 -0.24834156879702388 0.02570666073748476 -0.806564831887398
Ni 1.2894476739125647 0.3877309137937059 1.9625783854089376 2.4469903552636696 -0.047600889707414794 -2.85105104413429
Ni 7.015496024808543 8.87962553000658 2.099704502746645 2.071767159450032 1.7257743212564216 -0.058879033724395374
Ni 7.07591100983849 4.336614616232353 7.159281101022563 1.4118436537046781 0.14657499168048305 0.4600228060585368
Ni 3.684962836913779 3.254561529087982 0.5082105582825105 0.6699940026074784 0.7801444329123403 -0.591142125305582
Ni 6.419619034301275 1.3453333837490178 10.744259725869034 1.4519356366295575 0.27131848930817143 0.8255933092737588
Ni 0.08857136292158069 9.166559735223778 6.13283364812615 -0.636270127992472 -0.33721869154540635 1.4852183099420873
Ni 3.6762555364397564 5.368069229072268 5.524476193606115 -0.8607346330615822 -0.12412103355234108 -0.7118104244226322
Ni 2.916446514184308 1.06581240037913 0.3852869538729718 0.21893380505886811 -0.8961230398632051 -0.26606829665282566
Ni 7.610032719595289 7.338119069866718 3.9187168809662283 -1.3743579980543943 1.980229973370983 0.37847127043729006
Ni 9.164470722583513 7.38472438726589 1.7887485008501598 0.2994633271735036 -0.008111830473856997 0.04841130142385211
Ni 8.9943548436834 2.7762146081424897 6.660722520611575 0.2998996433799738 -0.2762087275209372 -0.5021855554695158
Ni 3.223790188028513 0.755850990341461 5.419696495884961 -0.9610025141454096 -0.6095517381610212 0.9233793044759968
Ni 1.5244153788484953 5.525891361018613 0.5717304076746907 1.1870438767833362 0.7628226538044411 2.092289190662784
Ni 5.019305795754502 1.0564118434979404 1.7598776066882054 -0.3561360972751995 0.16333884140238322 0.47170898414721346
Ni 5.850418550341807 4.482263165668839 5.165045855036735 -1.31606466163014 0.23993868944530933 -0.37142439089283774
Ni 1.084437889185027 3.35076703156529 8.942902277485313 0.593521681281352 0.1879522690756892 -1.0040852042674968
Ni 0.15677023089120268 4.971961004854352 2.7354446610079144 1.6757447675028558 0.6310227635506035 -0.23431800082442225
Ni 0.6084138393744836 2.755583297465189 0.7496061366256971 1.5287455438007609 -0.7915629591619271 -0.6054539139425636
Ni 0.40895103024616125 5.149185072782621 6.565927563837383 1.120311151342477 -0.38375205922025524 0.5112558932019002
Ni 0.560109581606813 2.6465571731646658 2.997792296659452 0.26245846781438026 -0.48758657460941834 1.6058842950662924
Ni 2.675257988421395 8.683849920622512 11.977506489365354 1.622501077687367 0.1799725933043223 -0.1300651669509179
P 2.3140251831933787 3.9685047074452373 2.1069291588512056 -0.8649494424738782 0.13528939146433475 0.631261619034287
P 8.019118703755378 8.492215362843924 7.924179549648496 0.13618953468110093 0.533425487320404 -0.548673671728726
P 4.2997703490460975 2.756738724810468 4.756737242394547 -0.2631171844443017 1.2950278955644987 -0.6038037799336504
P 8.791831538602903 0.6893039213046497 2.7990966912883946 -2.082904921234406 -0.798443231221528 0.6958631570647564
P 7.339588773449913 7.375333073803462 0.5662139353573908 0.5177276169691729 0.17347541561575283 -0.5548291498071606
P 7.5676054274766456 4.712415049429646 11.831897686629544 0.8286009857518309 0.6892636494703678 3.266233553949685
P 8.505886379193264 0.9106089289681257 11.49718424983037 -0.18441931622176627 -1.2689967616080597 -0.24605302987316335
P 6.1409484454575125 5.857249436807096 8.797482964834131 -0.6418795037594495 -0.3628628744760718 -0.762196590184668
Ni 2.9759926178506046 1.8465207924559845 3.353475353262624 -0.5685511273789434 0.2174047700088514 -1.6388558648963065
Ni 5.307302994129357 0.8836301626267999 4.172108568179039 -2.668441013207121 -2.212552283921615 0.7197674744861797
Ni 2.1279274332533675 3.9227682714097143 11.023085604148003 0.39489830564506184 -0.17942289144843937 0.008796001025075174
Ni 7.699056085694342 2.197363994995252 1.762692227701305 -0.49875673229362494 -0.3388911941518228 -2.641067506290174
Ni 7.995705124030645 0.5604118414003381 0.10445248069697104 -0.8978695902406666 -0.6043588811061721 -0.028388064224389824
Ni 3.996114799288023 6.8070661751389805 12.727130188486699 -0.31890780905136046 -0.0001023299058191786 -0.17056338417528044
Ni 7.183134667480378 1.012043433439228 6.2642380892500364 -0.3010286147780945 0.6329541762453615 -0.12540118581634532
Ni 5.949489512635407 5.736567361447399 13.420921789600412 0.7739447318595316 -1.0037543032906389 -0.24452579459535947
Ni 7.314409700741593 4.0254164367642975 2.9509161470905463 -0.21354734393597416 -0.6991289723002218 2.4550674758448494
Ni 7.1810826285151625 1.6089464434291045 3.908448367063265 2.5743237251057214 -0.24809268601101142 -0.5894601096174688
Ni 6.722230077739217 8.301708502154327 9.591981613362359 0.9104155452264772 0.24493459999800396 0.868194431773737
Ni 4.207049615442151 2.6111641227240803 11.343728708907305 0.16368619743947294 -0.34493071547768334 0.33907322825564185
Ni 1.603261740890332 7.063506341859576 5.504101849970404 -0.007420460833787221 -0.6891610624542325 0.09788189735015401
Ni 2.411515520878637 6.430359886902988 3.0151495884111705 -1.0317641582400037 0.14891109601282743 1.5931514208806563
Ni 4.192038303372287 7.857663908235477 4.847054687120314 -0.03627466606131816 -1.0333572137587366 0.03470500758135313
Ni 0.7099444754007131 8.900284570940167 13.031255303917893 0.24277024535683348 -0.5502968091544458 0.5053446699237878
Ni 1.7950626802066405 3.8905826872796236 4.8496659529206445 -0.28055106365003296 -0.0894623058278911 -1.194263020239595
Ni 6.401520420364824 6.323016064817191 10.951356674553084 -0.8025086595401534 0.10028819279880147 0.20406485836683566
Ni 7.922940931534358 2.76345869025061 12.692645766110441 -2.233319084155321 -0.8799615996119942 2.2189450748218364
Ni 5.2738325747913155 7.783171196430651 2.5088117467698883 -3.5892792964288183 -0.0914471974684038 0.20170124323066552
Ni 8.019423736574533 6.784937430622198 6.445156751657569 -1.0360666422700995 1.0641986246196253 -1.3317296218609065
Ni 2.83419857403797 6.249068714719337 7.748793997712035 -0.3752877305029859 -0.5788265411630225 -0.34301755761537056
Ni 7.919003235141647 7.794623792277056 11.898783064793053 0.06537286897885515 0.59789641331028 1.0276449938653076
Ni 2.5511373612821475 7.661509318682157 1.015406189184928 0.4762019869215605 1.5354304120201039 -0.3256998922725294
P 8.202619053023202 3.159742539425009 8.660382729068957 -0.34792707910184595 -1.319124017281754 -0.41421834612991243
P 2.910826515576871 8.30010939070846 6.793953461282878 0.14496085311582776 -0.7785866015069172 0.47907005249797496
P 4.654144537552538 8.73155520485439 0.21225015464399374 -0.9596028055844052 0.23159468835598823 -0.38771104386800326
P 3.0184846139005836 8.792515551591308 3.266823848417959 0.24051641632565027 -0.256257738320307 -0.9413240618798757
P 4.35963072895031 4.669590290304227 12.234253537588854 -0.5419263257025635 0.1550822578205458 0.4105486105878091
P 8.967206922778725 6.00645670246704 4.489776216438781 2.395027074822501 -0.8627313517766368 1.8080640205952732
P 5.040861448308027 5.942399810444774 3.726406629276121 -0.9560117457990375 0.2583148779596519 -0.16352936014663452
P 1.9398331048607138 2.204241098554353 12.399709809090925 0.018881153175219097 0.4516824045136415 0.3908336486573849
Ni 2.500363262021209 3.224714529904736 6.953875697972002 0.31404739563526557 -0.12813092604268256 0.16766292269903382
Ni 5.655253006596046 1.400082153077716 13.073194543525892 -0.05724021256939175 0.12133858571119747 -0.19683877293204163
Ni 4.550904793397172 7.2545678076749045 9.170008454763966 -0.5938047597394096 0.7985203643163666 1.0649689271267464
Ni 9.064429201319879 0.8940816962212553 8.978103989157521 -1.1384148029217231 0.5223972545307003 0.5015044702420911
Ni 8.246534535562565 6.380140392767783 8.76075239169865 -0.7413765681155231 0.038297610028617916 -0.05098780390177671
Ni 0.4438153571335469 4.284648115951087 12.68174222933851 0.2700141686744511 -0.09089466739904345 -2.5582440459350395
Ni 4.848672285403705 4.427523639758903 7.609083420488408 -1.6011336677551846 -0.44924705559927147 0.4043915898474777
Ni 6.694037650514411 5.949212210072539 2.2055129929760358 -0.3518837497567488 1.4445267457599962 -0.5078869767296673
Ni 8.154821334603703 4.812872524537581 0.7157641318534144 -0.6371707854298704 0.03243909436531187 -0.3002097184212249
Ni 4.543694926762631 0.8188079155310213 9.43278960675545 -2.1164063954259613 -0.8728807815058128 0.5751686326954611
Ni 5.768780675833776 9.132257408197136 7.704459788302743 -0.4445956728701892 -0.0699661447764924 -1.3202172503459328
Ni 2.530136313854357 6.166543472010133 10.523376218101117 -0.07551535672949575 1.6513419131784592 0.24140113292344875
Ni 0.8673404857421189 7.741095154224972 8.056367832683419 0.9840437122355892 0.3501276862975905 0.10635599625943618
Ni 6.012714496969072 2.375401483774598 8.71264409440874 0.7037685279547621 0.5972032438979973 -1.3726651837330037
Ni 4.490240236060645 4.765148753468179 10.146426827951675 -0.21689157781785873 -0.2304333210580354 -1.3974678445989803
Ni 6.891486318694443 4.117527104729937 10.076308101905138 -1.3342937830436568 -0.43982216274094577 -2.2541013110079953
Ni 2.0877555353127084 1.467808682348588 10.356135042436057 -0.17829340582968647 -0.4799673675012636 0.32262896665668955
Ni 0.932106347983448 8.889793290645034 4.05282687076182 0.3824197135620768 -0.5831493369080926 0.9741146260473353
Ni 8.897178782236058 3.001744782522182 10.773142636475379 1.2990879245664853 -0.7779366266277441 -1.8743601727193462
Ni 4.0165982152651285 5.670976061910602 1.616636043497405 0.39461291319415914 1.0507568972924226 -2.031074566826676
Ni 0.027618410919672196 5.675597771291718 10.764037868994581 -0.8871820286198333 -0.5222584149599908 -0.16980259474985593
Ni 4.423022094821696 3.8929767327390414 2.8556063318912983 0.8981225867917372 -1.5997499000337803 1.4144350685809381
Ni 5.0896851862101355 6.683694264919474 6.884311577051198 1.095425700954707 1.0170813594168484 -0.23830218228315092
Ni 4.754130598303599 2.140313614394758 6.606067109812375 1.1115503744307116 -0.3712554694151413 1.9182671585149416
P 1.0728651288947129 5.619323837867252 8.938884163349371 0.9061513706334845 -0.45547915255191235 -1.6716549137041985
P 6.350395071190921 8.25404943501626 5.647614245330938 -0.34917175014222446 0.05857667199262816 -0.1482696057740866
P 6.213851289235234 3.765149494676139 1.1255295072925282 -1.4881894767552692 -0.4199426502081994 -0.725208442996093
P 1.2338669968952651 1.6046667405421913 5.570095238223357 0.6471893460081369 1.3196518647607658 -0.39447844449882385
P 7.5609778962241245 3.3087279630346607 4.9473430076649 1.5537328098737178 0.01999238396152686 2.7403825365424286
P 2.751266620903227 8.48843480457017 9.775226844272346 0.10463361425169075 0.6150289592255085 -0.01807999743016241
P 0.6863173727025728 6.59268356378654 12.445706909535543 1.1984546897234394 2.2592077789966254 1.2189538381180556
P 3.522713107380325 2.762941058799925 8.882267299088825 0.3578530799663063 0.16459662506888426 0.2580099451247234
