# total energy = -381161.7889954842 ev
CRYSTAL
PRIMVEC
9.31966792094133 0.00000000000000 0.00000000000000
0.00000000000000 9.31966792094133 0.00000000000000
0.00000000000000 0.00000000000000 13.64027604877826
PRIMCOORD
 96 1
Ni 3.7208494525400018 7.485445426231628 9.600981149964749 4.227127567541689 -0.14156545428103362 -2.2098361705420326
Ni 7.78374003690484 7.755976746212319 12.895598386715825 -0.5042496370873961 0.6379179480085401 0.45538813550000284
Ni 7.890468873766452 4.521511442028123 10.314735372294129 -0.9121207008430421 0.3294033092660456 0.08277435228475422
Ni 7.017355785975661 0.838939729512398 8.746021843288412 -1.5925161012895024 0.4503940247195211 -1.1086869368399874
Ni 5.862881924097192 3.4022845641708406 12.243293394725866 0.19435251617507818 -0.48371269347630885 -0.2696452153708066
Ni 5.384801599845797 0.39508402171287954 10.554177212106584 -0.8679185524045311 2.1112467056018933 -0.06894361704924899
Ni 5.378287151979375 6.658390137233195 6.696447933094885 -0.40454354204430976 -0.15977760641368613 0.12002578043704488
Ni 3.1493580968649297 3.127410278945868 7.199092106046609 -0.5216824878518629 0.24423937370319226 0.04830125820854907
Ni 5.126320610467801 4.305323105608387 2.3958321917459116 0.4228477396701363 -1.3845688771491251 -3.4640884268510668
Ni 5.535957293616185 6.335277250925817 13.28523319860396 -0.9284119818038978 0.9332736807715734 2.9276832880770485
Ni 2.4668601767593072 0.6142546518625944 1.9364825360523636 -0.8870519307998724 2.81679675093711 -1.0818662171027176
Ni 0.25646514520988895 5.132769820658879 8.603713310261364 1.0421066778165924 -0.11890452234840813 0.7555366616659892
Ni 3.0299358723150958 5.829433635981901 7.302812554108105 -0.15819483530759854 -0.5036019762010682 0.2620982562614841
Ni 7.746973947014947 5.581959174401107 2.8744968591750255 -2.0409943970435496 -2.8668059929757015 -0.3037467850402059
Ni 2.5155927202407407 7.918306721802222 2.7203896265787484 -1.6418856528615657 -2.132434909643734 0.260110536407494
Ni 6.380738590972179 6.762928852136854 9.108621230547499 -1.9968398140135222 0.3823482368941931 1.2884618123112068
Ni 3.6207934978992165 3.8276435270769573 13.416153097449651 1.7784616243478082 -0.5995329204724386 -1.7118484552039486
Ni 4.409787263168797 5.288454873031673 11.572805730650941 -1.1053321614351417 0.1762036131801933 -1.4698176591163008
Ni 4.76302131614896 6.3513909567356075 2.8927885713744916 0.10326887269368022 1.7747301823298336 -1.0028695866928405
Ni 0.8573619170625507 1.1301868073149541 10.434210718951029 -1.7991304655510694 -0.9901112585859076 0.6432709847903374
Ni 2.168901074130718 0.4594642876087944 5.403213535761252 2.3750046089539874 -1.3557869199204264 -1.5176959708548186
Ni 3.8266556422789018 2.9542508492489805 11.141022720657094 -1.2636941184482235 -0.7046892399968187 -0.607611840825831
Ni 7.473367136625215 2.778724223903922 4.014824397138698 0.11094927205707343 -0.5533253115681245 -1.2332394015027923
Ni 6.899135798585724 2.05823001774479 0.5300747514999928 -0.9583151971212335 0.20744020259697177 -0.17608354266256127
P 4.152545789622323 2.542927306209576 1.2923592805172417 0.38039162738845456 -1.7946690873456062 -1.138973760748987
Ni 1.3388075733948692 6.472518680512274 13.479252840975256 2.3494794680996893 0.8639348851664348 -0.17050399169225472
P 5.193804325776474 8.852417036038984 8.534379640873313 -0.18691868560485228 -2.136120328915121 0.5826860241184287
Ni 0.1453076021592584 4.564791979784439 4.233123638339184 0.22913619951316666 0.3512697703218337 0.44431902217003477
P 3.988612831152557 8.046228483482496 13.778179325132507 -2.0625438410795507 -0.49467664868698036 0.3797115706022945
P 9.08581879908144 0.7216833957839609 12.447406237439559 -0.20979918974745157 0.46593557199854596 -0.2816196141238634
P 0.3911427341553546 0.3403617276681425 4.071540168148567 -0.8748394478940804 -0.15083505250841764 -0.6606765818612944
Ni 3.5610544266205815 4.516469501690878 5.396229376632359 0.12835101247328864 0.06641210887664692 -0.7296410248461499
Ni 1.9452197247144103 1.9405132924217878 13.27503002618027 -0.018454864271077894 1.058774882500893 -1.7959081019590295
Ni 2.6597493434135853 5.106041013103946 9.550744412083258 0.46601373353464903 -0.2003331592385453 0.38883178773600774
Ni 7.2292757144943645 0.42886595393921306 4.551255162150707 1.4768599106750628 1.4823011362952925 0.3803152656245644
Ni 4.865453786105822 7.836601193268712 11.76233702095862 -0.12744546993988373 0.4804234812020759 -0.8178373194774238
Ni 7.227654092278689 8.453824159359426 10.574419530798814 0.13330887069919622 -0.033084698369110765 1.2209973509106455
Ni 7.054476023245989 4.7325087234241145 0.23006066209809017 0.6808322308735629 0.46127416196713455 0.3811418752909178
Ni 6.6399558341147635 7.6034417415918165 1.5110695190723913 0.8570381580466013 -1.4810999168983396 1.035901577447145
Ni 7.374709132170357 0.5302192063525387 2.224497553025055 0.5504089092522778 -0.8866228136822537 -0.11655016318361863
Ni 2.2140641848040827 2.60887327631373 9.378535588512802 3.6949603781084175 0.5454705914103961 0.21924053766600948
Ni 2.1849868209367904 3.2097495448969977 1.4493612019651791 -1.255303066171051 0.7962827332350996 -0.5584099251798834
Ni 0.492108288383783 1.4323677195050444 6.096180238825891 -3.628893825496647 1.322857001961625 1.1343072085112529
Ni 5.768604163558242 4.625509616193224 4.360168419269486 0.14623072096718687 0.625951005454651 2.3590342016676598
Ni 8.56789689453111 7.466116434994204 2.986783945975885 0.7245353281884683 3.7386953571025225 1.4837658937662768
Ni 1.1472417995832696 7.103059452040923 4.470313846385505 0.023401923863708082 1.2493144526877837 0.3093746727499446
Ni 8.63578135555975 7.627905869845548 9.037119806404469 0.7295721192814273 -1.3987014598957652 -0.34578817838197223
Ni 5.64983431576184 3.629050723664095 6.991501163270327 -1.629401404351626 -1.8527569926272738 -2.7146555640899703
Ni 9.306256904066396 1.5649772741421277 0.8588977983334897 -0.7395711394756682 0.7389080519703726 -1.1070771691507064
Ni 3.283784986743719 2.9603365923917178 3.301124228883173 0.6075053971549537 0.6898066664580313 0.6611306386795774
Ni 6.306246485398056 7.9219507119535395 3.98677965247541 -1.312029829439134 -1.5855157587122692 -0.11624831567248367
Ni 1.8180808151382566 0.7918316041470128 7.959482878545321 0.9938244457714367 -1.084740453326719 -0.07220171897523049
Ni 3.1013897661518035 8.079947041967067 6.83522431198549 0.1951361884186381 0.8959757156520634 0.6375111994884246
Ni 0.41424246302762074 8.294961100230623 6.77018700950219 0.8363911712202111 0.6250884003440397 -0.015867048939243643
Ni 2.5929366441941566 7.166666185500625 11.38960342681835 -0.9697324378192397 -0.31911169753205043 1.8473522766719346
Ni 2.866990798643385 0.2533095056568553 10.71173644969531 1.372016237295095 -0.028595038028873334 -0.1232049494959749
P 0.1778565423216039 3.672648130129221 6.635475869752262 0.023200606486179397 0.7945865764795993 -0.7353869261909916
Ni 0.2767335589722566 2.4555460999212007 8.442184826111394 -2.304966216178663 0.40887019444412165 -0.3574743564706489
P 7.418138784613171 3.623337767237605 1.941475082149706 0.6152801560043663 -1.4704511789352417 1.3797205479178882
Ni 4.434204793082997 2.101557153840637 5.013483663260477 0.522286697094765 -0.731986642260191 1.4386669445451095
P 8.97305081741662 0.2837876156104468 8.517125207711805 1.8885356928887798 0.3332669059865099 -0.6649536119700935
P 0.7757467893077308 6.144997591285271 10.808704798358777 0.6398861274785045 -1.3933677063876777 -2.412530373813587
P 7.1974956469342795 6.568576497621305 5.428161354779315 0.28186335470355334 -0.8268523784918403 -0.342886431354145
Ni 7.439368988103457 1.6483603428987508 6.486251211172035 -0.2550884006025543 1.0519910268098398 0.07399917719528547
Ni 5.330719566986215 0.2616310371302864 6.524349081605721 0.4403590090810222 0.1749820820682664 -0.3015397500865581
Ni 7.785697167165138 1.9508301647939328 10.581239663772559 0.06623341720693755 -0.2782383563564563 -0.07139773501669638
Ni 4.324568219834656 1.4452475005513898 8.342092524765773 -0.29676598284699857 0.8149317157948547 1.1032043164588612
Ni 7.37855815501561 8.43586515930421 6.624659463180345 0.2216612312923602 -0.5246971063084706 0.5303489052776093
Ni 5.790030080074557 9.01971439462288 0.07833180875147142 1.116959975482057 1.772466840216954 -0.41106360255101465
Ni 0.3054716869277638 8.128735503455937 11.358857842395851 -0.12959748328588003 0.4326315585297774 -0.5206453048366002
Ni 8.838828960231767 5.624475499389115 12.363942087572152 -1.6245319920744667 -1.1699725231233464 -0.375607832846566
Ni 1.6983603612154248 2.9070840099757858 4.86380886472038 0.24217606341626033 0.40303096205452527 1.2838621087556663
Ni 0.36396099074018007 4.329777914194213 0.7328949562750997 -1.5156529722828607 -0.21984757512238912 -0.2003421580996098
Ni 2.1126661979848076 4.614810637436925 11.933209404151333 -0.654463253961731 0.808682135340717 0.5934879998299392
Ni 0.5121679415850521 2.5977735518374656 2.789259176505072 -1.0924056831814606 -0.5427562778030265 1.7117926622653485
Ni 0.6775314690784172 3.519209117721817 10.665113879027837 -1.3311832624391333 0.3177004190068206 0.19515572880266388
Ni 1.762675389435996 9.053498190782795 12.948577902862107 1.0843463032120937 -1.1196326372182137 0.7670202368255564
Ni 0.34254532585856123 8.737785120792926 1.374066672984333 0.7221873967815821 -1.175902001233904 -0.06551685075588717
Ni 4.419414480115884 8.76674132897744 2.387989691202858 3.1952474525491104 0.9981035327627651 0.06411122865761215
Ni 4.1595821388914915 1.158900704133905 12.69711928325142 0.20286878117620544 0.19687836792072547 0.3831391082266047
Ni 3.2750524579156246 5.556208931976322 1.0848279836155594 -0.3456480532596821 1.5672069331007525 0.9422020936094546
Ni 5.5075602655060445 2.0030016657327474 2.6953868215200396 1.0526757115816903 -1.3936770100979805 1.0382744485546958
Ni 7.499881591818307 4.201930709857188 5.73694991151489 1.6170199999681374 1.1949201942076195 0.13436250877469116
Ni 8.266992776844166 2.981529517210379 12.489827501814924 1.3386703148447976 0.38885441344382704 0.8469362937259091
Ni 3.5727506098428408 6.920160969382074 4.763989629644412 0.00398443856904475 0.05132487552622128 1.0241554926548104
Ni 1.7517620583178555 7.937803467061958 9.050295952890231 -2.382598105030529 -0.09510870548039105 -0.33186154099855103
Ni 0.5428240571956517 6.040458876381611 6.324136519910764 -0.08535445430710462 -1.7330703406972023 0.6759628185964036
Ni 7.549928208474511 3.6853974358248798 7.971431624767839 1.5951627948837301 -0.9621895924749753 2.0027777767645123
P 8.883749759539572 6.612397576116179 0.8227244393224296 -2.2485562128200502 0.12706546089264567 1.1302034707555244
Ni 7.659070839323825 5.937523144357815 7.5337567207237015 0.5150919791185387 0.5262981322470033 -1.5906983313544734
P 2.8221725156825492 5.276833247152663 3.4376769350113627 0.18672713841933647 -0.4349751190612896 -0.16538621084971517
Ni 1.0783228554170434 6.021922056916212 2.3877576314719944 -0.016632466350358453 -0.7353763846680302 -0.4827163910013106
P 4.13878064012489 9.020301533700971 4.887761343206062 0.5203180034041683 0.0887241421102859 -1.2085845790685896
P 4.7021825240573945 4.660579526524192 8.36957808935469 -2.2618755556367756 2.008709825978231 1.6071217670178193
P 6.491894270089229 5.494111984717422 11.696754517902807 1.9587342653910524 -0.5022315782161028 -1.4507405878801918
Ni 5.7173832687458574 3.2727504999427977 9.741994249152837 0.262144021897755 -0.23188213768942004 -0.5553009472372565
