# total energy = -381169.3485454092 ev
CRYSTAL
PRIMVEC
9.18269871908156 0.00000000000000 0.00000000000000
0.00000000000000 9.18269871908156 0.00000000000000
0.00000000000000 0.00000000000000 13.43980777678290
PRIMCOORD
 96 1
Ni 7.851216701702986 3.0773152221943674 11.94383630620669 1.1162056138145358 0.8520363339566358 -0.08394266156124253
Ni 7.24027338163938 2.0517546835365224 8.5872843946025 -0.07979444372082387 -2.202730155624871 0.8430665263578576
Ni 0.5739774475624327 1.8002956581559268 2.5234579860879465 -1.4959166701961981 -1.5984131835002278 0.10972465562135296
Ni 1.071152638461185 7.460997913960201 6.206207827304223 0.2848941711100771 0.3854302182536265 1.0602018447554065
Ni 6.657557677848779 8.328276272495152 1.8984669733195774 1.0554059660286597 -0.30721751719762574 0.9076492953352496
Ni 5.612346163646292 3.279114212179905 1.528697137651729 -0.09363957713403227 1.1248404066713984 -0.6012786995189515
Ni 5.701611179192771 5.76688180263731 2.0805222425020613 1.429720791095415 0.9658156192633367 1.252058076871192
Ni 1.7692122225397526 1.7610763513563168 5.165697854914286 -1.5604166496517966 -1.3668742880828395 0.47717360680621046
Ni 4.297585707323515 2.792293432507386 3.3623039541654793 -0.28292702008137727 -0.8919233999595607 0.2649143855540405
Ni 2.835093991859524 0.11441275462430865 7.342032377244756 -1.1722160677418842 0.19078125388405207 -1.0948574871560628
Ni 4.797372457775957 6.577300889876736 8.772512286238571 1.6937293770057347 -0.2812863991541607 0.6355018823678797
Ni 5.329069086741311 4.416134349511051 10.091024793312535 0.8044930369600338 1.0383716362541924 -0.2482060716604241
Ni 2.1068600593511935 3.063265692949834 1.5383068320010131 0.8173673218195406 2.3718809757233412 -0.06506639348202987
Ni 5.675275198883409 0.3304201345445308 9.869254351592398 -0.42766675832533446 1.8437565889008765 -1.417877518603584
Ni 2.2574746859321357 0.20184857655934207 1.542110305865775 -0.07073516173203302 -0.6380020230819141 -0.5932188053289525
Ni 7.1663710212733625 1.8478620382125832 6.034366474055526 -0.05536305015133691 1.1884659539418436 0.8679290939274923
Ni 4.717831920314421 2.354049129765313 10.87338247112819 -0.22788407227362042 -0.32343140795332687 1.082799013329632
Ni 1.2827128373270753 8.281233306273096 12.84812002284788 -0.414999190159995 1.6982419201641075 -0.18302295009487188
Ni 4.9330835641190705 0.31958914124784615 2.9561660396917646 -1.6668106982380198 1.0430561862140555 -1.1295372979264353
Ni 1.4164955769111351 5.064515532796856 11.096402678162171 -0.1309714808152712 -1.0482379875253107 -1.3105326760683171
Ni 6.779283533839327 2.108962897388447 3.3764829594638353 -1.2736419736895548 -1.9478739256377808 0.11389678472117158
Ni 2.7508519125854374 3.7214631813091064 4.925232356600066 0.45169088915407374 0.8748767288899191 1.1472763670774113
Ni 8.289167158081774 6.993846475230029 0.4719613363891832 0.9551535115638001 0.0046997194685144865 -0.7532967165918768
Ni 6.661818450116402 4.362764503779529 3.4604146635167026 -0.5430100456850454 0.5419340390120473 1.0681498959578895
P 7.152679617284082 5.814989961926272 9.64308907020139 -0.14475465064229265 -0.07792396617098837 0.8844042087643801
Ni 8.118984200245864 6.40372033346535 2.83110870055748 0.6146489501782705 -0.26240267487578034 -0.5734359662750705
P 8.90582211683172 8.486053404181153 2.0244655390862576 -0.5208700192528966 0.9910311992970159 -0.17917632265527209
Ni 2.6417155367218537 5.868102692089921 8.776705106534685 -0.3294483035713681 -1.1495255681229042 1.1477098550704041
P 2.594690935897503 5.3696107021757005 1.6116747592938074 0.8253490544734366 -0.4049808866920445 0.07979161550734645
P 2.0404875120443373 7.283275960366276 10.756509671481261 0.1297391510700669 -0.9832132459144939 0.9627457220887613
P 8.807310123540637 6.528816239934817 4.878233467332503 0.9668808273030575 -1.534914391615634 0.5212993934808313
Ni 7.411337878565144 8.088561918947079 9.73617317020068 1.1180835475635391 -1.7621993968526748 0.9614141477615313
Ni 3.791012942418975 1.789276419532763 0.7862502238592877 1.6700178923214077 -0.6990276708356671 -0.5585621344870315
Ni 3.842087113437339 0.3831251528791228 11.840860603003339 -1.1624003672030434 0.5719719801350343 0.15733840084457418
Ni 8.701837644519255 1.1088108864558468 4.45005523907269 -0.08452733042011894 -0.6123843225138098 1.0846736046445253
Ni 8.16219798104637 3.8524543804419653 9.815064490853334 -0.907783764030585 0.9560330859552761 0.5840484516835942
Ni 1.7247036812010237 5.151163479170333 6.699569443369476 -0.14482227065543446 -0.5775314765006827 -0.5805599789143614
Ni 3.7578083033678418 5.872574666431155 11.274923526556275 -0.2516035273777473 -0.87323893617618 -1.252502106387146
Ni 8.591544248600238 2.545416573854256 0.6281388419350528 -0.6275908550509192 0.7847348804965001 0.3159770085578107
Ni 1.4081485036540888 7.203707874808182 1.6847736335102197 0.2917731576180975 -0.5661684860793798 1.1230498904298787
Ni 2.5273909360065305 6.812286153515702 4.283656471433951 0.5837154938242076 -0.06557392924606771 0.7280094027799978
Ni 0.8988879627953816 7.34455210980992 8.857102389799172 -0.1161027912335549 1.8532341893740085 -0.4717753186087746
Ni 7.468252246053784 4.796298082010199 5.592022096275751 0.9328229663873999 0.3501541686601518 1.5261345885404747
Ni 4.045217594756508 4.307952974328142 7.337530099997307 -0.25574068947457246 1.7434799660663005 -0.4821381499003374
Ni 0.14316929435122483 3.5635850399357283 5.092141682295012 0.37142593355473447 -0.32555308228201996 -0.836182911864147
Ni 4.966260655073646 5.9491951056575525 5.712334734912878 -1.2204286228913692 -2.381978469168659 0.9774943411528456
Ni 5.1957271167021775 7.791804640126429 11.210063369750449 0.603645142868599 -1.1714326526086405 0.5926565050675793
Ni 0.6269579468626038 8.924013043258793 10.65334572295143 -0.23421952757334502 0.851974627480765 1.0030647334227822
Ni 4.7152607646356826 2.567996830332889 8.516980733916832 0.17195023722047806 -1.2595374159673727 0.6164163264913385
Ni 2.615801960559714 1.2949350094999343 9.256237578127868 1.3310477653025334 2.355662199871633 1.5267873916331252
Ni 7.468408351934278 8.199452190291517 12.050279396496794 -1.061290964054527 0.5428987169181617 -0.10303078854094515
Ni 6.543416731110508 4.0188265182540315 8.036305934586382 0.2978160213780678 2.5331035421136696 -0.5276618453637493
Ni 8.455126074445472 0.3753354694424313 0.06466456532026561 0.9248157798122073 -0.30964823812630543 1.3129857655945
Ni 1.6220502907274013 1.7281655586684677 13.087469823251505 -0.41712472114343 -1.6004965483918179 1.298361587923422
Ni 6.286622557696531 1.2283053466252045 0.9413864113552682 0.026443024682877042 -0.31077875218632284 0.19447824311966508
Ni 0.9859280104098664 3.4901969107054582 9.083711195544764 1.889079738317708 0.7267973847497676 -0.8750726469508091
P 0.7248014396772153 3.7737402858771656 12.747025854639435 0.32824836972599597 0.08677036081802475 -0.16827895901647794
Ni 3.420215562749516 8.49478615079001 9.600458390778025 0.3241821700764223 -1.8451102747152934 -0.03441807246855363
P 8.2754941194902 3.3200506836649586 2.6642811008823224 1.7186114849593948 1.520294327709614 -0.41102837843770507
Ni 4.216860601709989 7.4692990737229845 1.9269590513195376 -1.9350991424706157 0.2978165355987 -1.027441362494934
P 0.37130334637623863 0.32980213891174837 6.888775280148508 -0.3893403519413101 -0.4707545906537441 -1.9068663728771675
P 8.131142093526755 1.23675342956963 10.418511973843534 -0.592648020427147 0.1690513184061282 0.7469558619755136
P 4.745462661162003 8.971258028855607 0.2320890404208443 0.30754841817448325 0.10265489325876515 0.7094642927879588
Ni 3.1286924222748684 3.501528361089612 12.506440062970247 0.2009347973782862 0.4091085357071728 -0.294301580466906
Ni 1.425421160195898 6.12619162604212 13.13292326430217 0.07435913163786548 -2.4755967061464523 -0.4407241057299249
Ni 6.605014275013993 1.2250638539302239 12.054566798591091 -1.3065898893704853 -0.7536764685287987 -0.4167297996978565
Ni 4.596280535602072 5.29371569615866 0.2630145336167532 -2.1062942466926238 -2.0590080600121508 -1.390720755683134
Ni 3.9521325764873336 5.189657352760585 3.533768816761218 0.06451206364045664 -0.72774560759565 -1.1758359238826588
Ni 7.236637032893737 8.987851165682322 7.7648488276445145 -0.47866098998501433 2.208992077374183 0.11959794887100694
Ni 8.91007370640049 3.0417781776346646 7.333242697903012 -0.06557881434207416 0.23873258495235017 -1.0185394320196135
Ni 0.710126568640817 8.115981457721052 3.9560205311815393 -0.47495500188833684 1.5000047242226424 -1.0198329540200566
Ni 3.403365310354929 7.281604709175096 12.975220512476877 0.930060058930282 1.5452574254128548 0.9782494741513152
Ni 5.979323540593054 7.064782823866645 0.0951566351303301 -0.7014941300982886 1.7199839398268895 -0.4378899787152395
Ni 0.47614405571655904 1.096478521896756 8.799445141973354 -1.3691245175695967 0.6037317890451345 -0.6311304927730614
Ni 1.255265750456545 2.2740035438668813 11.016839183953502 -0.9276067122937831 0.21474907755355918 -0.9626230804679681
Ni 7.886074226547594 8.298460049320642 5.795312356554957 1.585137035216612 0.7508060889595392 -0.384077560880474
Ni 1.3140717539088287 4.676234294511978 3.3635270896526506 -0.2707600457015401 0.9645274965795325 -0.4363131211464228
Ni 7.119456612835243 6.664922202328594 7.73510698433071 -0.8515141429045787 0.11156736525704657 -1.6579529907370736
Ni 6.670147157975743 6.767410304222868 4.645173815642934 0.4976120771662204 0.723808991545405 -1.4402340319219131
Ni 5.419289102968463 8.150471674611554 6.323402939680881 -0.5516875188543854 -0.4205260335154951 1.920327640588396
Ni 6.014236161630777 0.3497791002656589 4.833573411462705 0.744845243390414 0.2918919425841489 -0.9065198097164968
Ni 9.048686545581038 5.509086715048395 8.239382237982321 -0.2535555088977956 -1.4076573835374724 -0.256113756543275
Ni 8.887217968956278 6.725344360778941 11.304087778112248 0.5713042646440484 -1.0995798323323966 -0.953681297893648
Ni 3.328324295331184 9.23155081053244 4.895409705536359 0.5898036089998164 -1.1169016114402959 -0.6492624264870818
Ni 3.0448819298468557 3.734282228907387 9.911643526035938 0.7609249225610959 -0.07657542256289393 -0.10831774797149733
Ni 3.403548964331981 7.139061674885622 7.022259582019857 -0.9533254572161259 -0.6814801488702069 -0.7891283815785055
Ni 7.057078539529283 4.836582581876715 0.44890817091963947 0.8068589660890491 -1.1123011365538071 1.0040808333921223
Ni 4.446198505554583 2.14247974820057 6.007231598945986 -0.5382311362391633 -1.6278001213027773 -0.5885093156684251
P 5.832051416394471 3.63704663075682 6.096915345560145 -0.7120677918490769 0.7047663730916571 -0.4367748912741897
Ni 0.12528598833571544 4.868060873543552 1.1574360316902126 0.060433779806024955 -0.8006939749289178 0.9078778664062881
P 4.756803294245009 7.254047429918335 3.9675255345740075 -1.2931985556652439 1.4470250867018177 0.30076327693184973
Ni 2.4039938288248024 2.5684467825766677 7.170016552717859 -0.9266852289207783 0.8098134207316827 1.3327994578863176
P 4.873946983508092 0.5871849233221796 7.769526494440048 0.7803591200263077 -0.8770333702216058 0.13528862013338636
P 2.479374603706095 1.4515367557327956 3.2110254184574916 2.927895146977538 0.10064069104221376 0.7307818233188124
P 5.74790116410891 3.6758802642046198 12.305380280242344 -1.0471049023621322 -0.15026889559230247 0.30236301731880183
Ni 6.644738630250498 5.646322149401046 11.887106510964987 0.0886773480327505 0.3299504400187673 -2.753551469824219
