# total energy = -340853.0203236363 ev
CRYSTAL
PRIMVEC
9.39844973564538 0.00000000000000 0.00000000000000
0.00000000000000 9.39844973564538 0.00000000000000
0.00000000000000 0.00000000000000 13.75558119797392
PRIMCOORD
 96 1
Ni 1.8048312866520426 0.6884524173220997 5.381279738743701 0.24441523715942418 1.0874642800157852 0.5697322921712382
Ni 1.1931331884316756 8.152328044457633 1.0839739546360194 0.79639560466388 -0.1996325336270949 -0.09247486740196977
Ni 3.4827647055592683 5.53445567182806 11.865371684686576 -0.7465843375687078 -0.24612502076167933 2.2129862861352403
Ni 6.665051576007476 1.8440040249693581 11.231404899765382 -0.15653441688604008 -0.14155696964060135 0.22725929420542795
Ni 5.480066843458985 3.5405933665157083 7.656645349083421 1.3430303915857065 -1.3163166297399458 4.044690828967589
Ni 0.11461785337691732 4.137310335926622 0.5527594803552716 0.22930280699801797 0.1851435959823005 -0.9223315799377728
Ni 4.197197257365666 0.20675931431480865 3.6960700400847317 0.4328346756795191 0.8696663883335732 -0.4986844842947928
Ni 2.9580022669922528 8.420851150615029 12.976038176293565 0.22780591073751735 -0.7033530376838985 1.4428820110677214
Ni 8.65363195259278 6.862137066054047 2.9671892515664315 0.24438232703895973 1.7036345519345886 0.19215268031028196
Ni 1.8219082697428683 1.802960995163284 11.959033814784673 0.003603401080542181 -0.39236139815582105 -2.5330814306264826
Ni 3.6304989362718123 4.383906858951989 6.545290890958958 -0.07960315364562419 -1.9255634350660387 -0.9446407849579344
Ni 0.6379902612344482 7.332153535163682 5.481227551995979 2.427436344391142 1.348087751503956 -0.07354486326668624
Ni 8.86930757613063 5.367078681258705 8.393036438750801 0.25724041394855046 -1.238773443947144 0.15370260386419982
Ni 0.8291312318506688 8.306208861268912 12.118914601879489 0.11375048895129442 0.6941456601530174 0.7280556826369009
Ni 4.870596177815682 8.821507060995827 1.4309929126231224 0.007330729333458342 -0.9787978904556176 0.1679645130998527
Ni 0.4736912629393058 3.447858863402236 5.593610454036077 0.7039693311116585 0.39242156196979516 0.9095632245285109
Ni 7.032032841140928 8.225551366009984 8.444014569726559 -1.1833795405578715 -0.3911154415638619 2.041819464048006
Ni 0.2987457008327778 3.0394962242737895 9.171396305518943 -0.9792223795875457 2.292803869784516 -1.2916291542955949
Ni 8.170899381049527 8.021163280552532 0.8480916642598225 -0.4300815384144142 0.6863233358951212 0.4892804173720734
Ni 6.709666016696607 1.3010555862478308 8.868539722790775 -0.8606929811903693 0.7938797802205618 0.6068461663044001
Ni 2.6133047260791367 3.522604733804734 4.371097711866415 1.243188542295704 -0.3710562089201416 -0.7545244183513908
Ni 7.300678127144323 1.093274660451474 3.268876667152885 1.9300600373848114 -1.5933283127781528 -3.2421916825091324
Ni 2.1629592121753904 3.158255034585114 7.918936343249883 0.8970918315343777 1.958446044726672 -0.854414090160193
Ni 3.815751778155836 1.4767032125463704 1.598673473117538 -2.535217760243195 0.7637533931488266 0.18258637677808554
P 3.9334015714034742 2.603915674836575 13.371704449732746 -0.23842688078647326 1.2692759834113754 0.5436582207920057
P 0.29684251477009627 6.526170684905035 -0.2425110169441438 0.011645811769044459 0.507752508034332 2.013082244014314
P 5.875506614260582 6.15733792518221 8.338578061854005 -1.256107050129585 0.3206890693214993 -0.06515972452678455
P 1.4204252957891519 6.4844697636205035 9.45001522633576 -0.3646377069883075 -0.274564764159611 0.7546329189047971
P 5.102343150327288 0.2609564143101619 6.615623249385973 -1.571620488787416 0.15821694679478557 -0.7563167343651233
P 1.3622112983953292 7.313958136559478 3.452499817860271 1.0766198811021135 1.6529095147758952 0.05515273391274372
P 3.973194607400479 3.5272381695030153 9.181080468081843 -0.6868244439012559 -0.06618405202624085 0.08727712525111421
P 4.322046263077572 5.007400011536135 2.8580384763754982 0.07377806232341487 -0.25981280266141704 -1.1530374379309045
Ni 8.951271455896782 0.5211722307845742 8.524690861884869 -0.09357889909942593 -0.3913144449485454 -0.24799986918688904
Ni 5.635667576563947 4.19354126043538 0.3334861302752263 -1.4754987686614782 -0.3999944892210466 -0.3238582110781003
Ni 1.9177536597044773 1.000333391444772 8.087057691034865 -0.7991569694591011 -0.3342621800202437 0.9622119610724784
Ni 4.391228251262255 0.633448930343151 13.00460852351305 0.028864489640176096 1.3171355260968154 -0.6830966014277075
Ni 2.9653330577522112 6.070627828321473 7.97340881782122 -1.1738014099511331 -1.181238840065785 3.9179956069301687
Ni 7.991614554720084 3.0528232259374057 7.239080687861288 -0.5795258812228922 0.17309694923041158 0.5432075064078321
Ni 1.5827929126725362 2.0420575553342317 0.35630086690317353 1.6834148824536042 2.2642607680395006 2.527163265369835
Ni 1.3094296049236294 5.899369278029216 1.902506554768733 -0.37114542619983826 -0.9223166675394374 -1.0507391566806097
Ni 8.098644099815477 7.496353849737056 12.291285928615308 -2.1707559167111197 -0.4930792222928734 0.9144470349833735
Ni 5.289532072847915 6.630775429979825 10.72347978382204 -2.982990545289785 1.8328998486920303 1.2362959289409288
Ni 6.065938001925037 8.663876262757338 13.091736851385093 0.15752789114756094 -2.607790232294283 -0.6984993091360229
Ni 5.715601391196569 1.9845578401170203 4.271273018305107 -2.0317772493206556 1.143595061571082 2.453963701257709
Ni 3.2283016801414846 8.327327177727406 5.2273133960402225 -0.2850641210290381 -1.4797027794404969 1.9481444056903483
Ni 7.093235545536887 5.934293917085633 10.047324298077283 3.1893907366580168 0.24897971660165508 -1.8473347931704378
Ni 7.570470024010173 0.816565504612125 13.53168110101442 1.216460896492873 0.22990855890281695 -0.7772871659692033
Ni 5.110482207760779 4.248522191135066 11.098677173676458 -1.722458112398995 -0.7055081363536881 -1.5606290227729187
Ni 6.6538110301755395 8.794890651467362 4.632810701376805 -0.9681167565926876 -0.8240043675200842 1.170344047530152
Ni 7.155913806534531 0.5761738380735845 6.72627307730282 1.2792235815423905 0.1593878271744352 -0.8065334644288303
Ni 7.019354332506077 4.567035651205563 11.801339107088278 2.3903132142865995 -0.46900289806996 2.8117388767982283
Ni 6.558473156497313 6.392665707026564 3.9347286325000206 0.7181584781278469 -1.2240695620780662 0.30058587081372107
Ni 5.715996126083643 6.493050548189531 1.6692812061205364 -0.23004431314973284 -0.29397607880668725 0.5060452955352381
Ni 8.309780272151967 1.8758647694261 4.9929047825757715 0.30681848198699424 0.24298621802238152 1.475280482003085
Ni 8.993235533772696 7.326946794034173 10.292296768995831 0.9427463961486989 0.6799734824176934 -2.5345083928809964
Ni 9.147172741282128 9.277078112928466 4.707957885581161 -1.3046016552958628 -1.6526734875056892 0.9476613169518132
P 5.710131493475677 4.075487333850974 5.8264655037664 0.7599985540920846 0.25075712021705204 -3.8456229095947125
P 8.361603323755057 4.835793718605265 2.8244474773304122 0.20266309292330256 -1.3828845474681668 -0.9728948947076211
P 0.3368197603810689 1.6628019149026965 6.805890164180814 -0.661737419025641 -0.16546951459214082 -0.2399489738579545
P 7.703918611190491 3.896982578845989 9.78867802270148 0.07800135637614308 -1.4992657891740888 -0.20463744304085404
P 0.21568784152245016 1.4702934698562529 10.29958808626708 0.36714761789435485 -2.4737429407671656 3.162390296809773
P 2.3211539173954137 1.4699175318685629 3.379939087011222 1.1830190718946592 1.0934315533428136 -0.03158703077766173
P 3.4641933689673734 6.290222605380992 6.126791083992445 0.7480547514666472 3.9984914475933904 -4.642704227471707
P 6.7469214712767025 8.3461428740113 2.5345485371929537 -0.13375315732546642 -0.08903447426185311 -0.14661407244853458
Ni 8.77107497994719 2.0353188669048854 1.5698004958179639 -1.146873732322354 0.12041350279376684 -0.8320308373689863
Ni 6.493934002460603 3.370669396079752 2.6461194131796417 -0.1418287352447493 2.009122230925301 -1.223557141218022
Ni 9.46470876258463 7.509492882406827 7.836485623789676 -0.6563381023869406 0.43234668029950707 0.27767579898476696
Ni 2.10321326748173 8.308323512449668 7.722645022202307 0.6055922392926409 -0.8179723023933911 -1.580886487470374
Ni 9.470535801393828 5.482444651231126 11.72135078144744 -0.6075251946492957 -0.3203903071341579 -1.1252872644008298
Ni 3.873091719728279 8.050909373828517 9.038173281131241 1.5449360375176941 -1.2700943655476127 -1.6813888531625107
Ni 3.7921710678779696 2.2122164870124945 5.9104434713015985 0.5997576348887349 -1.8965210250871014 0.32818614902949284
Ni 5.2077937558743805 -0.2665691684663761 10.396261479646578 0.2867273676640739 1.767162654395221 1.1958709881566632
Ni 7.508242888597757 3.8728943522847414 4.581227310240867 -0.22603724887286875 1.251312199844103 1.226388954239862
Ni 7.557396780488247 5.60341209722013 0.40945943820753267 0.7032440229098599 0.25604793630234607 -0.1460620565998065
Ni 0.9924104983542017 5.180453665719613 4.187543169841782 -0.7547061953448938 2.1688607565709357 0.5492128320616477
Ni 0.5702537546124335 0.44289442298772713 2.8171289045550543 0.2880923663324006 -0.2957478259951294 -1.5930820010953015
Ni 2.783999369389858 7.457312689715431 10.950185427918719 -0.5889638867073406 -0.03636928265765349 -0.8958245347861798
Ni 4.0429123072176205 2.2557595044367087 10.908726046791278 -0.3381250054097596 -2.005091255389037 0.636484043775491
Ni 5.979246701963684 1.5868060506911286 1.3936462930810118 0.9988362971637316 -0.25658298287020975 -1.122537212459518
Ni 2.173043748695179 4.181022525445297 10.307496881683113 -0.2853412859498247 0.5110391492054037 -0.4461758728731155
Ni 0.8008259209125067 3.404635393267559 2.8252172103602082 -0.2934844838822494 -0.9720184056399388 -0.3524493924522317
Ni 8.807381191108368 2.882175574875146 11.965787540733528 0.8878883106582386 0.1353696098829669 -0.39683537476677466
Ni 3.3937425900742357 6.538680021445425 0.7869914029655085 0.41413941326286097 -0.0682519902988631 -0.23417710437118378
Ni 4.1424982801567465 1.3403880982099148 8.326596918186318 1.1517835109191452 -0.09411625966013468 0.554188173789052
Ni 4.44361520984688 7.011685197557197 3.7658102961811353 -1.1971567968476222 0.1558034522572865 -0.45078406106908814
Ni 5.5909027606797395 6.944749438848963 6.203244652704026 0.29667213758161165 0.2838647014042982 0.3267422174941147
Ni 2.773651676278686 4.021587224865896 1.4255042180028459 0.9896587444295215 -0.050621678811609595 -0.1608757245738713
Ni 8.260306832971942 6.082648445477866 5.61108029232404 -1.3744749832482328 -2.923536612898526 -0.6500563831432868
P 7.367679675000403 2.9533594328442794 13.688811901729283 0.030784332370708274 0.8295623212238359 0.00640898885013735
P 0.7653439537893394 5.464568799916457 6.539980766882834 0.42991390248829836 -1.4004554664723945 0.5795068550594987
P 1.5190996191081292 4.15985721673834 12.414632122221422 1.17426652251301 -1.5946794274894085 0.9987383381332865
P 2.7569600296252426 0.09479276359607623 10.136969530776913 0.18064647944289536 1.8204762782166968 0.3975303439512702
P 7.23141155291241 8.68889493583812 10.68303825479627 0.014176034390065907 0.7997984596978419 0.21607242435067306
P 5.370791068887145 6.455127803681286 13.282828950062914 -0.351156384672421 -0.23632011885611562 -0.9629107869117159
P 7.7487304193231585 7.729858332341112 6.599886485221262 -0.5038572867449839 2.2458336716825644 -1.6915159142941836
P 0.3456787390609877 0.5205303166705932 13.885295890995547 -1.573992074343386 -2.179890017801904 -0.2508432521729551
