# total energy = -340896.6332542948 ev
CRYSTAL
PRIMVEC
9.02380193068366 0.00000000000000 0.00000000000000
0.00000000000000 9.02380193068366 0.00000000000000
0.00000000000000 0.00000000000000 13.20724626543926
PRIMCOORD
 96 1
Ni 6.324701435113528 2.1835163818036265 11.39741715300229 0.20947728763165857 -0.5994017942112129 0.42825476961832054
Ni 4.631123345737759 0.40979159238998086 5.994332833860758 -0.4023496197167844 -0.0183389075185039 -0.000477196746734662
Ni 2.543241214922279 1.5881169182775923 4.630883312611105 0.6053068468417382 -0.7478171815345444 1.4338952341880788
Ni 3.360599130189722 4.35588836844115 4.831818111026207 -0.3006275226849338 0.2927380926345281 0.09616440043841502
Ni 5.177685994171526 4.6165950249139325 2.4909527956591337 -1.6498265049751972 -0.44260461058208933 1.0646624516299212
Ni 7.214159526394869 5.984070966506191 2.702823539419824 0.22219344964674637 1.0852459322082277 -0.5788789916675128
Ni 4.813404141167139 4.609574507149374 11.286265572518086 0.8948300320833943 -0.5402653930603728 -0.5066865286636629
Ni 5.592329684764595 7.870054556879247 12.320062079994058 0.29324768528109496 -0.5142933944766432 0.38030369566033856
Ni 1.6796994822782245 6.516809150652937 0.42947882067652915 1.225285179652722 -0.03422369706956042 -0.7145890156090338
Ni 2.896847910451768 1.5380167709397747 0.3836099339811292 -0.941950896830597 0.4013962546645797 0.5320535466735418
Ni 0.5158808200902305 0.08997722966860823 4.776360532587082 0.25227149997904946 -0.5319617582906838 0.06876672515175253
Ni 8.572052190524452 2.4145076591007184 1.4658723782972825 0.5957737105403224 0.24625074770626623 -0.6000581968482891
Ni 6.888571735311332 0.7390619969692963 4.878743684906993 -0.7712851827494975 -0.5855525470329463 -0.21954444205967352
Ni 0.8972447298148066 7.422212299633471 2.5206158367846516 -1.014965598625426 -0.011389472783864256 0.3237934192784359
Ni 7.675835271729418 3.8449336417283897 3.809313086684927 -0.18306280219387183 -0.3471439210789183 0.957506842287325
Ni 7.672550607890988 3.8052650092181146 12.604520285063359 0.2585200519919225 0.24951193495604126 0.23632423262117364
Ni 8.041831647067053 8.647437030376782 7.059801080732673 -1.0452578218510644 0.5341423108817704 -0.4481360819232798
Ni 6.946306018932973 0.5544241845217903 0.39321938046888893 -0.4457606397125678 0.3433399739517958 -0.2804803583130976
Ni 1.854923664736031 6.648294966009447 9.25985087210985 -0.257187449223428 -0.5724262940636334 -1.0661526630222027
Ni 9.148600932186527 4.989476560989814 1.4369483865354113 -0.3753059853354311 -0.9644799311710485 0.23763986610880364
Ni 6.4158869518369865 2.005233130551238 7.077010373057592 0.3548369188478018 -0.12460928604266926 -0.27449945813931437
Ni 3.4881595917832717 4.2152524181061555 0.3304759844936405 -0.6676311588022567 -0.27700756927314873 -0.7412161312782589
Ni 5.912800980253653 5.706886848030733 4.821094225021837 -0.0005913537270957558 -0.3274870660799392 0.07296122284907434
Ni 5.28674766216952 3.037844812856919 9.333111509029303 0.2652524856197496 -0.8335243911953774 -0.807652408524622
P 0.13544455718595833 5.469912790170784 12.423197817380247 0.15979971790087316 -0.2730655539062652 0.06483216598403674
P 3.9825556422775708 6.1178939465169675 12.545985590226143 -0.7317794113453914 0.6298937921524829 -0.009154155695442298
P 2.3327881104171313 8.494564804863458 1.320689334258483 1.4328523947458613 0.10725845346904753 -0.49582438913817833
P 6.205866989816028 7.809315347273547 5.883603567298638 0.9162509209613318 -0.3141597528434138 -0.5396632406999996
P 4.874314803006164 0.9711415447579121 12.560949760674687 -0.06022474911901241 0.3305893591543468 0.9324825523288457
P 4.052851057940684 6.131077720879458 8.03709776066694 -0.23105038581674403 1.4087508737119674 1.7145535128399374
P 4.714584488159854 0.944990567275024 3.6991378815504983 0.1049316051080838 0.3896866795371353 0.43619716439384876
P 0.28198387862837315 5.701517685987144 3.63044780021941 -1.0562724277940132 -1.3921672583216733 -0.32020338793433245
Ni 1.3084422305180496 0.9481128026818836 2.529979835864704 0.051562445458324106 1.5178857182681214 0.11998541411741273
Ni 1.9100500696507876 6.612461449244591 4.641488084432322 0.9347962880636869 -0.8503715446597033 0.2487552592956748
Ni 6.0147338448660435 5.671342092922003 9.209240879972937 -0.7105205019666151 0.29975617582357406 -0.500332561421177
Ni 8.564652673086231 2.2656780967731565 10.178084964804297 0.5929586096890304 0.840731707577094 -0.21424257023078586
Ni 2.338202391469489 5.378916773284158 6.944251299273604 -0.10846610062390352 -0.8442536046874235 0.29009319881251333
Ni 0.5773518600181748 -0.19721969923301014 9.049948219511691 0.10552373016612794 1.1541761795210381 0.05596391696012942
Ni 1.5009560171363856 1.1451294663754306 11.399952841295145 -0.3580888501261962 -0.7378775538233293 0.08927255841458819
Ni 4.115151385249814 6.855075383200744 1.4670346439631883 -0.04885224561601264 0.24343616107560656 -0.0617139320700292
Ni 5.713555437526885 7.886495923674907 8.071978363966581 -1.0265461043741742 0.41618112628323806 -0.05541884308993682
Ni 5.067848279222694 2.7891307889151093 4.867292480481256 0.8968213514818104 -0.48009412288711506 -0.008690842905778581
Ni 0.9336025294615646 7.3857651643493485 6.749259576693639 -0.4661109212341456 -0.2859521800609462 0.8684386865740591
Ni 4.9914617973756785 4.52475979446419 7.066048258686918 0.11756009250537174 -0.13288541000853243 0.007782986379528531
Ni 8.10499825934456 7.114753326273579 9.315176703043367 0.49834458445687074 -0.4104840758984608 -0.37765057430820764
Ni 4.450548048839872 0.27014013882634047 10.532289938390072 0.6164255824627191 0.14389564507610703 -1.4378251653701044
Ni 8.082528992977275 7.164339116911423 4.772041741067651 -0.18717528170034864 0.35356473700359753 0.15703603911280695
Ni 7.369035035897563 6.238397795138944 7.03057388923187 -0.2822037687621075 -0.7094354964325524 -0.129499524255435
Ni 2.566026314350952 5.027710409021215 2.294587650452221 -0.7891718332219312 0.7149042328566074 1.582252000359333
Ni 2.357982564914103 5.302530291437143 11.286872874376126 -0.5631716082345849 -0.8679028686752472 0.8866819490549633
Ni 1.079210594562974 3.377879710548497 3.8988842452746093 -0.28947047762684985 0.5144618017337076 -0.6796739488994037
Ni 3.6454354325525125 2.7114809748225444 2.855763443446301 -0.2902253535150034 0.12881432526295233 -1.4173483855729911
Ni 1.1259719352518376 3.5075336941489588 8.324342515717856 -0.2071157293780175 -0.6119606047128299 -0.4785213790833565
Ni 3.664953915746262 2.5983856674405432 6.92731903766253 -0.6912284865062225 -0.2696752972777936 0.1164771438538381
Ni 4.109439318739577 6.94848075515567 5.977889662304748 0.15389826481477367 -0.11330723076628872 -0.544608757630733
Ni 0.7874232577091316 7.241474574304013 11.421679448778082 0.4203074897467858 0.5414578707065772 -0.2958434710327292
P 0.27042619334194007 5.5877816886806135 8.086004059032714 -0.054963243609756955 0.3280426814730931 -0.8181024002133523
P 8.52161816252174 1.5227484983721258 7.923938384292487 -0.16794702959835592 1.0374851198841808 0.9753343573870492
P 1.9506301061382092 3.224150223868551 10.545590119795188 -1.2186044251984367 0.4856106818299702 -1.3285661365312602
P 3.965302133324058 6.0896674946306755 3.651618541514305 0.14235915382692257 1.0270346139748183 0.46808912800643904
P 6.909543050587464 4.0524810820687724 10.325953492245066 0.7432087362282555 -0.03163485329646165 0.629843912751154
P 6.334681759853374 7.819999528550198 10.21699379320689 -0.7817521437190923 -0.739102684479682 0.9325121200152006
P 2.499277252777134 8.445303871088756 5.711487182164886 -0.21908498592475173 1.5354759205460586 0.12531968184613254
P 6.997010760988304 3.9853439970195352 1.7526677480208508 0.3854736698970523 -0.5271147146110277 -1.8983827608861887
Ni 5.327228436837649 2.797342448511185 0.5914163574318497 0.21624854491722112 -0.3990964028868094 -0.45639420816701404
Ni 1.4694809966186786 0.9819159640521041 7.046263573341427 -0.05187020650673003 1.0852811563215372 -0.6086006871016615
Ni 6.896025395560077 0.6952388061315122 9.411932612589528 -0.7289157166443512 0.618752687933999 -1.3408027878067683
Ni 2.7567443644202556 1.7067528399365057 9.160413991062597 0.3818787534569423 -0.7701477267109446 -0.029611137998213514
Ni 6.4533808481245645 1.8235388822358638 2.490992500386851 -0.3558244795720517 0.2845105625184132 1.1299674434853184
Ni 3.9874826380352166 6.810849730804735 10.335369829375292 1.1496870334014329 0.828289110938367 -0.2601308481224681
Ni 7.982545269543735 7.059076469451833 0.22861440791510687 0.14797315757959031 0.15701135652245862 0.5394660370875289
Ni 7.6357876395454785 3.982519547070555 8.12353946480836 0.19372208167993088 -0.5399152088098057 -0.1114076997507307
Ni 3.2111288779376306 8.301554709148656 12.476661135631755 -0.731542869854553 -0.35881184433514984 -0.09524985904394563
Ni 0.1429018269554058 4.964516725338445 10.226674527728507 -0.5269943869830795 -1.048679960158736 0.30728976519645784
Ni 8.591958697193622 2.307440251290343 5.735788280288218 0.40603066811279753 0.8442605466659588 0.4745027448422667
Ni 3.7107858048544706 2.4945487806580746 11.458593114612881 0.6100222500395365 0.35060154061021553 0.08343718267973371
Ni 1.189824356462644 3.1807818326391653 12.61402956735165 -0.6377955634980629 1.0362018822963832 0.7584834029991389
Ni 3.1430533175059847 8.404272644513638 7.931955129770679 0.5942318199744993 -0.12001652446566426 0.48939920233812484
Ni 5.584912119722865 7.849841240950445 3.4838597502475244 -0.6393726781771957 -0.015271324336773702 0.6248279475938013
Ni 3.006820982426909 8.408116784060812 3.443472823117637 1.180187515983135 -0.15312564831480724 0.24374752166843833
Ni 3.4009986906420653 4.288597878762096 9.134553579996185 -0.8062580992802567 0.8179723023933911 -0.0447078844303359
Ni 7.054690901799423 6.040487775071758 11.44563674005459 0.5699770611921926 -0.5393266832961873 -0.4533297103090773
Ni 0.45941167347448936 -0.1256826084485572 0.4259243451656563 -0.4733724878925654 0.7696872421347584 -0.949467002701984
Ni 4.583116720406853 0.3585030103611707 1.5724019675231238 0.29625716153138004 -0.585453816671553 -0.2337832113668748
Ni 5.790492371280891 5.263321872816318 0.25870337248341 0.7160406604538959 1.0503514343238878 0.32504297541482086
Ni 8.184191143537047 8.811498770064977 11.292855654938982 -0.9397096662049043 0.5957500563912385 0.46462688048945144
Ni 0.18008259732212226 5.068669445182302 5.7797026115237164 -0.3575748866042551 -1.0651730727177526 -0.030174723811167387
Ni 7.768780429794894 8.612090798906639 2.670637443323908 0.48077700788675265 0.07281929795457136 -0.365776448578441
P 8.4398895900364 1.5443514797710332 3.509587511428153 -0.2160755096744666 0.2870798659074862 0.8421098188715432
P 1.6667773981665974 3.1860066138546905 1.6791959541403554 1.2213840448261029 -1.0188150542785035 -0.7948475434504697
P 4.802593626665931 1.1641335928692063 8.26195104801101 -0.47604797784219943 -0.8985694445211686 0.27568653646888003
P 8.434258737741947 1.6782195787905803 12.444910889160553 0.6592709597630194 -0.44562565679660027 -0.34736606439205336
P 6.204026134258226 7.667208517252662 1.3138935091575987 0.5608067075468343 -0.5262649650162227 0.7573498036153279
P 1.7473419002256816 3.261265120482464 6.0355923626202514 0.010449220357782004 -0.28256860830069397 0.1937573057932405
P 6.646760919711278 3.9286925696083648 5.94514950478114 2.1664146090232883 0.003074268049949544 -0.5569924760070665
P 2.3676651041960697 8.577123567110162 10.181717045010254 0.5257535725974429 -0.27252716490429196 0.484354697935682
