# total energy = -340891.78717730945 ev
CRYSTAL
PRIMVEC
9.08739239663325 0.00000000000000 0.00000000000000

0.00000000000000 9.08739239663325 0.00000000000000

0.00000000000000 0.00000000000000 13.30031734017236

PRIMCOORD
 96 1
Ni 6.37041659303775 2.0875467061940567 11.483680588341322 0.22505071658988338 0.9107587874985088 0.14507603853745338
Ni 4.4560483247610625 0.27451013364749466 6.154242975222263 0.6132806090758341 0.1481657332063706 -0.31102146432474825
Ni 2.4682266633119934 1.3366827302377957 5.060171813654391 1.2490768827556809 0.35264711028533463 -2.2915250030720924
Ni 3.3911967648765375 4.510545417282995 4.845558501122548 0.48694199904688396 -0.653223725127675 -0.1751155223223371
Ni 5.283455407322665 4.458710930748878 2.795114709562108 -0.3953513340220804 0.21602408761124084 0.08398585609435213
Ni 7.338487423331051 6.1510287645127395 2.5362903240223518 -1.0777833052825954 -0.04943022960666971 0.41121941140258855
Ni 5.133913277167435 4.605226959218298 11.521545935201484 0.20308475384175348 -0.6114211872695922 -0.9801837150595506
Ni 5.6735135534488785 7.6973122016070255 12.422602698612387 0.027445497805462408 0.07870686708359993 0.33257065125043367
Ni 1.887742208398538 6.454611284085892 0.4984516545291403 0.018195954182736403 0.5487652030012679 -0.9639333146389593
Ni 2.5318838474234044 1.8848433302070262 0.3027110386372083 0.9468017971649951 -2.2649770773802347 1.0515372271018728
Ni 0.39797053873232363 9.067591021732028 4.567222575253654 1.2227454439500038 0.7541600930334367 0.23154943694034957
Ni 8.787390362932419 2.341702898232309 1.1439854820773285 -1.0566526939515675 0.7172650197793001 2.4563239739597695
Ni 6.667955996631732 0.7633264259620268 4.784430338329939 0.09236405285571835 -0.7462292682221342 -0.30177500602581575
Ni 0.9047953166647837 7.438421478102385 2.439065220940327 0.11869369188918269 -0.4111970428050854 0.48472210857742964
Ni 7.786777580276096 3.9463001326774765 3.948398411594154 -0.9803336103738536 -0.6919885046006985 -1.0869361754264573
Ni 7.684962435267638 3.8712200962565655 12.627507949790022 -0.30658374026836877 0.06848210403179819 -0.27228445276586655
Ni 8.02340419227853 8.760010049480929 6.61273191271381 -0.25219102445010116 1.2397224381239746 0.7912791093729211
Ni 6.60508032827101 0.8444259511417388 0.2547214278486353 0.9641001792341266 -0.5899753586909904 0.8256501306536231
Ni 1.777275865777793 6.51620563011118 9.164384473672683 1.5778122194204245 -0.10877129056914815 0.08750183966741058
Ni 8.964530903957936 5.018985024853799 1.3675916781775734 1.4249984459190812 -0.9229663853082944 -0.5977891983084543
Ni 6.491369786545658 1.8854430981087182 7.053916637502293 0.6009830226554037 -0.39432623519167576 0.7149296867779042
Ni 3.064432307163741 4.179455360764056 0.18754742285911996 0.9151610303312626 1.1078441292237178 0.5048057667011822
Ni 6.03632769701035 5.54892540296102 4.9744649805025904 0.10908727914767018 0.5404502553776692 -0.6664247971989813
Ni 5.395275771418443 2.9935779082320244 9.171247272450833 -0.39132035848581637 1.024958705282396 0.3929686927225168
P 0.2617341686022079 5.653303192640345 12.364174400116637 -0.5637634761823129 0.2093273923173556 1.6161157429863133
P 4.027041614594663 6.051585428933699 12.5355226371946 -0.5658391277644189 1.1828203256202918 1.3627409826407562
P 2.6230031315183546 8.655041579292362 1.3101648103297998 -2.5067381647462637 -1.0469372664360161 0.6590848118941423
P 6.2527530355967 7.847908469286442 5.772736974130632 0.10509255616598032 -0.6815346562572262 0.23189242210206515
P 4.573184813440021 1.1443480690360788 12.853932146288976 0.5353381309620845 0.6329904287999357 0.043667873201595764
P 4.183408376479754 6.38265731066774 8.154464383669193 -1.4828750065208913 -0.2560255677048429 0.6094787188312407
P 4.5627524869075575 1.15488035688549 3.8161268707899207 0.6780117307056323 -1.5038991741810424 1.104203447147337
P 0.2211416952678375 5.545399494690466 3.554549914077096 0.19364366303351166 0.6726756632046996 -0.6439680108573618
Ni 1.308393677541318 1.1343610247336602 2.4859752495058545 1.0722166098280952 -0.3447669362063095 0.4604141279596845
Ni 1.77370452054499 6.597583229499858 4.754184770039001 0.14063702892949326 -0.37643881338829366 -0.09177424179051936
Ni 5.91263919837503 5.698885553168945 9.248096624181736 1.140721853788345 0.22279380223490663 0.48988154129118205
Ni 8.735492264651151 2.0523239730583205 10.280080903053534 0.3066066230865042 1.1142474616469003 -0.3272189000202171
Ni 2.585599424194647 5.102225539694703 7.033659930992265 -0.9698959599802973 0.9848646654749879 0.42057308470334664
Ni 0.9535400897659416 -0.11416854630482638 9.14097535072179 -1.4568803822293426 0.4074118647310403 -0.18522227173903585
Ni 1.7392542157674937 1.3114743035818277 11.48539628803586 -1.4881336838166692 -0.6574529327176741 0.21033860719068936
Ni 4.23765102201309 6.7895998319658295 1.36253727049695 0.5050207109254657 1.2053172211712273 0.36625827331086597
Ni 5.818948182216763 7.984173919072397 8.107926938194112 -0.5574367626333367 0.38419865983937057 -1.1477342805504362
Ni 5.320922726393523 2.743938150241362 5.158979940501185 -1.251889926724444 1.012361842453992 -0.6088819657875062
Ni 0.6731794928592141 7.381943334026379 7.057985971841349 0.633864603874773 -0.03297054138874967 -0.25747104190211784
Ni 5.041994302536897 4.646011176533361 7.165107245301295 -0.08748049951117191 -0.31263123201402937 -0.23740023929417178
Ni 8.39091651773659 6.882763779362002 9.343473351639455 -0.8771195021775088 1.2763652861579888 -1.1096744975642372
Ni 4.690230428194479 0.45851256471191626 10.86776893396201 0.18121854989628144 -1.2695603474210135 -1.1301227381162602
Ni 8.199372459678013 7.273903325189751 4.6293085492104815 -0.9483987093384698 -1.3722005853917594 0.40091931502816114
Ni 7.228548149472399 6.082609786757591 7.047066561073574 0.8039001405710414 0.17937301204711043 0.1587244825588234
Ni 2.7902202399886025 5.244824902018224 2.5247729628313733 -1.0976229657163417 -0.42720344553567074 0.31375428987487897
Ni 2.21636049417111 5.3734842043236295 11.530949568908621 0.4188612442185625 -0.44971833880873524 -1.0978186266669159
Ni 1.19815451973182 3.1767979148065106 3.911290953264313 -0.4326313014194614 0.8007425687786661 0.16890682240846394
Ni 3.444766943368582 2.6667861883418778 2.9668082675531666 -0.09692004765751695 1.0732170260681517 -0.7665127010615187
Ni 1.2963892321150263 3.5005726204032968 8.284861195411017 -0.8656408121139478 -0.7871877129123669 0.09546403193728074
Ni 3.649596769188884 2.703126670748949 7.248725795668113 0.35118312414529845 -0.4883303947539783 0.015397051281360579
Ni 4.032230515683545 6.772978991174998 5.93996135251484 0.2536393268608535 1.1542350577834313 0.3296215959244388
Ni 0.8138177958920518 7.444891701526699 11.160229393915753 -0.2261624615968234 -0.00522036785867488 1.4151112687123564
P 0.3285755750280576 5.472100587189732 7.948642214593366 -0.7287192843628288 -0.3828051219259536 -0.10359437435389901
P 8.706994201928326 1.413425759477035 8.044576907947507 -0.8898498052599836 0.29361226770936527 0.22272721066302933
P 1.929880447188633 3.372940193444728 10.394091328729733 -0.6672136116488638 -0.4492136312581747 0.8605644260323051
P 4.241004269827095 6.314438255546487 3.8334438058424127 -0.5856271090246237 -0.995130309067054 -1.505210179682982
P 6.934007585386878 4.077567516615997 10.471964829589737 0.5923037497138509 -0.425512430986493 0.06830726901683075
P 6.379940180325225 7.9293951173845185 10.145083144514336 0.6590904683210972 -0.39920773165369317 1.6845312554462342
P 2.3316068052204924 8.332075651623615 5.935160483083568 -0.20796496475219023 1.1217435129136295 -0.6008812069702167
P 7.019438161808203 3.940884046777348 1.518883131379406 -0.1525831455477759 -0.3660338160048857 0.7459785856639088
Ni 5.2343653133084125 3.083915676576284 0.46846507692302525 -0.12389863312888984 -0.9501840833736669 0.13113808830012255
Ni 1.6165562429092095 1.1538534815386536 7.091450294538034 -1.3872389677821206 -0.050499294301132376 1.4140540310924354
Ni 6.662149152856259 1.0231767781093746 9.37905140181998 1.6444986650043807 -1.6834822453564298 -0.013085372429048434
Ni 3.0115345957129875 1.5768079883334332 9.517441483960718 -0.159329463132674 -0.15306651294209767 -1.7486481405308012
Ni 6.381139716128609 2.1011323579066277 2.758977784745914 0.31184678843952096 0.12679446661944613 -1.0855896887008918
Ni 4.168741325065647 6.930663424965322 10.437357312922858 -0.312398547177933 0.5891225237723918 -0.02541278364614978
Ni 8.01808806769535 7.163700516950053 0.28523961791306834 0.425898353571002 0.28092515916000005 0.058108216996641864
Ni 7.791484849565135 3.9612852428273295 8.472023312830261 -0.3248282883008535 -0.6336614867250312 -1.3194222652484633
Ni 3.187648261391668 8.395296640897433 12.514029136572143 0.15215351420952505 -0.4308155883669612 0.7536512717178182
Ni 0.04917097180705741 4.846433617015471 10.307572991432158 0.629749810375451 -1.482682173783795 0.2929234691724568
Ni 8.49716631026059 2.1484413230007045 5.623174851712012 0.8156621662029759 0.514068937170663 0.6403476404959553
Ni 3.7496489600620664 2.683706913083555 11.542387869785285 0.1540317050688444 0.7185999365406399 0.04337939542689949
Ni 0.9127831346282286 3.3883251488623753 12.675814710575098 0.4974722091542464 0.7699456380024675 -1.2749992590483976
Ni 3.0723928629498363 8.478409932244038 8.018442476000896 1.0201887946975785 -0.6518713248648386 0.7601582195984005
Ni 5.75840797371566 7.879096400174431 3.5198624283566575 -0.6088138315537321 0.06937813348350631 0.20547665111269775
Ni 3.0537455336426818 8.345979362071931 3.54513355802053 0.6029116071366842 0.1289341386702683 0.0031254330028591334
Ni 3.5094964397890793 4.501267189591668 9.425496155892073 0.2668815365827404 0.2699210947400126 -0.3248259743080083
Ni 7.385914524526976 6.218375429958803 11.453913925632495 -0.5315462680198201 -0.3206422752439639 -0.44993122615048964
Ni 0.5482396602835445 9.024071499289551 0.5179168491567839 0.17790928301739037 0.05278449079088329 -1.102421929766882
Ni 4.509600328468208 0.43393843804894994 1.6635235220471711 0.8034620245923582 0.22193453955840486 0.2546055474288647
Ni 5.950960732336174 5.349984207448239 0.32545223824303376 0.24972353674621509 1.764484850452742 0.3437919738875499
Ni 8.096930284590512 8.970419534265458 11.223525808546905 -0.5788139427575321 -0.34340785107525373 0.45302400614320043
Ni 0.044630001799852215 4.906110523233836 5.585055966602499 0.318882869350696 -0.17892589720736282 2.330849511703328
Ni 7.980675272979194 8.705476607389198 2.570498904160681 -0.17737757888363648 1.1542921362736123 -0.2675682782371198
P 8.507235141095059 1.7123282719384985 3.395251559387674 -0.823620244707788 -0.5078923760463059 1.1537501477272132
P 1.666500551813752 3.3049119735649235 1.6628592336590848 0.413123827514153 0.8838087412722263 0.2841855750788267
P 4.828467842142058 1.0338999012002332 8.349061805590932 -1.1968778321546225 -0.1263067283497502 -1.0088743981260238
P 8.616720045331217 1.574081770598469 12.568919713187155 -0.5289569100260889 -0.8835634580306395 -2.362339611891809
P 6.305023716968412 7.950405168728642 1.391399737657015 -0.16696229708758342 -0.37671469275749964 -0.8944981026652724
P 1.88911440465847 3.269771026961237 6.075996891271813 -0.4205224339710693 -0.6241311786370928 -0.6603428526709596
P 6.821123996374465 3.8867050129911616 6.263797852380285 1.8899132899625968 0.3799352565773263 -0.6866907465368689
P 2.5242231755881557 8.551263557514728 10.479732732655895 0.7673043437248785 0.31115490457881895 -1.0062217909945252
