# total energy = -340888.8398579002 ev
CRYSTAL
PRIMVEC
9.10342954018350 0.00000000000000 0.00000000000000
0.00000000000000 9.10342954018350 0.00000000000000
0.00000000000000 0.00000000000000 13.32378932081936
PRIMCOORD
 96 1
Ni 6.99461110222926 1.5931457136608906 11.120914486703587 -1.238865746550634 0.8293748878033782 1.2853276375575993
Ni 4.835905715376766 0.4517986640160748 5.717531005498617 -1.499872312409836 0.3467628835904157 0.5662039673030055
Ni 2.8214623788907427 1.7588099272387936 4.717513791515719 -0.12954374722980916 -1.0124505455130564 0.4914432293513472
Ni 3.8253703987250085 4.519752705521453 5.118959565206367 -1.1533045755493623 0.9758609193144806 -0.6020250907666728
Ni 3.5942525256446816 2.824776027299489 2.681066555115466 1.6248027292373501 0.04614873064192052 0.035677398796951455
Ni 5.0099086705547 4.6765683854364415 2.1877662654657883 -1.2070905110215664 0.5223774570363583 1.2595093909429147
Ni 5.252560589057778 4.567481987408965 11.475433901005767 0.8722490614590849 0.8869945951993756 -0.45666623088147806
Ni 5.78472888213048 7.970007180260801 12.403341938036695 -0.00022394308534800142 0.1731792245315727 -0.0669291577223815
Ni 1.6737838938935021 6.814672710890606 0.47732741190795924 0.7394636673635264 -0.4404549112289382 -0.5534572091602984
Ni 3.121338456452546 1.8599945482915679 0.2416842239265672 -0.679124761264153 0.7959384625218034 -0.02420462227066154
Ni 8.196373063040674 9.237523213754551 6.86856046296635 -0.11048210261266779 -1.138222484405259 0.019699535311456396
Ni 8.787595304540668 2.5714002686164594 1.1082542620198903 0.3679762844432372 -0.35459986313633124 0.8591413204325332
Ni 7.12075732750396 0.7644341086374884 4.896412571183277 -0.5245677798194579 0.491564842530876 -1.5335079981864104
Ni 0.8548138689860311 7.838726620638483 2.5360634855718747 1.268335473874977 -1.875283455864564 -0.9353940695486859
Ni 7.678287775705141 3.6393053992020525 3.742812305169857 1.0068735656459111 0.40384163088127867 0.16238496212954615
Ni 7.647645631353937 3.887492202959299 12.34926119325143 0.7007233133705352 -0.5532301807511568 -0.11918837213741407
Ni 8.281936198737933 7.161176555346904 8.948243528356981 0.1690217507197734 0.5822607636555521 0.9697488928794717
Ni 7.172391980730351 0.6899862605970396 0.2732612905073822 -0.2597459539792237 -0.2560726188926945 -0.32642957134970235
Ni 1.5609923999804227 6.691211997375741 9.11505750510528 1.7568759277572326 0.7654829742454236 -0.20414353412357097
Ni 8.715040969876645 4.960540771322203 0.911381670763794 1.2671489097660436 0.3220568962033034 0.8837434352519296
Ni 6.663710536269089 2.0459867203769693 6.963399083179188 0.4959624573779394 0.5074501463025648 -0.6410618929541605
Ni 3.684567651642394 4.501882673031432 0.12066869162760609 -0.6471309819663759 -0.22942082063312103 0.3906955804176239
Ni 5.872367599798052 5.706284628454209 4.776645119095413 1.9253459197385938 -0.5338777443664742 0.2737114150203802
Ni 5.575541171183858 3.005378969005831 9.373872563030687 0.019605690046069463 -0.8188305366286284 -0.6866321253847916
P 0.3235877808866942 5.684591155492557 12.202712361345739 0.458771450149939 0.647069275490505 0.6483008339047609
P 4.3348893587181525 6.3114533242459565 12.403195372818617 -0.4039591302957495 -0.46256048487872603 0.9052034048979184
P 2.6143502499144344 8.706884296870502 1.2582824247547661 0.005974729526196162 -0.10585565958424994 -0.10550933198842476
P 6.339983472908071 8.102953667517186 5.973374703971786 1.69399137241787 -1.6426909223716804 -0.12985382227106024
P 5.074588538533104 1.0486695836414177 12.49792748290403 0.6663417505668717 0.7769814618033264 -0.8397294915648248
P 3.7292928017307685 6.408577815655049 8.028716108702676 0.9528593162129848 -0.3335165601034708 1.5789561032168806
P 4.765445169542446 1.0085962861268596 3.5025846299943875 0.10181465674565691 0.427182105379432 0.8846548913226056
P 0.5812585376995212 5.719393567214082 3.152169041798424 -2.4378950778306203 1.036827431695524 0.6355373635915055
Ni 0.8184884534766396 0.11723760897580306 4.287701730897454 -0.36683831418405205 0.10594179154015304 1.5278261173102847
Ni 2.0788501015735967 6.47053575815484 4.7007125016718145 0.6435478926008079 0.6415791989102112 -0.9276391081936153
Ni 5.938412982230609 5.740823040714598 8.986256719731706 0.4094358371396046 1.1225680656974537 2.0115202988438323
Ni 8.778537391994783 2.6211232016070354 10.044045208897959 0.5977467751062931 -0.2032189654267726 -0.22678929654754493
Ni 2.181154444478777 5.441119928316987 6.893102399079367 -0.2854672700047277 -0.32051114898273836 -0.12161240819787443
Ni 0.4980650247517037 0.25507627934993526 9.33797773974584 1.1716846207184466 -0.47862550876138865 -0.6964992479868586
Ni 1.4659616974010334 1.413598769799094 11.255790901055176 1.166512589599204 -1.0845748742831323 -0.14508837983262754
Ni 4.333250741373168 6.855337731335297 1.3192180520998815 -0.3322757457178342 1.221344192727103 -0.31311897028372526
Ni 5.500182980173973 8.351331643298012 8.028716108702676 0.5513208795435859 -1.02676619080478 -0.38793164451924156
Ni 5.134043037866948 2.760578641094886 4.788836432142095 1.7497822541352446 -0.2828182624176549 0.0484552672879101
Ni 0.6259527361269347 7.570175444654962 6.431526651571553 -0.1816299264020872 -0.9337920151688885 0.9397646878125557
Ni 5.3552927931585925 4.623267804575983 7.167159329342035 -0.5526257143979386 -0.8963413265215981 -1.6599296548474702
Ni 1.2734514696544728 7.776987160451356 11.450238338640695 -0.2205901097153685 -1.3917332561080482 0.24098332865973981
Ni 5.132531868537685 0.4799774202919864 10.203530924742303 -1.4380349673880655 -0.3902083563685602 0.34583882911424957
Ni 8.126777343027317 7.386076785945987 4.530221649669963 -0.038343889885521065 0.1765543116513927 0.5635138220653522
Ni 7.3191301639736865 6.3566518526784375 6.997068117903766 -0.4716490774435555 -0.10823341578780714 -1.6230564359702047
Ni 2.4461097657330284 5.133405797788343 2.5172503377655175 2.5783948098513014 2.0090232434535915 -0.844900751353119
Ni 2.4746399143951425 5.59771712591931 11.431638211089187 -0.6432082498732018 -1.005096162030514 0.045332405388212246
Ni 1.2942710133654665 3.4286975532231105 3.4802666617557025 -2.3449016189210194 -0.6524253975960959 0.9200360990353769
Ni 1.798865017893963 1.3636755613552416 2.349530569762629 -0.9968565477295414 -1.0072669444295879 -0.030073165236296596
Ni 1.2885358526580217 3.4381560166755474 8.264707047698392 -1.30241621760877 0.23920438238244612 -0.1740721686594873
Ni 3.2859648790452924 3.12715554802724 7.200895729446352 1.1162009858288453 -0.3224669871575285 -0.9110020138575665
Ni 4.2532498012191615 6.978498031670249 6.037741413968705 -0.14419903524913877 0.752141262831195 -0.3352458840897517
Ni 0.7406941846805452 0.325954672607227 0.3456708806392646 -0.5195222469757504 -0.4998139699135456 -0.5600757429180806
P 0.19726221804701488 5.549550879406469 7.776735905791792 -0.011908835622444006 0.7139691226368478 0.07195232196858575
P 8.737790440682843 1.9050747321380224 7.9640417027820884 -0.10713709739983485 -0.27123312868321675 0.2278020540827754
P 2.1174304366182803 3.3541040503075523 10.282314736346175 -0.24849172122164298 0.4105054160546995 0.7160254909452443
P 4.241706652366718 6.391763781009572 3.590588395192703 -1.3838967907827648 -1.382419177795974 -0.056644230856605665
P 7.126110144164242 4.1352056283724385 10.279330632092364 -0.005578522529042005 0.4782241595579118 -0.6340396960000564
P 6.460030400287552 7.744351364997088 10.148290403013977 -0.38622057536540577 0.3429640786696158 -0.26170384903654287
P 2.3355941292435385 8.556486534890034 5.642517834474148 1.73410520971962 0.06839622918621124 0.3908159080455721
P 6.917942017343388 4.027857985416584 1.8632790657252918 0.6992449290527958 -0.7118803584286192 -2.5423741687823185
Ni 5.666584571557119 2.9629387797707403 0.2655160925234235 -0.277311987887445 -0.27911947340982896 -0.026159174893871078
Ni 1.3795428393125055 1.007076013367902 6.873130384672917 0.5231847834290021 0.9691148588398988 0.1288714037531329
Ni 7.276161975816324 0.3056176106700341 9.065852557264314 0.38620592007738647 1.4227042505682657 0.35872648371019505
Ni 3.0472456421701772 1.6214755868697286 9.178279003646649 -0.3374896858186059 -0.021326786502234237 -0.026893996177366587
Ni 6.602380730418208 1.8839820855361977 2.3982685116602753 0.15559159335679656 0.16132283941361894 0.8422602284064786
Ni 4.094631642224691 7.062986962663573 10.387239956660359 0.6012727859816805 0.6141444997380261 -1.2829609370976356
Ni 8.352706261181861 7.204217570941823 0.23453347990165 -0.22783213598976246 0.9493106796297779 0.03831123687537273
Ni 7.705297651608297 4.00563651353266 7.88841587093919 0.9188194530194563 0.015245613305160841 0.783004785179271
Ni 3.153391632406376 8.948025046044316 12.331006996028307 1.1452207700999633 -0.757288097139457 0.22768146934451108
Ni 0.18038810076555534 4.948032658922157 10.129077614644038 0.0963808873245953 0.08143969263373071 -0.00619558728775062
Ni 8.898830111976013 2.5661111759640383 5.631219567880482 0.3794382623362497 0.2765123748042851 0.5946069439257308
Ni 4.053866484053361 2.679357841361835 11.311617683655818 -0.9023345679905556 -0.8912672544328004 0.32624162370861237
Ni 1.2799968356047153 3.452393780717521 12.408019280213656 -0.10683602121964828 1.4048250562949998 0.7589819399021123
Ni 3.27064380686969 8.755159784539675 7.768128613015778 -1.0967241080511563 -0.6225116407557989 0.08222953552487773
Ni 5.829026171023219 7.940603102348028 3.7303679167776718 -0.5644707866619827 1.005219574982256 -0.7957003783690683
Ni 3.1971518189471486 8.349865991117221 3.444532969176444 0.6036641690319926 0.837488775159764 0.04487680590803239
Ni 3.7603992209963852 4.516202367940655 9.363173302110912 -0.9312445661566865 0.7530779157128514 -0.46740572878616926
Ni 7.380842313871732 6.201010515194023 11.284130788036679 0.24399229068939265 -0.45016133988342477 0.30955799240534426
Ni 8.030089816243555 8.904164721776905 2.475400050774621 -1.0760274989337535 0.5010375579080015 -0.10759861041728566
Ni 4.833857443695536 0.6707689205122527 1.3671539818414555 -0.3600107497392574 -1.845723225708944 -0.014694368787381144
Ni 6.324571366435525 5.52286872697231 0.2842136267726627 -0.34924605502358563 0.9727012906395763 -0.3286738872991888
Ni 8.400981748851034 8.722168955327328 11.538401413858661 -1.5676221662613001 0.628126415839415 -0.30709153314272275
Ni 9.148309602749858 5.322538653118297 5.411803243329281 -0.33748068695754135 -1.3275410377008556 -0.11055795015592573
Ni 7.240221635383003 6.068610233719299 2.613221424632334 0.7303017983586003 0.3782923216572647 0.1824071708877439
P 8.646938212333163 1.6627414336742474 3.6202464587939476 0.17729478936184304 0.38298972713293394 -1.7318431531583205
P 1.9678975004587778 3.4465584822834385 1.389764170173329 -0.6769385522461115 -1.1382708211446915 -2.4312387488563676
P 4.831672620568891 1.6387174827108402 7.803916926173201 -1.5346796498970086 -1.4413946278889176 0.4655529918481466
P 8.792137915958152 1.869207219142257 12.342452738183022 -0.8942371356944018 -1.076652791222578 0.2999130131164125
P 6.448550975442969 7.717432523390874 1.2914134467844078 0.46883860457795384 0.5405096478606949 0.13092083008299388
P 1.8917655179248727 3.602381888361742 5.527986675146477 -0.12001703868629653 0.1621211669451982 1.4192661714209944
P 7.032299301163897 3.9682578312076315 5.691856602731623 -1.188604793512553 0.6968486609064773 1.7304876675716907
P 2.629507460355538 8.72687542847931 10.15627137982702 -0.11961388971060691 1.0049467809368435 -1.3101614087718276
