# total energy = -340886.37797434075 ev
CRYSTAL
PRIMVEC
9.12830862495333 0.00000000000000 0.00000000000000
0.00000000000000 9.12830862495333 0.00000000000000
0.00000000000000 0.00000000000000 13.36020237620120
PRIMCOORD
 96 1
Ni 6.809380342584169 2.2919539376305775 11.37474223360478 0.013230125537028828 -0.0991859608735582 0.1221040031223123
Ni 4.919838753853578 0.4256274629033083 6.133842615593904 -1.019868178133366 -0.5274602708759045 -0.23370993492677813
Ni 3.139955534312161 1.828071559751993 4.913695402279091 -0.2583179632834455 -0.9146072147103217 -0.7258635600815886
Ni 3.06765933153365 4.2484334120903124 4.273915085077208 2.145031515361822 0.5422261163311693 -0.937261718885044
Ni 4.111883046261556 2.848023102360195 2.4287507677869877 -0.40920032409003076 -0.33414210950261164 0.6282439152538858
Ni 5.283291482367366 5.20189435608252 2.309818950062121 -0.122549318189847 -1.9437179944878784 1.9974720482808823
Ni 5.413315107667508 2.997818643723247 0.3810566713241874 0.5137704320936377 -0.2486264470272944 -0.9172701062544654
Ni 5.727830974679327 8.259503420032944 12.156113568551364 0.32269478689761844 -0.4265344444931042 1.7981539605704129
Ni 2.1483747743094654 6.743638265259568 0.00957742120646642 0.26717078568838504 0.2628294780005538 0.5636032964553649
Ni 1.1931520667899533 0.22167458044623758 0.05594101256155943 -0.8332459407230101 -0.44721434143995875 -0.36056610802209516
Ni 8.028091672982686 0.21776492594497035 7.073452264371956 -0.9227259871627143 -2.758054499900895 -1.4323214619430558
Ni 0.0980572020034149 2.4955243439643624 1.1952232799730904 0.08137464372375018 1.535226009318782 0.4429221418225082
Ni 7.088186267011451 0.952977143645331 5.058426558124274 -0.44327078341117854 -0.2972177256724365 -2.245934973147119
Ni 1.2013219028362625 7.872965199495563 2.313052196908604 0.5556840416082882 -0.8169945118611541 0.4949054768683348
Ni 7.781034005280615 4.175817718516694 3.745279225677169 -1.1621944218398241 0.4548363767615909 -0.8258969565571068
Ni 8.081720485018515 4.05517799428427 12.621168934063412 -0.8777864463375462 -0.03011841665193523 0.14684315774020518
Ni 8.511143498567694 7.217096238682932 9.200155521633889 0.06402458248107683 -0.8364528776960821 0.970754708436167
Ni 7.113234345347843 0.9454006476470779 0.15858701521355484 -0.45350968753036736 -0.21165424067831934 -0.6093900157721763
Ni 2.347107177174487 6.696682246687262 8.854540420626348 -0.5376960896712998 -1.1773143082003983 0.5822023996137908
Ni 0.6290235185460495 5.351598614361255 1.39496527375065 -1.7669520810463117 -1.6345783205668754 -0.232869955523986
Ni 6.194104969366998 2.2243588136943555 6.96185412964106 1.2873976327127505 0.941456730802998 0.006740661157943229
Ni 3.8457837271711033 4.671302300185582 0.4067035666936957 -0.9526551706219786 -0.5458472580235244 0.04279884033308113
Ni 6.231248056375301 6.013693081524258 4.7801865888197534 -0.1524517621762342 0.27408679608192793 -0.04729312865900888
Ni 5.807238129726078 3.1121050652872566 9.185981084301254 -0.805391380404587 1.2401579829994964 0.8760602076750589
P 0.23025519037197 5.8498399451764955 12.41122696844435 1.487027081016052 -0.2784113915992108 0.10311692049684823
P 4.300072252888044 6.389934570150761 12.682011848252758 0.42092866827055253 1.5543455037570522 -1.388061977904048
P 2.936193433501311 8.888498640822855 1.2785209200734025 0.07569507684046964 0.4157039295365034 -0.16706694098624775
P 6.453285030666274 8.015868867992735 5.738487361942411 0.5369766950067719 -0.1859699485383378 0.13007159470882115
P 5.003381032619857 1.3160282265881278 12.415609469322376 -0.1645151210986715 -0.18724804391981298 0.4067580331971253
P 4.51635839286709 6.523709930216301 8.254560441017215 -1.127085236841517 -1.1590836441249843 -0.7402799926172348
P 5.120323791937472 1.1354063876514606 3.883049133512391 0.024895220579782933 0.9965652417413675 -0.6993068926389828
P 0.25714262285733674 6.091046367173893 3.6622718657849824 1.1541391556355156 -1.7316593192822887 -1.9944103786364233
Ni 0.9944014073080689 0.2611316936419592 4.342559964483067 -0.48938403282947335 -1.6048908208047716 2.2786005817009403
Ni 2.1308210371954406 6.582843112236401 4.795777739620978 -0.8944929604589498 0.9046737576466937 -0.5762176427852657
Ni 6.258715136446075 5.87657676057274 9.418434371343558 0.37021880062051077 -0.004481432810121314 -0.43386645937814305
Ni 8.854851695943866 2.4905402875606923 9.915353923097898 0.9376877506788691 0.12096706130439165 0.14714860479576594
Ni 2.512968541377208 5.277166387409743 6.902387764363206 0.9527821831181462 0.9599751013221598 -0.5184015031077459
Ni 0.3031648154770868 0.10567933954382613 8.944642301831598 1.4789203927485175 1.1432207089507986 1.010656943947743
Ni 1.5409406180350644 1.1761368998733948 11.054832449140712 -0.06866053859119142 -0.16301076863900313 0.6854607307845098
Ni 4.418128665834318 7.173033893883453 1.5622616080388234 -0.9336603746870308 1.5251058901656442 -0.7414814691245036
Ni 6.0286543790437 8.175623393854694 8.148547918215636 -0.9663416669701358 -0.1505303767838053 -0.3374071534071286
Ni 5.403173556999966 3.1608137190784356 4.871851236428498 -1.5454078349477902 -0.5981594371636796 -1.631316361986152
Ni 0.8988873520337062 7.7548357600818365 6.894799401563992 0.41747002029799074 0.4030265911791511 -0.836852941347978
Ni 5.459896865594116 4.730417225588819 7.281483675036279 -0.06408397496410254 0.37398520964147847 -0.2770782746100841
Ni 1.1724399349585846 7.443049257291075 11.065026031166312 0.11899502517968538 -0.4848727752226811 0.3317281007444803
Ni 4.999318935367782 0.5607154737213175 10.335037944381373 -0.5955662225152066 0.2711878772675781 0.3724703156588488
Ni 8.37896559247769 7.609467448308125 4.490310764757433 -0.8822020589067388 2.286318776280804 1.6603117207772375
Ni 7.670115929527876 6.748339344101858 7.085596565909397 -0.38702867308899797 -1.2073054552458498 -1.0584210987058997
Ni 2.517213204797916 5.678273388204006 2.47763651076174 1.5075905069897002 1.2330056882254312 0.46299217309950585
Ni 2.7911537408311387 5.408184998328931 11.377521803522212 0.19754119831570496 -0.1601442457244855 -0.0982469939990566
Ni 0.7664136887505159 3.4452883230417597 3.9102505798078058 2.0419125379824448 0.17907604963198193 -2.1472555195963343
Ni 1.7521422902176929 1.3241067795501205 2.6407237820320884 1.328213638287848 1.6379058422782113 -2.4325381843940814
Ni 1.4032400853439229 3.569451574328794 7.955826506452842 -1.3901160322195996 -0.007258738444942338 0.4345889393664644
Ni 3.6627793997337807 3.1020730543208956 6.909161882050318 0.7633312180097435 -0.7724848594845535 0.7743771914112598
Ni 4.1680677846582395 6.897815394669801 5.957835136569425 1.5013926057091047 0.6325417712982913 1.7524312617223174
Ni 8.81293450362582 7.281679020836716 0.5663522041778492 -1.2393421719664204 1.1584439536584565 -0.9593963460005541
P 0.5055521930381329 5.875052333064658 7.736265129408528 -0.005452281363822868 -1.074187617511537 2.09125406453005
P 8.80038307953233 1.957647897938984 7.6645476613845815 -0.12141649013698445 0.8288511540894241 3.215748400715939
P 2.0289947566406057 3.172680520039555 10.222558927886826 -0.28435166834304576 0.9326717855215163 0.36314466738254875
P 4.125977154479993 6.319893059554861 3.9193487648216117 0.7776396642126155 -0.2276742702556595 -1.6955268352257897
P 7.523068009002745 4.1895375660894345 10.184949384317667 -0.9973851665395016 0.68982800661427 1.4561345052022534
P 6.750137620862889 8.048128309990116 10.246633928544409 0.17024919536897132 0.2317376416917557 0.0863777533652964
P 2.744489828128645 8.525465814496922 5.742067484509297 -1.224778929440265 1.4578126642356248 -0.4586544649561004
P 7.061878482111491 4.188880327882357 1.3566218141835873 0.7080715262054903 0.6625558011618782 0.2565917246209581
Ni 2.9124415749622092 1.8963147935868605 0.12576800790931475 0.827049582104311 -0.03898332324173286 1.0282790279048806
Ni 1.2615048403260005 1.0054375322019098 6.706794586767821 1.4519523488001058 0.499494638900914 -0.8384141151875109
Ni 6.9474094943788485 0.9977241115771822 9.045939140497397 1.4918525274291532 0.27677179911325883 0.9797078038643965
Ni 2.516419041964364 1.6426756155055833 8.712935710418998 0.8655847620650318 -0.48713611733556106 0.917031250770782
Ni 6.633715175125877 2.324788463059151 2.3538402174736577 1.5716382293992288 0.04498067847574834 1.50800162638519
Ni 4.317078291496172 7.3283977033898 10.334556882527027 -0.05135932830858251 -0.6297804065030702 -0.025347220515536992
Ni 7.374824280073071 6.316615996827906 11.632487324818603 0.7477922418338799 0.18752186640648993 -0.9544950520441948
Ni 7.997137579091029 3.907408937393039 8.047250166718992 -0.42373836980520574 1.3288124482141115 -1.1184830969948028
Ni 3.215610954593512 8.742390936066183 12.181498481468886 0.6710412129250701 -0.03853415151945621 -0.1044675209874717
Ni 0.6324585010088719 5.105252954716851 10.179472399258687 -0.5088938207276268 -0.6016314548726799 -0.2806672775129231
Ni 8.62999407434752 2.6761644395178927 5.712381312658793 -0.1266170605013174 0.5988202106761299 -0.23414496558166772
Ni 3.8371209624694864 3.0645283217416 11.5110169245189 -0.2254392102775537 -0.6695880254183113 -0.1328463292404809
Ni 1.316393358925393 3.5587166836131967 12.466551820186774 0.596650970938953 0.30655751501612366 -0.23018135294822936
Ni 3.3118233254628944 8.690980302979241 7.859940929025313 1.2753558710568682 -0.3100426453512467 -0.674619931415264
Ni 5.76979380853953 8.130629961595188 3.3788890075100815 1.0909625229770308 -0.1921611649507142 0.8505438085715095
Ni 3.4477803512435945 8.809538772889255 3.49561633874871 -0.44585577052953534 -0.471964037580813 0.4483931922394084
Ni 3.651396399119538 4.357881830185558 9.282334031120481 0.08619854747495477 0.5128584618023296 -0.5989467089516654
Ni 5.471571972078172 4.733402182445962 11.465832710613174 0.06358620939207758 0.09757696451522549 0.45103268674478453
Ni 8.639770492677796 0.2997553922778729 1.8428128650382327 -0.9105327875306319 -0.607451918209199 0.8678002816591119
Ni 5.212583605255959 0.7020618528000524 1.603024069340268 -1.7058171614082043 -1.60852636067483 -0.47885793648716884
Ni 6.351321825484965 6.137098683211467 0.4455363035926938 -0.2234257793919507 -1.0748782158206585 -2.081542493669241
Ni 8.482316300540605 8.767101266990606 11.598045304275221 -0.9996706201395686 0.9562685990048497 -0.004454693337243941
Ni 0.22728575163916068 5.261283130738707 5.701158970272946 -0.9065246948125033 -1.0119705205528442 -0.2874688738157888
Ni 7.458047068044243 6.402385582851504 2.6230084738588237 0.3876153988304034 -0.3021005076860345 -0.779916118951618
P 8.675781669440576 1.6893303998996454 3.4757230161836583 -0.737821246664097 0.3144669996711874 0.38792675942323507
P 2.2534416043575294 3.732811782021248 1.6972537716183003 -0.9372712319667407 -1.9014608855908801 -0.5249873838553798
P 4.828026227648241 1.3605652434260516 8.37279850730128 -1.18134476951603 -0.1679223470080076 -1.61005848104864
P 8.867275323719316 1.8249770631936701 12.527848411305172 0.068647683075385 -0.47066588759467975 -1.305261914587681
P 6.777650342475822 8.024577274236508 1.1902565673554404 -0.17929690739353638 1.8321285177436446 0.7607493162151802
P 1.8715588211202792 3.5277078198709493 5.731940539135246 -0.8381909434331113 -1.2492681728308808 1.719367389288813
P 6.922562238827951 4.2038416254017985 5.72904138837736 1.605985596530847 0.3463653910416809 1.8711892311905323
P 2.4689335815030238 8.588861916554594 9.800082557054115 -0.5230839961850797 1.9282108999912146 1.5425351413856854
