# total energy = -340856.18762068904 ev
CRYSTAL
PRIMVEC
9.35455541256903 0.00000000000000 0.00000000000000

0.00000000000000 9.35455541256903 0.00000000000000

0.00000000000000 0.00000000000000 13.69133741924320

PRIMCOORD
 96 1
Ni 0.15571593087257118 6.88211841854848 3.7433077038838776 -0.2991619938830009 -0.5411719640350421 -0.3086614487330039
Ni 2.4927832408423054 6.567384398711423 9.87014024672298 0.9979747204943845 0.10615724998506879 0.21123077998765558
Ni 6.1228465667400505 4.318465065229267 7.37891921664937 0.529826714225552 -0.13993871731088803 -0.8302277227219766
Ni 7.9306331264532615 5.747682118365398 5.486721825371299 0.23920952458876865 -1.273492078375252 1.7523921809542657
Ni 4.175293593283772 2.4917074669596704 3.68357231882002 2.6033368245086193 0.16803033334078157 2.420176577504935
Ni 3.5539827260066823 5.808683174788565 12.119270993159462 2.8175683389958124 -0.23111697738862133 0.0826051736967416
Ni 3.6417658748297153 4.529644155668309 2.6997125567171634 -0.5543406402065162 0.31547230100725027 0.8562123197111965
Ni 4.66014020490971 8.274319495566457 3.4772987572857947 -0.6718621661644687 -0.30995137118902105 -0.5632461702262622
Ni 2.2372635573276907 2.3946258899684687 3.0431594492095297 -2.360915477850773 -0.23392436493042942 -3.012042982571051
Ni 8.258678678768494 4.538119382952374 3.3477372281389606 -0.36834960862225596 -0.5157740927872279 1.4330886791263837
Ni 6.560957819082114 4.547212010899516 13.72063712481708 -1.2845303384672846 -0.5928711921815467 -3.492353078123714
Ni 6.3621454510156275 8.281522503302364 1.8065031146984505 -1.198280368929104 -0.5657023450762386 -1.1419392711352139
Ni 3.5591651497543335 2.2635685673969967 10.066048960761902 0.48443491635431407 -0.40588771477703 -0.9379266061625524
Ni 2.9460395185407733 5.118223433246784 0.5754576425769765 0.029652789869426353 0.2781720218948951 0.0773027876472217
Ni 2.7944770103107244 1.0569712260778454 13.080142870573729 -0.24895606245257124 -1.3300897722646383 -0.8141179616443076
Ni 5.966157762095357 2.120761923116048 9.537755116110754 -0.6764338446955512 1.9897975624547604 -0.019101753826457426
Ni -0.08085235865221194 3.019126660671459 9.261669442326804 -0.4098901510682037 1.0279468413764425 0.04585665332279844
Ni 7.049985917017079 2.219330874431937 6.154406966089916 -0.7253192575423444 2.710578822917435 0.06704151493052969
Ni 1.7410043879903183 4.883255708168252 8.202548539394789 1.0783440628820717 -0.3214118064201368 0.8678025956519572
Ni 5.809169611674625 1.01483830810055 3.040668331079567 0.10454439697199415 -3.894890645481589 0.28768021849564646
Ni 3.301942937138505 0.5760694305067534 6.386420522541178 -5.779920124989323 0.08955563687264576 -1.1613750112623225
Ni 2.380210519941157 9.09241279236628 8.749367210304914 0.0723600989299657 -0.2682488492439122 -1.7966730051495121
Ni 2.4552527641715884 7.090294696671645 1.990062880020271 0.8865343677335055 0.06764366729090286 1.7584579275323715
Ni 0.7678724301362101 1.026241511256483 10.02186739512985 0.09479605933597868 -0.3905161174169661 -0.4624180457635907
P 7.426160657385857 0.876333823894592 4.607354319127675 0.20694295124557907 -1.6396737328119115 -1.1803117002658252
P 4.724275037425771 2.7270026014807436 5.870873195215931 0.7950061805155212 -0.29441625166789936 -0.06319283060840084
P 5.6641552922953995 6.455812615248899 13.250463133494735 1.0233805621619987 -0.5654622040409745 -2.2489675893258556
P 2.713026895561987 0.2210780810703862 3.5670313954752726 0.2412514947194619 0.03013127216774165 0.47694297885264314
P 2.069433477081097 7.975057910528346 12.710626702810686 0.24850046297239137 -1.1953786219012767 2.408642865833723
P 3.5379957906551733 4.414433450115828 10.521491398080995 1.5368229214922562 1.151232780621998 -0.5582934542066772
P 4.493348480323747 8.186068618968367 9.527322915815843 -0.9909921185289642 0.09297031898114956 -1.6316341503368867
P 1.476738195082104 8.277864872101404 6.804156617546131 0.013119825211409664 0.21512420150479078 -0.16118708516670305
Ni 2.01201521541488 3.29546023017619 13.237606232413919 -0.19227660748265593 0.5012620152139818 -0.5367123856017918
Ni 7.822120282639624 1.4165509849875393 10.908627806586052 -0.5842299715667809 1.1323575409840498 0.16139765851561236
Ni 8.21904342711001 8.519726904584303 2.9921874117391734 -0.09451426642950174 1.9765502105265509 0.5847557621632639
Ni 1.1217702320344898 4.719045840900614 2.293080319092106 -0.051323075754008386 0.22517387243130896 -1.2194719154050546
Ni 8.598978698790264 6.288730899442399 12.078785412405923 2.447729033201907 1.9059351193121497 -0.39755168410750885
Ni 8.32908106347034 7.551436864657603 0.20731285265040614 -0.5584034974219801 0.5796040427589952 1.2539118422504794
Ni 4.694443359932522 8.416293584407804 13.518484244981122 -0.4462614906083863 2.1661968365855273 2.3786375777208844
Ni 1.2167844522599316 8.783646978938974 0.9603854405282062 -0.8630699660629781 0.6705079661294194 -0.5241312065026715
Ni 8.53148558084928 5.151946605828522 7.693011513979046 -0.5119266940166796 -1.3866805241754891 0.24680893420258138
Ni 1.2747826963672213 3.957977914435959 4.458159448894974 -0.7064247346306867 -0.9499940788500478 1.4926385136655582
Ni 5.807757073793948 1.6525477111712006 0.5114649993045335 -0.9876633112660475 0.6001286450749084 0.7035111605283174
Ni 3.849006697402763 5.699431321090334 5.005252208281285 0.32381501654499073 -0.28816384300028436 -0.5861444149806744
Ni 3.9640022481787156 7.680539085129329 7.325961207046114 0.217537953152606 -0.5658653530166642 0.30804464108461144
Ni 1.3674863413838727 1.4142217006677467 4.870706571963425 0.971356603686224 -0.25600679865176557 -0.5999805495328183
Ni 7.243765534223932 6.9206685417688245 9.258603019033519 -0.6029036367168842 -0.9536085356741834 0.47463104289001484
Ni 4.449269814802206 0.8577622248581079 8.076561385904952 1.9897278855590894 0.3437217827712467 2.288919190018129
Ni 9.066079718630471 8.818455279958847 8.343295310554378 -1.5270792118419314 2.0259665561761495 0.18452164612758543
Ni 0.23497614417848298 0.893917581870152 6.624841014055194 -1.0306734962789863 -0.606606282379452 0.7492114907789097
Ni 2.74225052694766 7.798013593113094 4.898569115523677 -0.37131306212595405 1.6473767578831244 0.3526975039072958
Ni 4.973602005198607 1.0987393163905952 11.453515697240736 0.9032028295281219 -1.0734401978225512 1.4959740057966946
Ni 6.38755242375682 9.235752646310797 9.261450545728076 0.03878843362210739 -0.36537355671306754 0.2277994829796141
Ni 1.4496754660172024 5.937467340373251 5.928910728456325 -1.0989231725850042 0.5852406722194824 2.7650733544208896
Ni 8.168556891070166 5.17070248960838 1.2488705776289646 2.294643494096416 1.8070589763695266 -0.049491678972224444
Ni 0.771221361005631 2.138881697121825 1.1342613699952098 2.8658379726354775 1.4852465920768616 -0.8890494208458753
P 9.387857718759914 5.138176700130792 9.905012158720261 0.3852461272672784 0.04553397987605706 0.15254972120667923
P 8.702992001407836 3.560334469191981 5.6395986486492635 -0.4299519548150853 1.2677261224257521 -1.036215252032822
P 0.7442503065846411 1.9015192058349926 11.97317060988655 -0.7325096046431965 -0.19321891679126724 1.5184960981586106
P 3.8871545747365577 5.463312985685157 7.0721375044438615 -0.41911655476247817 3.485890353217506 -0.1099120890418107
P 6.482968889868812 3.311007501419144 11.728054127544791 1.148889734311118 -0.35577460017072277 -0.9449709146038434
P 3.612083870224485 2.444307934235213 0.8713020084905096 -0.11535537154456908 1.453036325892904 -0.09854267086260449
P 4.530083819776864 6.801809559570886 1.2819351895034201 -2.3694592536557257 1.3181356852265556 2.5942443752890485
P 8.856677993736652 7.8883318264769455 10.208822864098597 1.0515760507596084 0.8618733746517158 2.3075226640519295
Ni 1.4461862168152642 5.699291002757816 12.187781886738973 -1.7311548688420444 -0.04867792482167746 0.7926212252231124
Ni 0.5223967328632074 6.824354038328719 8.407823034401488 1.2551806816605737 -0.10237155769039143 0.6221871675368446
Ni 2.1943822749103012 8.850924942103429 10.975728968651536 0.930991569605616 0.5417589468867637 -0.5768185095940582
Ni 8.752823718562599 7.918874450188285 5.964767675147882 0.6104801635125615 0.7808180619405971 -0.343286495006041
Ni 3.6935994668617305 0.4607053102440538 1.6626216319904168 -0.07960906718289516 -0.34140881836735393 0.37108809059934156
Ni 4.712525715716294 7.691091023734655 11.549889134380498 -0.8735988906187601 -0.5417399207233703 -2.932919853885639
Ni 5.729450089693607 5.280786898746216 1.889952297957789 1.4404273788796418 -0.10922997537312155 2.8038985548182036
Ni 5.8450630411326365 4.532600195206681 4.603944583647497 0.10117162384501932 -0.6498383535952098 0.21728752770469673
Ni 6.755981592170626 5.70346313451134 11.442590511870913 -3.853678175799021 0.9120340546665068 1.4240329966820184
Ni 8.741355033518158 3.996705774210826 11.732326353042177 -0.08019167915924254 -1.5409698537810943 0.13753087920034376
Ni 5.142966232547394 5.663416282410807 9.080684050678906 -1.9786469451545796 1.1017688695639154 0.36439293796735306
Ni 8.981458409566835 2.1737928982522132 3.358539868831718 -0.6463151709332997 -0.02937922449306553 0.4236797486531284
Ni 0.8184758981198202 3.123832200396119 7.0728624824952036 0.9893653815588187 0.07326049925704803 -1.0236340729337017
Ni 5.771508171226892 7.171623202198866 5.312663482072023 0.586767393276654 -0.07407888139328532 0.6566412354496562
Ni 6.9285357229453135 4.429672021027243 9.782282261455936 1.6253159214283426 -2.3148467085171682 -2.2855970676234314
Ni 3.8967523486807636 3.6751897016354165 7.76535683985849 -0.3895797216456259 -4.3425379606939085 1.7905753768922068
Ni 1.7687593541623066 3.3612227553494556 10.816608915032086 -2.08724340070876 1.0912355741327593 -0.3811938115747758
Ni 7.972017679990464 2.9849825330921678 0.6278889907055163 0.49341835079984697 -2.1740793246573977 0.7644190517572835
Ni 9.054975861250576 9.261505737605532 12.18871360046689 1.0196087538243923 -0.7263358717323168 0.32434260691368655
Ni 4.6339100312844135 3.476798288566482 12.700906384189414 -1.7874527721028248 -0.2130709185201879 -0.04116259028123878
Ni 6.280311799491341 2.9829338854374106 2.891062795860363 1.9482796457166316 3.131492835899968 -1.226266826839701
Ni 6.907534745845174 8.294684362892518 11.29346392989337 1.3134269668969767 -0.1799885341439223 0.3503901959303578
Ni 6.998779080203643 0.2296262738873606 7.053517261718771 0.11757423357275881 -2.173218519318999 -0.27881942567090695
Ni 5.0778491717037095 0.2946815946647371 5.453876110095571 3.185199324284489 0.4631004165425959 -1.8115267823328929
P 7.197011465829057 7.063175840273735 7.226041457915856 -0.2498160964600214 -0.04679613441793231 -2.053337234879619
P 1.954082453196099 5.9750071715994695 3.976717895471464 2.08771494102854 -1.4085053333600646 -2.259347389898283
P 7.739089248011188 1.8460466917130205 8.467133722645592 -0.08490605391577635 -1.1583457375176953 -0.9491199037752105
P 8.788024910913524 0.8465545319121492 1.620685159678646 -2.328411077465164 -2.4425256346240967 0.43093283067111593
P 2.1030069767748167 2.0347000125052315 8.465559350954745 0.07103829479474863 -0.37288991969477064 -0.048993656289883364
P 7.250734678072309 6.471425368380362 3.7178277656097753 -1.3182989502772975 1.2874392845839633 -2.077728776350105
P 6.599049569082902 0.17984413587675374 12.95533252016594 0.9659544588340462 -0.22081970922767133 0.20030667687598408
P 0.7875684467439356 6.42463388176348 0.8080062796029043 -0.632641272990633 -0.7939391727035874 -0.9955105752246082
