# total energy = -381160.7279211764 ev
CRYSTAL
PRIMVEC
9.30565147851144 0.00000000000000 0.00000000000000
0.00000000000000 9.30565147851144 0.00000000000000
0.00000000000000 0.00000000000000 13.61976156847779
PRIMCOORD
 96 1
Ni 8.599157215141906 1.9171875630680886 6.387953867844011 0.7826443165160586 -1.5796263898110279 -0.1011921926703096
Ni 2.7814034261817713 6.952019661200114 2.667771184057646 0.9944327687793971 -0.9137898610153488 -0.7449701990040525
Ni 6.624646838282708 3.0389652508750036 7.1339218856451945 0.081550250069666 -0.14710078227696602 -0.9327077809657742
Ni 4.151120894938411 3.7993765705081963 3.683464443744652 2.131944600270877 -0.21590144599044755 -0.6349745491094999
Ni 2.6545580893657634 9.128909348827012 3.812102979621949 0.6072035496438187 -0.4439613817202999 0.33469412535133974
Ni 2.118757282147506 2.3836612659448266 11.921690795207223 -0.3884078128247117 1.5182564713439788 -0.1565626990208142
Ni 8.205388568133664 3.0124255325418474 8.623610606388704 -0.06829055684628238 1.6219444338529487 1.3940606186896443
Ni 3.2128134338694028 3.985536130555458 6.0621015883963265 -0.5816624679499208 1.2031880906433667 0.342654517848997
Ni 2.7895458713225536 0.6157196041989076 13.005061267208935 -0.7477732156704863 -0.4872268772771544 -0.2521064351560948
Ni 8.478016242750241 4.536244591620041 13.256182650437099 -0.6130654077412345 -0.11206255972591023 -0.06417936289138625
Ni 5.540882737218761 5.044789145332753 5.670029361672843 0.5764032764335106 -1.402108171584469 2.2361745513262457
Ni 4.9028779585934 6.858879394441151 9.213700584979906 0.2311432026408664 -1.2624666737990258 -0.7142840827741053
Ni 1.7062005245801317 8.633327567778425 1.4620267408286636 -2.5870365446866996 -1.0928545977934212 -0.25907875270886993
Ni 5.510341588702134 4.255427943604733 0.698325873358595 -0.2713331445961908 2.0719589637458635 0.12423287653985701
Ni 6.333733558292831 2.290111550515928 1.2762449902359339 -0.8677730279656024 -2.180708399938141 0.7657629673796877
Ni 1.7791847499963116 4.9508858151434545 13.169097571167402 0.4309917089335093 0.628070108680183 0.45069355823781093
Ni 6.715339718673642 8.941968114046235 8.293113876232717 0.06392585211968346 0.38978232457473516 1.569415510716297
Ni 4.927389044880053 8.311072853235226 3.16851481004291 -1.4453232735193624 -1.582633552068468 -1.0700645964820992
Ni 2.765937433240079 2.232798042376408 4.398134763554984 -0.4981712921038001 -0.50160217216222 0.6571189464170232
Ni 6.108108729854646 7.405353784032526 6.305731922094969 -0.9587157749937617 -1.0062277045317962 0.614362015065471
Ni 5.8833586326658684 5.3416487366883 3.522941953826368 0.7676977225085553 0.264133541523958 -1.8145686544830106
Ni 0.731906247684341 3.7726507391432507 6.361845001179448 0.42189103218382173 -1.531171379633434 -1.0604676968222833
Ni 4.544163701122676 2.079720073729697 11.16564382616949 -4.9730914979175775 -2.4020474720043925 0.787480047341805
Ni 4.165907575314073 8.609346903632371 7.603150061392415 1.543238080989981 -1.6950689217527646 0.12420870817014092
P 6.299172368289556 2.879792080437192 3.579600344093989 -2.92320828302483 -0.2432304728227037 -2.222760334802869
Ni 6.444991928696483 5.1104126003416654 8.302770350887105 -0.8208295693365283 0.489585350207002 1.3984561766541788
P 2.364342733245096 -0.15512893425702956 8.338059242844675 -1.581795629548205 1.5065960042869149 1.1871161247821684
Ni 0.32275535859871163 6.714744156971916 0.34053380596038596 1.4132094237039532 -1.7835470092905157 0.5698850156990185
P 3.7311289217510546 5.897968505661329 7.503154321107493 0.5262971038057388 -1.057379801925579 -1.08047139363772
P 2.665296811300007 2.006912655693717 9.883247800232917 -0.2490990157883387 0.4576833592920827 -0.23305790316507602
P 5.893129566834808 8.33416017482869 12.728062728040786 -0.217861912150928 0.43159308996293416 -0.6239954243901769
Ni 7.547302193378236 3.504275747303059 4.96335445770818 0.7783096936964466 0.27246417287684044 1.1511337931502885
Ni 9.105012435545262 1.1304133324819394 1.6191173064407527 -1.5887751461898314 -0.6496491204025392 -0.5360528976409219
Ni 9.351435395285906 6.205836682847213 11.411808088795944 0.4168922934176498 0.5016718490578909 0.5032057692039139
Ni 7.066665288782332 6.250094361806713 10.479861971153495 -0.010796833505187857 0.4454860458949424 -2.23051658170952
Ni -0.10161399309633003 5.6116149949502905 9.039871943853845 0.636376314553033 -1.2419055618182224 0.10044837252574958
Ni 7.726100983018231 9.067184961834085 11.327651498081451 -0.1456349963647169 -0.12498106755979121 0.11183887375087835
Ni 7.703190468804967 1.2888699677473618 3.7069993671795696 0.20649892172962503 0.7632335160896145 -0.5935239952741972
Ni 8.039831720705479 4.89941625620212 6.830896369546468 0.7266032664610905 -1.2977023570728683 -0.1797008277001744
Ni 3.76883542199157 4.288528146308463 11.99715776846747 -0.836816431683088 -0.13319034284346093 0.9656276716222466
Ni 8.100002063882965 3.446227092687972 2.1040078243782023 0.2280815329964072 1.0223284667484005 0.5433784847680577
Ni 1.4200424325524712 7.089398995615396 4.57816003807447 -0.25767133083838206 -1.0701653837260217 0.01728732632553797
Ni 5.903235504460968 6.733504350576279 0.6384812279867408 -1.4808307223973527 -0.8784459342984162 1.3691646267789128
Ni 8.623361214926106 6.779744133324335 6.021351209520897 1.4309428364279744 2.4792469013045304 -1.9067540156690195
Ni 6.614075618077076 8.893988174450948 1.3682825372815446 0.2248565983012063 0.8099301488152051 -0.0810833377355765
Ni 9.134436905871153 8.764239474339028 4.038845416816031 0.17074876071320916 -0.1941267733175173 0.22958280013228205
Ni 6.429823716605654 1.4535427782745478 10.522641912640585 2.6574544322886298 1.0856069150920724 -1.456895037517362
Ni 7.7621510772758215 6.985948066895305 8.08347801835555 -0.45130445234893246 0.17900791539820785 0.6402000591744975
Ni 0.4281102236340069 8.506137921853606 7.7983761177832935 -0.3147549632252514 -0.8529675875216536 -1.6743712841940972
Ni 5.264086130690103 3.893447402426105 10.331596885508855 1.6530056740341275 2.500309121291468 -2.274721558361508
Ni 5.0396338143521895 1.168771228333717 8.520577501424981 0.40226503042277817 2.001663203544094 1.2100519076427352
Ni 2.882769888945821 7.350310854880837 13.552357345835661 0.14448854146509954 -0.7580434872482429 0.285333829750657
Ni 0.6334217452175483 5.21588285545667 1.964800859990749 -0.18739716790316757 -1.113818601639598 0.9796769506264611
Ni 0.8775499312762282 0.6304374227528067 10.651607076888673 1.4779552006217709 1.491756625281237 -0.6653847859702411
Ni 7.557166184063069 1.452230681400433 13.161742384151088 1.1572123952442004 -0.8577938052657034 -0.29369351456926196
Ni 9.23344903878307 4.896866507666607 4.452000527780607 0.830892609999485 1.1894280607447967 -0.3545348142263507
P 8.749797103072178 8.265605439569097 1.938269516744023 -0.1675117418331502 -0.3455668063997855 0.35292221832359216
Ni 8.805789208685994 0.9024927997966321 8.995784558318434 -1.5747981151844492 0.6656377825213117 -0.5898159502949907
P 2.393059974050187 6.2010349666270494 11.075522312786148 0.30953330981499594 -0.12930103509138377 0.46214962259355247
Ni 4.874765585141625 2.4113269681203082 5.5880930994275975 -0.2971562763068818 0.15959840052334448 -0.6997439801764014
P 7.842663574827879 8.835576599423872 6.569424310055342 2.094409579439896 -0.7956024193386234 -1.565822136938084
P 3.738917752131437 5.686795354141584 0.9385624359225603 0.378043181760936 0.45860175734129405 0.1255798774860547
P 7.377455440567307 4.275304815399831 11.074896042434178 0.5746454132021394 0.031033729377353006 0.17741717387232026
Ni 0.8375598241356581 3.0755271559700144 0.7040860716924743 0.24175980181444817 -0.6512617163052977 -0.5243962872386002
Ni 2.311356353094678 4.885634586198121 3.7665183147457926 -1.555709216873798 0.25863832273734166 0.3081554556308629
Ni 1.44113834470579 5.815864741687474 6.7047359286874455 0.9271200024653516 1.2695318081759233 0.33971703248722784
Ni 6.424807970398932 8.841969582065836 4.577207139351709 1.384446492638648 0.07482321575847758 -0.3246346842328086
Ni 3.910737303079333 6.523968993736279 5.131640652747555 -0.9718047469672362 0.9238235911022671 0.1210115413890819
Ni 4.761757752239153 3.6365555846473145 7.983345484992263 -2.86693094858934 0.44900408635052996 0.42645396896415594
Ni 3.195514227564586 3.6927058863381506 1.3184144809787568 -1.0665522124534663 -0.995644272588995 0.4817242022913704
Ni 4.683022634140684 1.3266695245037718 3.0422054787584556 0.3244796467121831 1.0443383953605885 0.49616943118242285
Ni 2.2625575161595197 5.006794169892965 9.045415320505688 0.6492097188722755 -2.53841055614888 0.8521885432637839
Ni 2.099708613343869 8.719218731949193 6.200300750716641 0.5877058459305233 0.39421490642479207 -1.0462240424190756
Ni 7.87993270944369 6.714390542211516 3.791469558352627 -0.14850486171334426 0.5752863892202479 -1.0778894918431565
Ni 6.310581097138241 0.9260630847075899 6.423488429003545 -0.6946413688425133 -0.15200490444680273 0.1478217196033906
Ni 4.866269525240442 6.279053549553131 11.574631866352304 0.5112090991243647 -0.0838264476983524 0.32836484069920224
Ni 5.6011740538669095 8.745125665974266 10.207126350978479 -0.5142679405553466 -0.6762572099083709 1.4703915293418999
Ni 1.904690072983436 1.3953917614919764 2.197712013623487 2.451186395622888 1.854595074277277 0.02978751567507773
Ni 2.9567963473400214 1.9012190649405651 7.741050512296708 0.07801035523720758 -0.2743611327892372 -1.1134146813329597
Ni 8.582621072267425 2.5064400330162373 11.116831030756947 -0.24857733895691383 -0.4870191321417225 -0.00673706161351743
Ni 3.806467477019369 8.288134422067193 11.654389675560456 -0.034819678782346486 0.6277091257963383 -0.6930423997865096
Ni 2.5123305104723697 7.0777483198253845 8.8807108707631 -0.544400755384985 3.0951574918040436 0.4467001208077016
Ni 3.7999628265583323 0.09427927851351314 1.2004523191700534 2.598496465697183 -0.4121249539359934 1.6342253081028306
Ni 1.225172782617469 8.268611165032494 11.99789291494304 0.6728170738785703 -1.5485538367759395 0.6649114458782485
Ni 8.638994709596409 8.394479408431607 13.357649614238316 -0.9625266640994197 4.8044613262092675 0.4839327799069149
Ni 1.1550733091940237 3.1699888252546815 8.46826391988448 -0.3414512415695152 -0.8377739105003507 1.4516134774034484
Ni 7.41800016454261 6.749454237400624 12.587274733448282 -0.3560072850068191 -0.9007924203144163 0.44225391211089
Ni 6.092800932989974 3.068966671599441 12.351012614678178 1.2045240358459708 0.5012766705020012 1.626232519705341
P 4.332032067489215 9.057888615896209 5.593608559124674 0.7476320621069318 0.08913294751293036 -2.4260942285409506
Ni 0.9037276597625542 4.152107294006894 11.123545058378747 0.38735494608016513 0.07632731110782985 -1.526986137907493
P 0.469249578745876 1.1105922945963775 12.751787486768128 -0.7317321030472236 0.05382527335057182 1.0462096442413724
Ni 0.6284236797488463 2.6984900705196315 3.5725047847570215 -1.0108101816961559 0.641200989635186 0.256961449255551
P 7.484377377330269 5.622372328187712 1.8602276696889686 0.2180999963036631 -0.5885980187274896 -0.42708697456246447
P 4.382217446511204 2.1376291435709422 13.77870429283719 0.054930847709924756 0.061701590774855035 -0.33522325838193234
P 1.0737977482116299 1.0082301271122545 4.950647590462765 -0.7060879201165582 0.435531762895708 0.46780939198249105
Ni 9.051197852403384 8.028181044915467 9.810028141831525 -0.2490607063512356 -1.639772463173305 1.2658355902712586
