# total energy = -340862.02242453163 ev
CRYSTAL
PRIMVEC
9.36338208477311 0.00000000000000 0.00000000000000

0.00000000000000 9.36338208477311 0.00000000000000

0.00000000000000 0.00000000000000 13.70425614622935

PRIMCOORD
 96 1
Ni 5.504254849373777 7.007583311421612 8.005670225565453 -2.3972217684809745 3.006325363360984 4.56660651587618
Ni 4.660904380072568 8.722964289632216 12.942861796211522 -0.2431016605543233 -0.23752030981180383 1.861145473801285
Ni 2.2967814677277523 2.0997290898125542 5.306370066783043 0.5816087318938499 -1.0370346626103237 -1.1315754114023866
Ni 3.4023628182783336 6.966993049684269 9.643712476008599 -0.8536088206500784 -0.4027057175046226 0.5106609399303785
Ni 6.187959652556948 3.53820676690241 11.548644826672398 0.2637591889036748 0.1749748829794148 -1.2618506374815817
Ni 1.412353840815995 1.1909660326227454 1.714086958793741 1.188968347499559 0.4954387236639854 -0.7471741486339067
Ni 4.963547618797919 6.791317273279188 11.72552567036366 -0.3023187943444277 0.206156965009174 0.5542465378308132
Ni 8.9789591583517 5.2247953449187055 9.568010467445683 0.9736567125743103 0.111714175247556 0.7153264079956906
Ni 6.476651451838554 8.927226471823714 0.734745535768276 -0.16429966265375576 -0.029188962859130377 0.36839923091326876
Ni 7.888874205304071 2.05682607267749 3.4246935484322876 1.0693194907859584 1.2865975054089582 -1.4752272601676464
Ni 7.407783629049241 5.906000125060614 11.66761221526063 0.845532471399847 -0.9674151025399726 0.1379805651432527
Ni 3.0449812473461755 1.9364878849385434 9.456224792987218 -0.7623241169014677 0.9583501641242268 0.3744132983178326
Ni 1.017958820138112 1.6257453206300772 7.473561388842745 -0.16283953316846148 0.5121303253870535 1.327691447235791
Ni 5.553487512860502 5.241452801811608 10.234119602841814 -1.3577790106497907 0.9301641886083143 -0.6450396466549858
Ni 6.63116598452359 8.404768473110849 6.083497079299125 0.8212270618852631 -2.720201176498547 -1.0232700047260634
Ni 5.489067443482666 2.1972299884217708 9.847878215363673 -0.23203357566561975 -0.16605624033354627 -1.316122768561585
Ni 4.08360505194895 9.186816879299167 9.3646799417808 2.383540928559772 0.3660173609446535 0.984371527888653
Ni 4.844436034124161 4.377559072014036 8.121457809566373 0.874132908745359 -0.3614040305423582 -0.6494781420423138
Ni 4.100955399122952 4.682674243634119 5.364038201273037 -0.5124565983782207 -0.5760865165240401 0.41307291967155957
Ni 7.668600639589886 4.548319072776187 1.4255852361703294 -0.3701578654755883 -1.3027108660310533 0.3932857097423033
Ni 2.3106205465853744 4.141011948076206 13.37688920463004 0.7759807884529539 0.22880581275694142 -0.37358411754831794
Ni 1.2609198608671952 5.808780127916709 1.429176093235213 -0.7861222477623301 0.1010286705092518 0.0977883091950832
Ni 8.253456217130351 5.598394293781446 4.831407824163069 0.2256721522239662 -1.288348169551478 1.3243302440730418
Ni 5.234448991943204 7.787749677792351 2.7412078483920586 -1.2371011984510436 0.26866716772825344 0.0972936289468518
P 4.611606172910604 2.131470955392622 4.898243646142574 -0.42008071844796036 -0.3234792304721268 -0.5124601979226465
P 3.8394829518299183 3.503187717560389 11.667050412330008 -0.0604134680910508 -1.625046726927356 0.24103886448802359
P 1.2253202818301991 1.2534759720364712 13.100254632577773 0.37483264524343834 3.7722371976137095 1.2049377263446217
P 6.9856168168343435 8.608084953702468 9.03028266507855 0.06958664994988661 0.06899143956804893 0.4519785955978216
P 6.95777948162209 7.832843726356836 12.399200418558818 -1.3194592891339856 1.2785975179226172 0.6152508454283275
P 4.970373524404961 5.659359275135966 1.072934045913997 -0.08937540254103962 1.3432849307986738 0.4416085652174072
P 2.4374007412621044 3.9884637256483413 2.003891127877975 -1.0869289763376058 0.8671176537697906 -1.787692913138089
P 8.370779395808299 7.318812771603282 6.369779680346585 1.0722968282467276 -1.25139010426989 0.44828572012726664
Ni 1.4035428981874276 5.792637657043541 11.550906083468146 0.14799552617709352 1.9208950830560916 0.2476517418188509
Ni 0.3203540761131681 3.7637987336931378 5.646386309129717 1.3777012034950145 -1.548776751420023 -1.4733521546321207
Ni 2.0168631575460063 9.062733338689416 8.698680357956137 -2.14125610747979 -0.9793895012930294 -0.04068256532102671
Ni 0.3917863824033678 9.25462649302508 3.387500321748764 1.2155293858175389 2.8061444134295868 -2.174304553294326
Ni 3.462662999498285 2.5009781062440095 2.973659428965664 -0.699813399961756 -1.1198987463954067 0.5784874126560489
Ni 4.443702003712442 9.037901649155984 5.759336788331002 -0.6544948785306148 0.5326886091543793 -0.17108017591069893
Ni 9.02685285818711 0.2544368019252279 12.248014568237707 -2.38187279682873 1.9836446554794869 1.4052297479325864
Ni 0.1817610384819211 1.1723235387083164 9.861706058162682 -0.8590207356942688 1.4940266522623369 -1.5147795685389718
Ni 7.476754302165106 8.900372291740045 3.1670806872726174 -0.6526251723117277 0.002100077062138319 -0.5765241182820909
Ni 5.6122614627856 1.3943199667430717 2.983019065789805 -0.6863655019869663 -2.0060916716290937 0.2595034989511144
Ni 5.3601523976695775 3.840878095774293 2.381470450504164 -1.2724075870618214 -0.20047456991241602 -1.137840932696124
Ni 7.526857760194292 1.7107086505042757 8.456581684725558 -0.07644429630166835 0.12031194421889602 0.5008709504231502
Ni 0.5153399555818996 3.7334801022039756 11.252524119971552 -0.5353820968261425 -1.6438016389373562 -0.0027328255501307772
Ni 6.258681278139914 3.6007635232270214 5.435806652983391 0.32586341443358724 0.058253484325254505 -0.080054639360746
Ni 4.929071645622165 3.967920465151979 13.380451971548394 0.6869445144188879 1.0112691236104456 1.8622502768296896
Ni 6.913528137453535 0.8921336904434373 5.049250655864102 -1.5445069204000754 0.7624914957172675 0.02801242605252595
Ni -0.07992395758653105 7.651793368582151 4.519375922128828 0.22574080067837252 -2.134246508931176 1.4310791048955225
Ni 9.42733407728005 3.992611703952757 3.0225559470322336 -0.3537308302678166 0.17526927429138203 -0.10528950266813479
Ni 7.667767298576131 6.625079786108532 8.298530602592264 1.0734751648255447 0.08069690093043522 0.21323264090903274
Ni 5.979821030144169 5.926196940416427 6.403259389658706 1.9557435581938447 -2.518769899099817 -3.3698333276202224
Ni 3.5789000258437 6.905522445692192 6.658665301639254 -1.0710027920256524 0.05501415145235041 1.2328539931389155
Ni 4.996263276124396 2.257651893610023 7.070587637414285 -0.4372821699279114 -0.08987368233369683 -0.10840053749329073
Ni 1.0961149711696234 6.009512315027472 6.447647439207044 -0.07801626877447854 0.36099959601508796 -0.21239009040307938
Ni 8.394815197856687 8.246349410057999 10.748385578488012 0.8793116247328211 -2.7037031788435244 -2.720856036473727
P 0.97485917197733 7.289037216280388 9.487497553120217 -0.8147195997840485 -0.4686797104025864 0.4048032234635996
P 8.989727047855261 5.175047695412245 13.199103858220477 0.9299168484841985 -0.2557769420291466 -0.20505241909108554
P 4.74588643671112 6.804547732295304 4.854404290789807 0.44532380928546533 0.6550780047275945 -1.4539850629594187
P 8.91567205821728 7.4674377368989795 1.9172526889323094 0.5434317066034963 0.41577643464565167 0.08362590165177211
P 6.948303738858955 4.255273300782272 9.092540729511715 0.8058572642974121 -0.4731043218328433 -0.6491431273003981
P 0.8267370203045389 2.0726408251744615 3.665779103711315 0.031137344834752827 -0.7651746989763853 0.6653349065689123
P 7.644546110777144 2.247567531005382 6.427118223783948 1.5409546842724429 0.7264857670466198 0.35863469532733716
P 0.6415864374745398 3.3662763433681326 8.630570179662342 0.021278192652485935 0.6605174305756109 1.0145197693372594
Ni 4.179476722059367 0.9783517135293551 11.596898080383406 -1.1652841165087415 1.7779895698073962 -2.0180892103106016
Ni 0.3302539800889219 3.3825967185026635 0.6979184173278739 1.0611184430324048 -0.861468168793497 -0.005439425848016439
Ni 1.6384701570086353 0.23298154800482473 11.154277896141046 2.576505049027756 -0.505567070347239 0.15324777571496834
Ni 6.195113276540185 1.471614686614298 12.811766955027625 0.009674032754654307 0.696120267380885 2.3656236819597196
Ni 7.218147049818237 6.552860019377246 3.0086185526617526 0.21455495926488213 -0.3229848073342115 -0.33051325450077274
Ni 8.368129558652205 0.9303840429747451 0.9480415090841526 0.4882301217306882 0.684971192742601 0.1885035135934689
Ni 2.520669298962264 3.5189837432930062 7.018196705119254 -0.07116042219490971 0.9205428634684663 2.0742976391813697
Ni 8.452821350443271 4.501043356164458 7.307041127530344 -1.4903234923791364 -0.5083752292199953 0.9235690518892997
Ni 3.049672301816858 4.409385208033696 9.978658446906422 -0.8370254623701003 -0.17236906992545153 0.4474074312873714
Ni 2.614406117936322 7.289926737587204 4.477715425808653 -1.1041491968706338 -1.4083829488495874 -0.1570136705153038
Ni 8.976721310011394 8.853414930122335 7.90357377898376 0.11078857810949308 -0.19149319234941214 0.21584436750026695
Ni 5.678966197414628 0.13146469477988845 7.669313192973555 -0.5839530637563104 0.8392188704769935 1.688530092192982
Ni 1.7586959841614573 8.723488639034128 13.56426733607995 0.3932422580988776 -1.2973606574627334 1.1438305746206558
Ni 3.7233208325419187 2.0158612756530663 0.028791463856091326 -0.9472779654704654 -0.9311574057595189 0.6949023358133838
Ni 6.5059026577595365 0.2940935344595228 10.99759667682025 -0.43283981788584164 -1.3796652691999207 -1.3460056721639466
Ni 9.382577110473939 0.7626212608474556 5.734449854842724 -2.4511010349979334 0.4907258915693485 -1.982774594169708
Ni 3.719210307766211 5.5352757345262145 3.0934067872892412 -0.5722213771416791 0.5187105497077324 -0.9489316990238044
Ni 7.848817656350818 3.252202258305607 12.995609473367496 0.6714615882919404 -0.34786151597123316 0.31562553875566285
Ni 9.066066702744433 7.4793947759390225 13.243231605744295 -0.049113212586883156 -1.2968490079336374 0.7444148407212148
Ni 2.278270061163801 8.126451301281373 2.1746595556840855 0.0014853262962748611 -0.6887345164397751 -0.7461202534480957
Ni 3.114036190901632 6.610295005651032 13.77839665040958 0.7006865465953288 -0.04066045383383965 -0.2567120522489063
Ni 1.9281451114188266 9.036028972720581 6.066874266920276 0.8516756081831074 -0.6779921903216065 0.5485458879016101
Ni 7.024849388156021 6.584714245543438 0.633459958083112 -1.0599421633361166 0.6153243789787403 -0.8926201689162692
Ni 3.1567238502466255 0.05261190811440747 3.930024048466962 -0.03577561493771258 1.8978698258055118 -1.4853152405312677
P 1.247165052449166 5.297586277962789 4.145345321347727 0.6715945143253789 2.025540524382324 1.704105063813104
P 3.1230718547024474 1.0969764023299082 7.467627813557172 1.1165989925982125 -0.47818430745891194 -0.9035964654221147
P 2.9889975853098263 5.377409111021809 8.133956052096247 -0.7222506459193497 1.49337359205937 -1.9406871780813546
P 7.9240056152322165 1.9921063750699892 11.027115675471492 -0.41295079227139847 0.65274190039525 0.6304170116458045
P 3.8320016094704865 0.141728834322328 1.377455579104057 0.3097569957900278 -0.2849383940844512 0.6104017448661424
P 2.776411356362967 7.9589591208989985 11.869859397607634 2.1130832445899994 -2.2999854751346196 -0.5546028927289675
P 6.6517279717843065 2.309974473215161 1.4093865850041 1.1236029347198715 -0.03295794298325937 -2.0872922516688246
P 6.937020863335658 4.374057167079834 3.5542265774690582 2.411553097501982 0.5119452059594408 0.7104212573845894
