# total energy = -381179.1114341477 ev
CRYSTAL
PRIMVEC
9.11136780147988 0.00000000000000 0.00000000000000

0.00000000000000 9.11136780147988 0.00000000000000

0.00000000000000 0.00000000000000 13.33540776864712

PRIMCOORD
 96 1
Ni 7.112023981915188 0.4924821899187136 7.522263320786893 -1.139685956324663 -0.5753046440526931 -0.3686113469240749
Ni 0.5864686830283926 7.6729744569174185 1.3161944921233248 1.2705697625221344 0.31882219131608963 -0.318658926265348
Ni 8.859092327751812 2.3018413134150886 7.154633293813768 0.18971373185148618 -1.1095927364837084 0.7286064129340485
Ni 0.5466638501637882 4.50611809955337 7.631506799414411 0.7289411705656478 -0.9154006571458944 0.4531708161337098
Ni 2.340482624601205 6.033055797369107 0.6116607040843922 0.26605672668859986 0.06301850981406565 -0.5944783887676665
Ni 6.837935813299117 4.995380332062705 1.9183921295258255 0.7892232552851569 -1.5729201814354459 1.5316004967510528
Ni -0.06355725779530186 8.112178834284919 3.8476386316090716 0.434224099827878 0.024926588038350617 -0.6768562769449504
Ni 0.10283727586992279 -0.46793980939267643 8.484960428658333 1.4990176777190247 1.3384790247695981 -2.0802728829281976
Ni 2.829489738809854 8.698568248412741 0.7357839575994473 0.8115026355086477 -0.9448099635459469 0.36623436205146603
Ni 4.316209858795947 3.3678531328334502 5.674029635086632 1.3411151768408645 1.2033876082486823 0.477202660271933
Ni 2.6977484706089436 1.509917662612798 12.840863961630728 2.238135274597042 1.5363655222398638 -0.795921493240939
Ni 5.990332593372007 1.211237912084128 10.689569779724295 0.307593926700438 -2.2494625266844035 0.4037992076791175
Ni 6.784825649916924 -0.11946643339073898 3.1632118102113846 0.0018059428604872126 -0.2805963150656716 0.48637944167519465
Ni 3.6962450540242107 4.288474854964177 12.626203778885992 0.028174148441370835 0.8005520500344149 0.36253274483016273
Ni 6.179448145123724 1.425036159427261 1.1974733686253054 0.39803736549467583 0.13730873588720868 -0.29614480432323187
Ni 7.633221558849739 4.932967462073339 5.885169185281897 -2.0800664233443467 0.9098499025309944 2.0048197468952056
Ni 5.673202322882977 2.45187820832237 8.800395984721375 0.42417031513630177 0.23990655065579325 -1.3621393445010153
Ni 9.247673945168813 4.669922271329839 10.008197088840541 0.11711426321720475 0.5930413992108238 -0.1986740263685675
Ni 8.23442605715314 6.411505573701703 11.560945469591443 2.084041605942011 -0.10537614884467013 -0.6328701011719875
Ni 3.119531912586711 5.449700468745878 6.357749414336702 0.1273649944109355 -0.6409845027490058 -0.44055698402444127
Ni 1.6225159468943422 7.043424493134176 7.263663566432854 0.0231772094474117 0.522750524105061 2.7998863483350167
Ni 2.4391951842311004 8.62119451236169 3.098535676440215 -3.400207569036705 0.42572994631393785 0.20768574294887457
Ni 5.333166073539457 6.3714975573333374 5.547930125878046 0.8719644403391307 -1.435567479684179 2.3075393762224774
Ni 4.379843652081455 0.5163257285282276 2.7491611861547818 1.1732571074118892 0.8744972340633133 -0.9847042286377233
P 0.5118675362237317 2.062248783598978 11.41529569831918 0.3374462341751801 0.3995453174987699 -0.44557037807863265
Ni 1.0920612201920257 3.384408488274425 0.04849798896049554 0.6989407675488156 -0.8978050555513184 0.8444194408413264
P 3.4216375374388845 3.2055887822289817 8.304878798161281 -0.35507140345611105 -0.24979655607599563 -1.889969854232145
Ni 4.102739620696554 8.012910481214242 6.876109711312904 -0.5325435989360828 -1.1515168875213202 1.3073000280636327
P 0.9297604241160304 8.848969598035287 6.08764018007455 -0.7696597313309325 1.3073380803904193 -0.15802180006484398
P 7.6305974848998215 3.7095567624993153 8.348552317828437 -0.28695928116922187 0.3100974098485821 0.33106424190823625
P 6.226736144429537 4.498346102750315 4.313644097600472 -0.11894900243309839 0.05794340928400343 -0.4318903094883788
Ni 3.619135547641729 8.538855080815136 11.189526935853124 0.1749509717200148 0.22785604724916245 -0.794067984971968
Ni 2.8619990994116136 5.31440576707112 8.93877761783444 -2.902294158579982 -0.598756190207414 -1.6855769231019293
Ni 2.883948384638531 6.191684712188794 11.235000861813695 -0.4081420580288455 -0.3868664364795208 0.8166618111120839
Ni 4.157453384825917 7.936384102376185 4.421528160140046 1.0686983122621916 -0.002364900687750766 -0.2736473945516642
Ni 1.5989083927129633 5.89797976852351 2.8915427097678936 0.06986638597383452 0.6250680886290655 1.0073286509054586
Ni 6.572157212191118 2.732891016528503 6.40847695501784 0.662959207247884 1.0583519360308613 0.7413107478745943
Ni 5.604138154340001 7.807184905814259 1.2546809141438788 0.3221985639874903 0.606340430312575 2.8350315287775825
Ni -0.08090439110519279 5.271664340338257 1.1435522935016462 0.8772226034142764 0.736441592707751 0.03551567640810657
Ni 6.902781418512885 6.19946582035973 -0.07742475971118713 -1.1826645167687178 -0.8375749071156671 0.6883838179685758
Ni 0.7031515935312849 0.5983061721802443 13.17139614313689 -1.452646546653653 1.1568956353347302 0.39086218790247523
Ni 3.232312424225888 2.3312072520976757 3.9544284188660583 -0.7226679359624264 -0.6711340297491926 0.681084198983369
Ni 4.596293307478152 6.984546833882895 12.91434258791237 -2.362711650519247 -1.8306341925863052 -1.6769755545861635
Ni 4.428051899543314 4.065118782713183 10.020891957710058 1.369586287697364 1.2762218186015892 2.378418519731543
Ni 7.458492856983161 8.54514192465348 13.241926330772028 0.6323594800841561 0.42347328906927717 0.5103855747818049
Ni 5.264502805183272 8.757090564316638 9.075652230699875 -0.7483054340248726 1.1977766898198081 0.36856815239096524
Ni 4.776261045876684 5.005958630173311 1.1549251028915333 -0.9881407651230981 0.9981768092028614 0.663187006987974
Ni 5.295718351545837 2.723150964263009 12.058195638322628 -0.2980286516095061 0.7089935237991274 1.140621580765055
Ni 2.185042688540099 0.9679370555401825 7.895228053654731 0.9472129165604849 -2.2180914685722892 -1.2159482185225123
Ni 5.1220101228820045 2.9695952427261267 2.7193433236252638 1.0311231822218951 0.9400827332736069 0.6639804494235468
Ni 5.05850388874684 0.20922342952975187 12.913675635783433 -0.31530826462556016 0.9194727703327392 -0.924715506788917
Ni 3.549479140186445 1.986724655227905 10.089302841175918 -0.08636104119474805 -1.8436660860695988 0.5213865538779987
Ni 8.006231848556984 1.5825899328369115 9.465059338046954 1.2290875841179478 -0.5512650866049861 -0.006683582667762682
Ni 8.32492927432166 5.619609257003058 3.7512904719444666 0.1863234752230146 0.26493521148964694 -0.5257810834012687
Ni 2.1058466789127173 3.8495073731616003 11.181086164647555 -1.06238059757428 -1.651919125838168 -1.57951866058857
Ni 6.17365331515099 7.147968328208334 7.728095499191092 0.9542330566320598 -0.6155300672316432 -0.41331974557504303
P 2.6846463235951177 7.888376305007723 9.070237344767806 1.3596304620362325 0.45182715762162184 0.0535913029628948
Ni 0.45144003329577975 3.359133553770702 2.620100482384655 -0.5056814844379162 0.5172463064573801 0.6231623869659204
P 7.801016509758375 7.155075195156027 1.9221523910505864 -1.5738023269300832 -0.12930180642233216 1.0656610680977645
Ni 7.415642093835717 2.195939884526563 3.293565417083918 0.5996177668767609 1.141927186950356 -0.05652416033897362
P 7.969977715755863 2.8532886317167474 1.2259764607694998 -0.2632683653101853 0.025005520905402097 -0.3630055707015232
P 5.918261673428082 8.698522691573332 5.524485665181747 1.007808932975987 -0.48921896800651876 0.8517997924657975
P 0.9191730146375425 5.291581790527564 12.251118830712093 0.013105941254338718 1.2455716978159 0.201986121460936
Ni 6.174919795286541 7.640064196128866 11.341164698097213 0.23252825591385115 1.077054654646687 -1.3341248615659604
Ni 4.1850334954037 5.115377047064157 3.707257053245984 -0.771516067813381 0.2444437764045145 0.5295521204079268
Ni 1.5341539011780114 0.45771776576624296 10.248380946432171 0.9878350609572212 0.47457962082678906 0.06908194239932619
Ni 5.943527496563924 6.743870051288868 3.44060193854777 1.030261091331916 -0.21809382565607602 -1.6041128049881663
Ni 0.7048636195562485 5.5837924698602555 5.7192101750014155 0.2132123291940586 -0.533697510034868 -1.7714967629942007
Ni 2.056207946693438 7.297786550286457 5.088738140788549 0.07974173610601751 0.035335956297132695 -1.4590115696397326
Ni 4.546882359455913 6.524030967040194 9.614949539931342 0.9859201033226958 1.8455807865938088 0.17822012938958984
Ni 0.9207766153847146 7.066084465055862 9.975311428745268 0.1985164177447807 -1.0509273614320158 0.009703857551325223
Ni 8.051478901457305 4.050677264620753 12.68031892614553 -0.6788134006713212 1.8652818645671618 1.1936528974594216
Ni 7.427140640102371 3.3720170279553687 10.729909449883554 -1.8490427770004803 0.40187705095574017 -2.1124121866649035
Ni 5.0819018814669406 4.903565077919225 7.814829343466971 0.5560565944563585 -0.5223689723959262 -0.6091640158042992
Ni 1.915501092496975 1.63134486237167 2.0890580724539722 0.4884363242042234 -0.837078684205539 -1.5509148808089483
Ni 1.3172213432835878 2.627618272023813 8.978303642841865 -0.4780516385357896 1.4767169573392953 1.6763392065537452
Ni 8.704982651401428 0.6576849566650173 1.837752879225989 -0.3523658315994899 0.9306845798881584 0.7094493803896234
Ni 4.693830500651313 1.2488040818602086 6.7528374595579965 -0.013908382550976046 0.14912835422995607 1.8497919964616787
Ni 8.89592958809736 3.2645393324233165 5.077936614164843 0.29112626806271796 0.8486090534426418 -1.0190690792708383
Ni 5.630196666481546 1.5457891179628902 4.693396799540145 -0.48075952438525593 -0.4369741517691894 -1.3145518245300394
Ni 8.411505491933186 6.289267462201364 8.14250693341581 -0.5638665774190805 0.3493445282746629 0.6214780572849619
Ni 0.9181980982742051 1.4834035820771696 4.355597391011572 0.8689374805873487 -1.5487880642739327 -0.7070960496660984
Ni 2.7619107232315874 3.9087494871281483 2.260858380683385 -0.11373146278790089 0.0871413710041983 -1.4720025825827616
Ni 6.702796004878347 5.588421044744138 9.915142688665156 0.07390224660610498 -0.5126442889089945 -0.8290442439368367
Ni 7.640629100937528 1.8366695375848598 12.401249572708554 0.34934632804687576 -1.9231427414396878 1.1507064758048828
Ni 1.5247965263635472 7.954342608470936 12.236169809428654 0.6573943115655969 -2.20116486802028 -0.16129841393358674
Ni 8.001056591600202 0.9318287046251672 5.33006911959648 -0.419807924402548 -0.9994363926415755 -0.1038399147058018
Ni 8.285713946959 7.487667456940234 6.032791567700539 -0.7613023605051727 0.33132649443068746 0.14160453504908516
P 7.486838322463003 8.216977787659761 9.385087039876057 -2.7990558820139215 -0.9327535466020452 0.9005427661974555
Ni 2.10042541502313 2.844669277700698 6.196163860639417 -0.24531435193492587 0.17258067171562536 0.8330721341493073
P 1.9269540819242208 4.263436816025377 4.4304627674848005 0.26251837451803817 -0.3176903917044916 0.03600598578096379
Ni 8.69934271468268 8.762475382734698 11.174685428710688 -1.850402119241852 0.48986148668652413 -0.4017091579193082
P 5.591746694020944 5.116771086350051 11.749640987283817 0.16849210346854854 0.12995666639751166 0.34294736649906743
P 4.135759217899687 2.7935362811488265 0.8763432076362272 -0.31959866447079793 -1.0086609965636373 -1.221418497608464
P 3.6358366849688104 7.048025733914414 2.446113445863644 0.8974021636859448 -1.102927408648391 -1.300703348682721
Ni 2.972993782945986 0.4013493772295702 5.540408691691735 -1.7561169381040207 1.6070785724847096 -0.9302418359237851
