# total energy = -340868.7995596859 ev
CRYSTAL
PRIMVEC
9.24691982313561 0.00000000000000 0.00000000000000

0.00000000000000 9.24691982313561 0.00000000000000

0.00000000000000 0.00000000000000 13.53380185414106

PRIMCOORD
 96 1
Ni 1.8216247064929165 9.04758394854287 2.217865391476513 -1.9902181949319466 -0.13824513165854901 0.0585959552663378
Ni 7.635403603814034 5.222022264807009 2.0615767271158023 -0.8568833776362921 -0.8229869819991633 0.10056484349895584
Ni 1.7469095945198874 0.28967178368820523 4.582098427061774 0.24308237728061363 2.2147518626760956 -0.23283781673447
Ni 9.417063122937218 3.785393064130561 12.067630728855352 -2.464008744198537 -0.006460668023679196 -0.9834155917332871
Ni 2.37023521122656 4.070309156966324 12.04007583254738 1.4055061415224244 1.1788597983106472 1.0967703879080595
Ni 4.054006837361318 8.987904328162434 2.7967734289304076 1.0458021243903084 0.12165585984130017 0.1437082116556493
Ni 8.653720646639506 2.918965925917585 7.79403543765172 -1.4716436565814461 0.37281895724751923 -0.6133430868826534
Ni 8.984353510959757 8.694268389956552 12.32835965357381 2.583413346111815 0.22667745356002897 0.48155399526209325
Ni 5.117901947874298 3.6697140974495466 8.280846003295098 3.0244444415591976 -2.138553363836646 -0.40936178936855955
Ni 9.119312305420939 7.0340949031479285 1.990984816680988 0.6682240551912492 1.8183417483721975 -1.514701664113185
Ni 7.524329603192743 3.4255214394070035 9.95791453726782 -1.3692155346215065 -2.997165808348903 0.36176887008094466
Ni 4.4077847419375695 0.5901976018360566 6.452713314647896 -1.444886700202576 -1.4574028303917157 0.14265740179363173
Ni 6.270021920186123 5.363500137726234 9.11903489782698 -0.9871868858502612 1.6020867756970731 1.7795528005294579
Ni 5.154649207154102 5.890537578569646 5.402774580187008 0.3875035558428875 0.7321553066275713 2.3011003054653534
Ni 1.7492860529081384 8.79670576748591 6.825935642176733 0.1876905307738703 0.1540946970962959 -0.6308201606214943
Ni 7.8785236191599335 6.043999459547911 7.612263187017931 0.3654756295085706 -0.6505695753342796 -0.6445063998593351
Ni 1.3319818093152147 5.781386937266473 0.10652174200441858 -0.8394914074120897 0.8264949951524218 -0.4143178478222542
Ni 7.702970846782711 1.9389773656574845 2.0755303290919533 -0.30983772842929225 3.071930145844987 -1.1409982473781832
Ni 1.0592808975334573 6.333871901395748 7.616011888304301 1.9664686579208326 -1.6188992192687217 1.5504515680192845
Ni 8.092876467012259 8.73126531607092 4.896989335116816 0.3134591272319634 -2.3594360650917685 0.11670674336614094
Ni 6.553763654207459 8.653258300649574 6.946859461767537 -0.8924864715518823 0.5799547412301947 -1.57635543236924
Ni 1.4651282074958636 0.5016971818272118 11.255305469000275 0.8129902757977677 1.0542427989584942 0.02750514739880424
Ni 7.7726278936258835 8.904672803054856 0.8614347262136887 -0.3705676993194973 1.4445786820438542 0.5405327877891466
Ni 0.14459223550740838 3.8752546307337656 0.8214935808354336 -0.25165880609571495 -1.2095474572024911 1.109289603420993
P 5.203796585883886 3.93985361244708 2.1533764481088027 0.9398873294333491 0.5270782049461374 1.4404381775129191
P 8.679353108321342 8.629752630521425 10.205298307332875 -0.5159635830902146 0.2730508986182459 -0.8172012285553215
P 5.507613382788073 8.056388121486817 4.296752352455374 0.7353211059500626 -0.2257587984005015 -0.1354192321739797
P 5.348473893053441 3.0143663974801767 10.419674272484697 0.7466774115031463 -1.7805226206418947 -0.28816538566218114
P 3.026812751529149 0.44861523872310627 8.548125445998911 -0.03674106417477543 -0.805207032307923 -0.5572236181812661
P 8.111213108972965 6.279472272220335 0.13112224743672626 0.238194453060693 -0.5176687387067794 -0.08931909538180745
P 7.766071827488646 2.30587664942801 13.384808219572943 1.8266803501448798 -0.46130501520507006 -1.006423879703002
P 8.6571605008046 0.46779150100153044 3.036524791393663 1.9751929251677078 -2.691187562875017 -0.2266939086202612
Ni 2.422008715179157 7.483892822913281 12.110303414342129 0.6389327624262996 0.16055485089934285 -0.2606106159723641
Ni 1.1897919235714935 7.46312424104553 4.003785891242912 -0.6248264049319046 -1.4673267743736471 0.5708121554989782
Ni 7.537561945424599 0.9862117372845867 8.879053287060739 -0.26885125871460147 -0.19792609245894946 -0.18021581966337993
Ni 1.4003997689053682 8.091868552754207 9.45934281433255 1.9575818969541638 -0.4170550442477592 -0.274494830153624
Ni 8.113108727531687 6.100303954201844 4.197156553380139 -0.14989042920696122 0.87522665603017 0.844408642208049
Ni 0.7088808927596494 1.0920057467008522 8.872327077599206 0.8785469786526546 0.9303526504700365 0.9257840572627475
Ni 4.928451055039717 7.872670318927393 12.586719517439853 -3.8481019672628247 -0.1920413515433983 -1.9896466386991927
Ni 3.077402649747521 7.23899739896604 1.3630431376108336 -0.062318398423247504 -0.2538758683516918 -0.08876245154738907
Ni 4.288462488855891 3.3359742680769524 0.3811866995514073 -0.8288907490781079 0.8345230076632209 -1.3445406575826457
Ni 0.6209167940991258 6.386930727200356 10.896848623005909 -0.8484640432243453 -0.9545590725129107 0.33363277396636093
Ni 8.464991013549218 1.7210459598430852 4.868730748212165 -0.08746430156125581 2.234409746116339 -1.1413324907891507
Ni 1.382728905170163 3.094250537620647 4.508406949110455 0.8397426041909474 0.4844043202266947 0.9808450027926332
Ni 3.7538055860983985 2.1743854498913175 11.76596291611237 -0.005055303035720326 0.03179863256783556 -1.3584035316076668
Ni 6.032320599842227 1.9920361914620937 5.668335020500253 0.49986539197677143 0.05239831109605815 -0.15473053090808192
Ni 3.6637590810992213 9.138157527970572 10.627485849271462 0.3096680356206473 0.6484371023723091 0.025403527674769152
Ni 5.145762917227606 1.2482417036187108 8.857832530814834 -0.6888694993557426 0.18740488121265142 0.05593872014914883
Ni 8.38298008185506 1.4204285971892272 11.088622342093911 0.288674978308748 0.9147486253841924 1.0745282886804075
Ni 2.405207061905024 5.819077382365739 5.59848748710923 -0.4995794853052364 -0.5022650025571995 -0.9516640103533031
Ni 0.9376561614219165 1.6166759760758105 6.571513116760952 0.8817122637545137 1.5271283199123118 -0.665606157952428
Ni 6.853317621084472 7.483522946121335 2.3626092764686195 -0.1525656620462792 1.3043075210942119 2.0155337908786
Ni 6.579072473696343 4.013218674129507 0.32639315159257315 0.13142708029545108 0.32717159172204946 -0.4721237030871288
Ni 3.607574796402671 5.02928871544391 7.497279588705775 -1.3346555372584499 1.800265607596777 -0.015172851085696451
Ni 0.7846834425009988 5.193181121955044 2.87650129612628 0.15519590058027463 -0.17550735844411708 1.3746696157575422
Ni 4.955452060851751 4.744289400329959 11.567610938279616 0.3085483201939073 1.354208776800029 2.5442083937775797
P 1.3937789743295403 2.6772514423810776 10.667586041670255 0.6293967979114065 -1.596614182618276 -0.10790225770063352
P 6.638502427242216 3.908682245805857 6.575600255311953 0.2727837609997883 0.16269298028826817 -0.47226794197447697
P 8.358105867596713 5.202733190107041 9.699215311445167 1.8414001728535578 2.3771957030680353 -0.38494222287361446
P 3.641862375016036 2.1452391586859973 4.480284291926845 0.3257839673459034 -1.011422104248542 0.8816081340764818
P 8.748020734746058 3.5750533794708463 3.468889493262635 -0.9841337008462341 0.36016630148051515 -0.2947810912064859
P 5.766665840947035 6.969218513840654 10.842456391366337 2.640747146836278 -1.1118740763187174 1.662112264321086
P 3.5320552024071605 5.761311874383622 13.333758749440577 0.33393333592591523 -0.6848122985672335 -0.7612897620996825
P 1.6805536980448308 3.94264618222627 6.6660203358709955 0.021419860436672787 -0.13004356968436312 0.5673774187858164
Ni 3.6305811328616926 4.269580278627063 9.865748638250793 -1.811364802833732 1.0912918812919916 0.23498803030825335
Ni 6.418952810463054 4.024943768434185 4.2369192332062795 0.9698057142593363 -0.352659965801141 -0.12531711074297128
Ni 6.33950327555312 8.131038505021255 9.117965953898256 0.45955075151812463 -0.7255030914183763 0.719090245913497
Ni 7.299546229807549 5.249272937453608 11.678101458261612 0.6198155819808744 0.9796813215018353 0.4183210554443763
Ni 5.394948911961416 6.616319066645274 0.8702156012544794 0.2500390111041048 -1.4147929661409893 -0.4757890677538581
Ni 5.229854405876459 6.015602168846281 3.1627415478772094 -0.39887580223557106 0.20036272692490012 -0.7340656362764068
Ni 2.4024699736446262 2.016420318971113 2.7185750022692297 0.599697985295393 -0.25656627069966137 -0.8974373877992544
Ni 9.013795703598634 8.33251964051387 7.772516930588299 -2.4206038948503408 0.18753137948818674 0.5200763197070075
Ni 3.8473566737012623 2.8176011910848695 6.663881523321569 -0.5487893713709839 -0.08810142092462248 -3.193487789545526
Ni 0.5023814538923114 1.229267024191897 0.6121220486786373 -0.37303724390591236 0.7486450767524784 -0.316613613700545
Ni 5.1599291983591264 1.6128292574395753 1.851789083568067 -0.6145792732825996 1.294890598655686 0.09437799796195359
Ni 2.9901209737681365 0.6791631419107731 13.518630567590872 1.391171212956991 -0.2365672018699152 0.1806955875132759
Ni 2.6321449676033013 4.468278091260287 1.853927896117493 1.1039941593500084 -0.6010154185552359 -1.1634825445236283
Ni 2.7744365694648074 2.6627892598160017 8.55930404734349 -1.3017454167939904 -1.7397791201759456 0.336934070425452
Ni 3.4085533415764955 7.603945582659052 7.455026713377859 1.9265718217258947 -1.0002722582793095 0.31949144946897234
Ni 8.791277825564107 4.2789196676236925 5.681801309803016 -0.3516230398961944 -0.05829873574089314 0.3641839072803405
Ni 6.137596781749768 0.42257591257012983 10.998121813332618 -0.2667560667484696 0.2337173911259459 0.05027612254673277
Ni 5.728124679226294 1.6567336326435287 13.0215744148106 0.5334373143949458 -0.01592232765721129 -0.6714489898864501
Ni 3.9346660904400417 4.307927255032033 4.1545116086527605 -0.7873864591867342 -1.4006673253728845 -0.3425843267326939
Ni 7.114765031471283 7.825714460189888 12.389424462540081 -1.189800613592867 -2.35289235043598 -0.046711030903293746
Ni 0.9430656095041221 4.083643215315966 9.094498196141283 0.2175001579361351 1.2404567451868378 -0.04690386364039019
Ni 4.203242875991605 7.116614415431011 9.627297392711228 -1.4152861037273239 -0.8539888296973164 -0.9611765778294284
Ni 3.4487312081015955 7.8602886933170115 4.956051261254704 0.22913491396158603 0.004963000432230162 0.09762221593086413
Ni 6.416391413678831 0.6751231626507462 3.502358719473821 -0.3610024242285653 -0.9944044866446228 1.4854417388068029
P 5.803218914911068 6.6897118690870965 7.398225659130739 -1.7906370833680776 -0.21835170730315298 0.11827434496357696
P 2.4010644418352323 6.019966714991241 9.464742090802977 -1.1540998177571478 -0.12839240723418535 -0.14066891060869324
P 2.2578111603146676 2.6443601486573076 0.5569105399449044 -1.1040700068932663 0.6601343362045792 -0.34977158850975243
P 5.2813227614757015 9.112515819368937 0.5892793827000514 0.6470883016538984 0.03549742157566145 2.4352707528338966
P 9.17957448174869 6.9709291940034035 6.0590969055031545 -0.6163006268490806 0.012677081247036232 -3.1322263716318828
P 2.911133784848135 6.091944738703871 3.2700511274484723 -0.4922528697368361 1.135469090029838 1.421902580602577
P 1.4174325951744673 8.510106735246794 0.14060034023033452 -0.5734987011922058 -1.0711848261294712 0.44238863791654137
P 8.123372808508181 0.8012881363834204 6.75472048934749 0.38698367878367546 1.4941120128872911 0.4498836607420058
