# total energy = -340896.1479291953 ev
CRYSTAL
PRIMVEC
9.01924284858175 0.00000000000000 0.00000000000000
0.00000000000000 9.01924284858175 0.00000000000000
0.00000000000000 0.00000000000000 13.20057358794428
PRIMCOORD
 96 1
Ni 6.365718498670777 1.8992090335560166 11.504273397872241 0.6328878417838003 -0.04150120456758014 0.5454834469262024
Ni 4.602844340674461 0.6074820857666079 6.078798343781576 -0.8130249856904449 -0.9857766357662957 0.21493676808433304
Ni 2.849954484559898 1.577745178389383 4.637361885147504 -0.4951934404223988 -0.1728822621164442 0.39221664504784065
Ni 3.332808672040985 4.4139272790527695 4.837508806094373 1.5404818584010824 -0.07715057834007358 -0.9525988634627465
Ni 5.056259719355147 4.564638827782764 2.665855502491263 -0.2797517076771892 -0.3748161901832061 0.003271728772736301
Ni 7.1175896438998905 6.019289379178312 2.8743325961734407 0.563893574002274 0.48556748729686056 -1.389871263198645
Ni 5.367234195038059 4.641807469969109 11.486637170320678 -0.5014196238377687 -0.5315406115928653 0.467053230542757
Ni 5.597892312765221 7.978719897526081 12.359894697939827 0.2238024460050791 -0.6937078012846504 0.44235238536196725
Ni 1.9117277426905008 6.48616146825428 0.39497790013302714 -0.7152808994697359 -0.5589184893851857 -0.47454156850000206
Ni 2.6374070065604345 1.5252622039992072 0.21117384730696956 0.22741587438795027 -0.5134696130237673 1.1305842511337112
Ni 0.4854048293710235 8.75134432065033 4.638747240855758 -0.0012564981149204165 1.2433600348765619 0.13316231781900292
Ni 8.682825132397682 2.137217834240386 1.4680224809076432 0.15916157009624204 0.7901542517398585 -0.4311140934439865
Ni 6.636602439697506 0.7888220814344946 4.763348081412603 1.1563166229028086 -0.06676357867879469 0.3126227473735971
Ni 0.6923062613199202 7.483247789238695 2.4758200547509293 -1.1066593648869973 -0.686303024180147 0.18613784157476973
Ni 7.406521089954071 3.717199784867054 3.728581167472822 1.1282843993559406 -0.09991538284041501 1.1298779690953058
Ni 7.567397325423665 3.7238469668786647 12.623087930552307 0.7406340335225438 0.38380502394537774 -0.2747354854095204
Ni 7.9107057868754 8.951751897716786 6.945851534215126 -0.7152657299610843 -0.19829504576259396 -0.3392002407518093
Ni 7.020055551262778 0.4978739326696003 0.47689607562644687 -0.226641458115771 0.36961947647361504 -1.126153469055867
Ni 2.082371818212433 6.547384089007075 9.01212400386484 -0.7251138263997576 0.07101206954250351 0.9616368052952987
Ni -0.05347238533545875 4.668585602116288 1.3859942706509376 0.7165397115775015 0.4565327906274073 0.9074099256309339
Ni 6.3527127504201095 1.9406795123747187 7.110699844254479 -0.05976992096978093 0.7598100922303624 -0.38931464090969725
Ni 3.3721596287800013 4.312118065284717 0.3191711636234161 -0.566366718133115 0.008157596110127887 0.8107235912507779
Ni 5.857168488189585 5.5720702203646235 4.9434957331701295 -0.491960535307398 -0.04530026659869618 -0.6790957077984304
Ni 5.232973745343583 2.8482949438677188 9.586692166544651 -0.46992900942865523 0.03194955632340304 -1.0481873367930334
P 0.20261548772648535 5.325384908017882 12.536597900836792 0.8782325327360294 0.5426022687236656 -0.8212237194511535
P 4.117933765813934 6.104151435551772 12.584106762771876 -0.776800713251088 0.43032964986947825 -0.47496940006604005
P 2.274156999073869 8.438412669259794 1.4156296989463903 1.5127100876044528 0.030693058208482626 -0.7804113134204818
P 6.1562736402262574 7.951193168218843 5.868486736095107 1.3409254294275614 -0.8567046859665826 0.022605396104341712
P 4.656139046924941 1.0670395688569363 12.666412765709662 0.31176734135183726 0.595705062085916 -0.1914163163648897
P 4.1064522696120624 6.273009700981033 8.252668577287608 -0.16750557118556314 -0.31098469754954183 -1.5239740905540462
P 4.736798136110599 0.9769643900917387 3.6616150928462234 -0.5958783544389866 0.61943068783763 0.3474108015870597
P 0.19692073776429994 5.606171977740333 3.527945403561192 -0.7068991031639439 -0.6330683332257225 0.00513295035119116
Ni 1.5193455806618716 1.0391340313482227 2.592671561814727 -0.3111675029843093 0.8688595761615616 0.255601849903863
Ni 1.5969471465070464 6.448452013721659 4.887182286323603 1.644157222504562 0.14728307349110117 -0.19900518445574114
Ni 5.912212927561168 5.505463111605137 9.274670556761945 1.1111168864377188 0.6183312841258641 -0.33730250950846424
Ni 8.656326596780165 2.3409264542054156 10.282745021362024 0.2813388496586509 0.7982583689042317 -0.6196623442324618
Ni 2.6192512706182756 5.225731293301082 6.974483120776667 -0.9410396978702374 0.26356867015942353 0.003723471598174233
Ni 0.6826232021507687 -0.0254730477006656 8.900619103987585 0.662059321141434 -0.4722856825862899 1.1566495807621953
Ni 1.3898382719716273 1.0062408525200788 11.25986454243151 0.6817051203968195 -0.23861379998629872 -0.12371814168696758
Ni 4.065937830539942 6.927436946001958 1.4507434153746137 -0.22464782472450986 0.19139703309118006 0.7643522030750901
Ni 5.5569449500342705 7.907034955018243 7.952474802633836 0.2826562829184938 0.38001470366501006 1.2853260948957024
Ni 5.332906956590042 2.762215289703801 4.9996648721303805 -0.9847039715274073 1.043159544561139 -0.4826747391300978
Ni 0.681034011553149 7.521101551657593 6.920493030899192 0.40700434487997644 -0.9357992754069044 0.30584249122697005
Ni 5.092778633825986 4.479280713050229 7.148190131184818 0.2019508973476264 0.255471752083902 -0.132172700212224
Ni 8.051730668739085 7.168728751099117 8.896064386326984 -0.18283500245378187 0.41542033685781354 0.9074942578146241
Ni 4.719625497643698 0.40001514728836535 10.519207021890367 -1.1221890850914802 -0.3686622547666683 -0.5914416588238717
Ni 7.990553144200752 6.955694233983469 4.945555728246727 -0.1038460853533889 0.4916800279525016 0.06912282293959064
Ni 7.146631606013031 5.970540371345541 7.029054951820695 0.2234869716471893 0.7617227358720431 -0.3286556324667436
Ni 2.30933204635376 5.193415346018044 2.5811341463069226 -0.294831227718131 0.047746671256659705 -0.4413298576347238
Ni 2.4493197152848327 5.110862215825008 11.33502910884719 -0.4203771666424567 0.8085466382041173 0.25933380614246954
Ni 1.101042114560831 3.406586078899833 3.787917864536841 -1.0059374269848869 -0.3507573494617895 -0.8856632779824618
Ni 3.6799954079364 2.5973976450902816 2.5267616405308146 -0.13577095908644357 0.15507634428327485 -0.3674006144454253
Ni 1.1170061744801658 3.52656906709583 8.004075695069147 -0.32354762181621693 -0.38765062294371305 0.4126988241615924
Ni 3.5793316380156663 2.7387201619694124 7.005596802982165 0.019213339703657233 -0.11344787010921106 -0.2052827899343368
Ni 4.183819335142037 6.98283313584634 6.019765595203026 -0.7557516058902726 -0.028490394130209002 -0.3866196105760374
Ni 0.7177306051089675 7.075081952148577 11.328019353271312 0.9833101765036742 0.9425545918528669 -0.26311101379671464
P 0.33154105525017774 5.617599358484852 7.9890929287764925 -0.3163888992842486 -0.18779620311379916 -0.3928013139067171
P 8.68792100463182 1.6354412751712961 8.062527604405433 -0.7758314073592832 0.9940453035329913 -0.2543255542946007
P 1.9519535659900682 3.2508688503646237 10.294335650402893 -1.3091777047023194 0.0075225336292902715 0.06994788994404727
P 3.966545773867019 6.184251331678109 3.6623140841703754 0.13587560298510792 0.2575965117363886 0.704340084187516
P 7.006779225725342 3.851487292290207 10.299179885760335 0.31744048047721457 0.39148388064687417 0.5638552645651708
P 6.365700460184992 7.831480757309615 10.220042342850604 0.13907199843521859 -0.04231675849034003 -0.2724055517247631
P 2.355681935577185 8.37517875734202 5.815406687825463 0.06008051023166426 1.026083820025775 -0.5956466980441548
P 6.960158759215148 3.8546801042740735 1.6201193853458913 -0.7556855285390276 0.48773184193803104 -0.4126779982259861
Ni 5.314101835159639 3.085293589348153 0.425678501014058 0.04387253301323412 -1.2421282193519898 -0.2109348460137916
Ni 1.6171322120999685 1.2230183554360217 6.912031177217655 -0.8653132535712 0.38497744698692404 -0.8991898517139868
Ni 6.801708700083579 0.9604501563559746 9.215439384839765 0.36580858736795707 -1.1649886967555099 0.07968414339520472
Ni 2.7343909253811183 1.7107699918076162 9.05815461188988 -0.350388653268461 -0.42928269666220265 1.0389524484583268
Ni 6.4078654207064005 1.9252656262718126 2.4244437414636364 -0.6843361302617633 0.1683848884667229 0.6325042331921366
Ni 4.290111112627554 6.811954560009208 10.384151976897082 -0.5036767953030615 0.9091431062719568 0.8430786105427158
Ni 8.091794145666592 7.024114210564305 0.26909362131261144 0.24018037314247023 0.5618405481279872 1.316156707123314
Ni 7.503541085746325 3.905052575827456 8.13103867533948 1.2732182558885747 -1.0018429452005393 0.5647929458880918
Ni 3.1083106972092507 8.306876030918787 12.382533899523738 0.23557347049807817 -0.19087895580418093 0.36686248255376824
Ni 0.08116506871191438 4.966698637434809 10.157683297493385 0.2758366888934991 -1.0489656097199547 -0.35317315799213367
Ni 8.52527699755534 2.1574660345335537 5.748466769003252 0.295965084212258 1.0534611835974632 0.15037611059412812
Ni 3.6559501063855824 2.8096204303456234 11.572705099468834 0.4482101296943249 -0.3729829936292093 -0.38248167714826387
Ni 1.1646818924087565 3.217118843461713 12.450622869890426 -1.0647688953007985 0.5491457262691382 0.1435547167969205
Ni 3.0226369089754854 8.588411697801298 7.872756420481844 0.7310633591149732 -1.0212740573419572 0.7982113177163802
Ni 5.544823087587047 7.895409150930093 3.7471012808278292 -0.9945194149559322 -0.7870645570709414 -0.7614982785660627
Ni 2.7955413921907746 8.166870323501929 3.5904370317889303 1.6099934321386595 -0.09616105800430536 0.04968862547437894
Ni 3.484620568403837 4.396547197999347 9.18379717500078 0.09462225276227576 -0.47798144741948645 0.01758428874066649
Ni 7.469718924900276 6.242921506692388 11.395659165341963 -1.5597515052639717 -0.5789111304570288 -0.8128833179062581
Ni 0.5337425597279074 -0.022561636095037706 0.3150114888014967 -0.4198912281449736 -0.18919925410891286 -0.4209872894226298
Ni 4.778061172342778 0.30062669831259975 1.5456420852386026 -0.8948305463040267 -0.0033036104519362465 -0.2383518045741637
Ni 5.963036361259165 5.580413020039982 0.5559542491987247 0.4339664752911171 0.24681690462238134 -0.5568590357529958
Ni 8.128051502093557 8.848797240101414 11.080258045247518 -0.1863810679338274 -0.06743052283883226 0.3302713136932957
Ni 9.169052516720482 4.843189125267931 5.805031852726473 -0.755452586592615 -0.7652006671183145 0.43900532326660524
Ni 7.589620739910242 8.854885229053702 2.6569589213023184 1.1418387410016078 -1.5166173930786593 0.3033498067121034
P 8.443337175878979 1.538313048464336 3.6396757845107532 0.7801860847835531 0.381995995761097 0.11804217434811283
P 1.7716228236018274 3.181700276623731 1.501538889419644 0.2733306346421938 -0.14061671721451913 0.4358122702506043
P 4.63635082801928 1.0668591839990906 8.339752975109725 1.24160088609361 0.49076574366834835 -0.9070366014519153
P 8.446755468935152 1.5974702625947985 12.405938834829204 0.38941002883698095 -0.10254793536725565 0.013085629539364561
P 6.2293565653824 7.63352641430986 1.3948782248998333 0.6568590078874171 -0.7348043142146442 0.41056018055203486
P 1.8154022286009532 3.326008162900206 5.789441189462878 -0.4397164904010169 -1.3279704119287903 1.5998113493993351
P 6.927635369345587 3.953963930032289 5.967688486743002 0.11046898998654522 -0.2997214659308967 0.02969084219621338
P 2.448011925065453 8.28085551517456 10.328049580334234 -0.8280538549991094 0.6139771209222264 -0.7198816314665408
