# total energy = -381172.4278364927 ev
CRYSTAL
PRIMVEC
9.19069398372333 0.00000000000000 0.00000000000000

0.00000000000000 9.19069398372333 0.00000000000000

0.00000000000000 0.00000000000000 13.45150965476087

PRIMCOORD
 96 1
Ni 3.9781552178311004 4.5402948373341605 2.445955288778781 0.39829010493543016 1.1452403104839888 -0.0315741752618553
Ni 5.323608512545498 0.5631423242393063 -0.1887235526584221 -1.102359966180695 -1.0663578370544733 1.319488085489392
Ni 4.21128636668197 7.365403943341069 13.196173342738602 2.564243972272216 -1.4257034424059059 -1.7318410962757915
Ni 1.9457710578871934 6.394462246218885 1.1709119022622274 1.7119901229881356 -0.03331661187425875 -1.6971880249782962
Ni 1.0266097318375398 0.1778684237493406 8.523885431709864 0.28850297150725795 1.2801905734413501 0.8931032792002748
Ni 8.931084652262063 2.9106377061490747 4.533629745906791 -0.01413026875379502 1.9081017879461653 1.6383218467697074
Ni 7.747029138237177 8.807479006086265 12.36114363131407 0.8200384408938006 -1.7816719037549897 0.19588180833541102
Ni 7.07888405193423 7.332418541889292 3.556135083826369 -0.5271820775138534 1.5684685734219954 -0.053866153890836266
Ni 6.572761713525787 5.656247307403164 2.102794068141751 -0.0289472791619695 -0.24139856182028752 0.5111628192674615
Ni 0.08669398016559517 7.389676566699704 4.4775371011198075 0.42836378439235906 -0.15780942694372174 -0.6270156992737396
Ni 4.732049480936801 4.418784669433926 10.860668140470512 -1.4366992792957771 1.2839107026054146 0.1787289507052083
Ni 0.29539074944006677 0.4255677419624874 0.780403901430443 -0.056247252528503135 -0.9869804262664098 -0.01966071165372098
Ni 2.826248752086602 7.7148065644032595 7.658429008096353 1.2060913803330906 2.5336689276988364 -1.1394931235875667
Ni 8.073032251888884 5.049909639535213 7.1533920906718755 -0.46762555810645917 -0.7524937610746073 0.23981604782451602
Ni 7.961668610375599 8.891013225588965 9.96693654617815 0.5773407006461153 -0.0488617586977094 0.5258085942050944
Ni 1.3488722329534788 6.250756551847198 7.760700295846404 -1.6891800670721553 -2.5992032619562204 1.165253520381122
Ni 5.799750806502646 6.690310692229668 11.209492666868085 0.3674247828151414 0.16672524137611286 0.39573005751773777
Ni 2.1627725384327228 3.2814178818997117 11.508641491162884 1.732353774246152 -1.099500899465345 0.3303368768239085
Ni 3.6056655729609237 1.006105293097246 11.683335449138626 0.4452965555919557 0.07898428911470268 1.807695581512261
Ni 6.83134189459175 6.723865916721291 13.471283906376637 0.38992064992481235 -0.422113432607273 -0.9809925841140911
Ni 7.327519901885448 1.5772334115191795 1.8440539689968631 0.8498884343756976 1.2492735721475194 1.7768960796329012
Ni 4.911644836124643 8.053014919940718 4.7699050312404285 -0.2118105637505255 1.1875889506535289 -1.3293510943264009
Ni 0.7588406947193372 8.179552397563473 6.651610517129878 -1.781271068772145 -0.5115950217088738 -0.7149286583366397
Ni 0.8188890142861607 2.0018434831469567 2.81295257480037 -0.7699356107001385 -1.218920927997591 -2.2173815869894584
P 5.847285076858899 8.636164466364582 8.986940177138917 0.15075123454535974 1.023488805605089 0.9806195170453884
Ni 4.1725292092781965 2.860281892676162 6.416625605260668 -0.5113330262967387 0.11549446822559464 0.20001177134338458
P 1.7133475924890365 1.8456476353695959 7.222640295123967 0.5049960283351174 -0.4081921945404905 -0.5122966757615887
Ni 7.654010122329282 8.738383367157743 7.678606258123444 0.4534580083568255 -1.1542767096546442 0.5421476976847502
P 1.9353120478977475 0.4293919898153948 10.640346062113746 -1.068499308877508 -0.5498214121799241 -1.428617016508275
P 8.56212423396126 -0.053558770398503715 2.8996612600766714 -0.7705873853515245 -0.2661554570499932 -0.39088224250713327
P 3.6278519087381844 6.621757304258422 11.011473646104808 0.40043749029573616 0.8664375969836304 0.271099688429146
Ni 5.654887084662885 0.391681652479985 2.9031316662032225 0.9809321631898009 -0.13554161668445686 -0.14004773208492655
Ni 2.5042435904080134 8.876271352106478 5.342415430068701 0.9426090992398862 -0.1927563753325519 -0.8109925286414486
Ni 0.027589544892195332 4.7348526426650785 9.530421768364672 0.4503860542997211 3.342274444165347 0.19159835046870874
Ni 3.7606114863282976 0.8289087090932733 7.490662076332425 -2.5788067005777395 -0.7193848943357805 0.03960553020676405
Ni 5.552245411936932 5.27388685697177 6.875577624802825 -0.11728369891553349 1.087237765827276 -0.4879622127812822
Ni 5.924376619733657 1.1494157876187165 7.267366808404845 0.23076730735868642 1.4714284552468466 0.946611278420744
Ni 0.157203147860703 0.47117931909396654 4.864227287584618 -0.22696516000377684 0.9534103036204484 -0.12674175900463977
Ni 3.1041477723422104 2.3117996447410434 2.750080873978048 0.6417841158321657 -0.8939915953424992 1.1620031317646247
Ni 9.108115803770596 6.847848381358926 2.0580133297651457 -1.8966647497538174 -0.08795821047853884 1.292170628621362
Ni 9.102638150032716 3.655322893675315 11.74712254310238 -2.3384316949259603 2.150402806976064 -2.0573998349847664
Ni 4.996530087673435 4.956973339875038 13.51123493495583 -1.371716189556173 1.0108256083151237 0.6668857959957999
Ni 7.725136904674031 5.0671697632260555 4.396169128237942 0.003977753700825408 0.34051458868785867 -0.4624280730659197
Ni 2.4561946411770603 6.366559298654773 3.412903629274942 0.23376315676221676 0.29001195195261664 1.105386925932477
Ni 4.354725530922116 1.3267318506471732 4.649232135581 0.2751692305128293 0.4997252668544813 0.6344677846764105
Ni 6.342975977360469 6.533949411956867 8.87149954368247 1.2379131528293779 -0.13427843370131715 -0.48734823334636707
Ni 5.630145735900504 2.360537896036327 9.895387910970033 1.6063260105894013 0.6407942411150707 -0.1424342300392321
Ni 5.913522409893995 0.488516644616015 10.994645485040943 -0.16474883437603238 -1.4731174129134952 0.3219046868961553
Ni 1.8634408193235217 3.8634553543264545 1.4631741393996514 0.1581246441912954 0.8297638957116806 0.08274658437061233
Ni 1.2221693228352855 7.568224182749765 10.230600100201201 0.3418747022601789 0.29349065452983647 -1.5337710220398102
Ni 0.7836335113691877 5.417776365227279 5.480548806552337 -0.13272625872284882 -0.42183163970079607 0.17148229644512403
Ni 2.4841803049888913 4.347869273055572 9.393350836129525 -1.044089769684892 0.33811729210027575 -0.3231987231172305
Ni 6.927265169864026 3.748470579301885 0.7658311367210707 0.7324766945227321 -1.3433301822143122 -0.04942945827572132
Ni 6.8673877972091555 9.137581169347191 5.646567668281121 -0.0657932443457254 -0.8080123629672019 -2.134361951463118
Ni 6.961197212817484 4.511849638812776 10.141147073639443 -0.29033205429619674 1.056410238923458 1.7249757366145262
Ni 0.9041483270885287 3.7841672355400293 7.5151699814623525 0.44748045061715197 -0.4009100590567805 -0.6598312031418636
P 6.307748046526069 3.3312590164979246 7.258569475925146 0.5911585803658143 -0.6021505606009435 0.37067440010069064
Ni 3.895347063169493 6.1922853554035635 8.89678865781864 1.0990152180781783 0.05291767393463789 1.2975205800793654
P 8.598767531701085 6.9096006556287755 8.200954767126234 -0.21145806550711324 -0.3621635344162021 0.8539831732703616
Ni 5.177743005038908 7.985702275685267 7.05064932030982 0.21488817423458476 -0.6954818624659377 0.5083849994120083
P 2.9589991389825245 4.358319092350827 13.11496620700508 0.3061787915204662 0.2503549996826269 0.43882046094930877
P 3.6696328045308224 6.670477174165323 5.924421654135193 -0.21009589505226398 -0.07350475405737018 -0.333518874096316
P 0.12985072287863744 7.394896881000236 13.515404752910323 -0.1669620399772673 0.9443299385857349 -1.947561279493368
Ni 7.33623267997859 1.6129944026166618 13.120414450521551 0.3624705241336596 1.6732947633004667 -1.7564558095006781
Ni 0.2618594207533399 2.845365396004043 0.2261250826690117 -0.44422620534591234 -1.1699069599927336 2.487506827320477
Ni 8.743392295491882 4.0973125680184195 2.2531409581359103 -0.41405765218233204 0.2519891928519402 0.5923502866810701
Ni 2.5536251902966725 1.7328686269508846 0.5955376831240161 -0.4723849271683154 0.727863878341069 -1.3234658391902174
Ni 8.21389802175553 1.5608280223881064 6.824246678676238 1.5858173491130882 1.4944375145475102 -0.587339206619724
Ni 5.890472148862772 3.6558743353267795 5.036299140507646 -0.09270858067933066 -0.38455295785499577 -0.1640384385725691
Ni 3.407036290103358 2.036795693155624 9.593684073690115 -1.8593714126199978 -0.24852617400400426 -0.13266403802634572
Ni 4.943839837875988 5.859187025836344 4.320100509626651 0.7463951043760372 -1.2312149148735956 -0.41844729660959545
Ni 2.905656349897511 4.3302415215970855 4.764026663235816 1.5319380825961295 0.046897178772170846 0.10441789869645887
Ni 5.125429573703295 2.7764168081825806 12.3979073271478 0.3313894864581389 -0.4472235974113395 -0.028723593186937627
Ni 3.1680782411353445 4.911451831546631 7.070867009391353 -1.2230902288839323 -0.21049415893194717 -0.8660958973734955
Ni 4.745137029464894 7.311518903298782 1.9604899546342038 -0.020244866291965133 -0.13739743894627307 1.2273009245311701
Ni 1.9557797238612766 2.216032611270016 4.7563735721829055 0.583546315236195 -0.848715497113519 2.651628826745788
Ni 4.499653587621216 3.7788642049917778 8.615570877890633 1.7393312340052496 0.7341785077051872 -1.3326379926077887
Ni -0.016098419945091223 5.21536970705718 13.535851290277215 -0.768994844053424 0.291200315833763 0.044585757030174825
Ni 3.015926298802058 8.77288523315105 0.8571131114268516 0.05179950116979466 1.038060789881993 2.196766996062901
Ni 1.5400111000453158 8.597205113688602 2.739238612040834 0.5218822625674947 0.4433743988685783 0.536010731549077
Ni 0.7604986959514075 2.6562484816342433 9.649709626409503 1.7343898308395742 -2.828687074616793 0.015887360654217798
Ni 4.787083357752972 2.573513852526164 1.2895573307831032 1.4585562272698687 -0.35160452795343317 0.015763176371527694
Ni 7.114406084982744 1.6740389934337983 4.31531123888368 -0.6892541363886711 0.39505899959264223 -0.7649931790931986
Ni 2.170897112097635 7.847998104620353 12.48331093384897 -2.1483870620976164 0.24639704347614338 -1.5924333117677092
Ni 3.6979309519451498 8.6947551418327 9.71162733317479 0.5471963158522511 -0.9800471894816863 -0.09260110856718891
Ni 0.6469614552619325 1.529662378386163 11.837988179361306 -0.7889808002570476 -2.2189980395469595 0.40139856865742485
Ni 7.949601228902715 3.0415223821242083 8.773585564048409 -1.846307123236872 -1.5543773854362521 -1.4476976872888099
Ni 7.454562867688711 6.900814351982104 5.867198553962707 -0.37940303822294014 0.025178813258472765 0.9891586648646513
P 6.025069865291101 3.71337131818616 2.9082968363386072 0.2697362324227161 -0.5313853169619236 -0.5352113755762331
Ni 1.8625401312927963 5.562943379975346 11.33351557056016 -0.9753353858283138 -0.2801754254781691 1.3379902580586378
P 7.764859084967867 1.937646484222281 10.900619169049708 -0.1485531984527764 -0.3003336455935989 -0.7195360752016641
Ni 8.646954341344905 6.6552665752790885 11.383151752677913 -0.8218520970637717 -0.6469240081618923 0.646311571388874
P 6.855412322678182 4.8380457570424955 12.467922035495429 0.8999192736808436 0.26141794236500787 -3.052804737869445
P 1.2256158331569393 4.51820040849881 3.50336487498946 -0.4254733502184414 0.08889049248482112 0.4026717789428936
P 3.72241496127018 9.070774013272251 3.0969413490269866 -2.5060550226363096 -0.5358585222419288 0.03252162677678916
Ni 6.850780212805879 8.560571006642968 1.2047750150092522 1.1279822947344895 0.29738561870886854 0.9236646969268995
