# total energy = -381172.63724414626 ev
CRYSTAL
PRIMVEC
9.22739411281514 0.00000000000000 0.00000000000000
0.00000000000000 9.22739411281514 0.00000000000000
0.00000000000000 0.00000000000000 13.50522400339756
PRIMCOORD
 96 1
Ni 0.4917029239132776 0.7027343524185509 11.767223403642115 -0.314402207871523 -0.0976255583649738 0.03969063372140261
Ni 1.0599046368515317 6.1170703119732 9.465500666628126 -0.9550496389960842 -1.4275250689956769 2.0194362112567994
Ni 6.484256010090407 3.830346704260583 13.206893445148266 0.5881593885281742 -0.20263532500916068 0.48020853697779226
Ni 2.860150793996529 8.354455042802126 6.077674875098835 0.8452208536966992 -0.055191557570479145 0.06011419168307711
Ni 7.388909739223948 3.7872824554451383 11.172196732972688 0.3502616407722935 0.4603241393490395 -1.270667207331947
Ni 2.694795889609819 2.8551218641477147 12.100478127740864 2.400961438029065 -0.6162024107083194 -0.7213759566238802
Ni 4.337078285136731 4.278124463477876 10.204331662488103 1.3517060649828334 -0.8061578262569664 0.20576384333581338
Ni 0.6629412148533897 3.34152549556159 11.28385743040481 -2.527503679428389 -0.9397343487952526 3.1884083181400897
Ni 1.4598752666253225 1.8366482273350404 0.22744973103737556 0.1871734819281357 -0.694620800017223 1.2261220737317207
Ni 5.802637626600347 3.78259493918239 1.867326544891653 1.1281818123398053 -0.7271388272495865 1.3838183721363455
Ni 5.4027869529513906 7.747716963391205 2.4552905680266157 1.1270374143227169 0.5686701694553109 -0.11478972884908617
Ni 6.669763543449248 -0.07852143383756406 8.957205042432026 -0.1032958692768737 0.5295649759237331 -1.6696414828185955
Ni 4.321354805389245 8.791372159024823 8.922510040172314 -0.48805065873003045 -1.6447624601887285 0.6553585120824906
Ni 9.294846469742014 3.309829396422731 1.987684984113667 -0.5991724518092262 0.6634335757811413 -1.684616101850557
Ni 5.128567251580618 2.2970398344483502 11.954000626445355 -1.5487243009155327 0.6712204188154117 -0.5314704204765621
Ni 4.163114221944619 0.944460707790029 7.2077649178513825 -0.45683309547664547 0.6812045266113171 -1.6332863412283292
Ni 6.990397037736603 1.2285168113971987 12.369839606055853 2.228541974481652 -0.709492574922733 -1.5448992707424878
Ni 7.781839867209399 8.348346507829804 10.800492379906924 0.6124874237505775 -0.8695846272530442 0.9973833667672888
Ni 2.167551811387039 0.022337675922954665 8.171011677529854 -1.0357023169521453 0.0326758929664663 0.0774619389329053
Ni 0.30036460014807775 5.76504522255618 11.85410208842293 1.0737656994827702 -0.06049162962715388 0.2652519713991174
Ni 7.665510108302967 2.1141251988647705 2.9287970705419806 0.028086730933887114 0.6839288675210156 1.2766007992075628
Ni 8.381592809197288 1.3171274780727331 7.77164913303503 1.541936845680054 -0.06614831369229898 0.08196085524452336
Ni 1.6623796601337344 2.358540416911376 6.398828794420086 0.6413087188576438 0.2825531816817263 1.4068801390518157
Ni 6.217565862401529 2.0720851908075244 7.5476642885265175 -1.0347664354014372 -0.7434169955843197 0.7612067154675729
P 8.112060624089265 5.745400100266042 10.219821689161876 -0.8772596272997989 0.1589006031253715 -1.3518536463042912
Ni 5.724869148130972 4.358670387606871 4.669728614914199 0.09360075347629687 1.2352538608296597 -0.6134667569447112
P 2.501703438203776 5.558757597418386 3.457931841840031 0.1619761567269017 -0.15963105353349283 0.42055328720900476
Ni 0.6136383248071492 5.184208438715208 5.7304148120559955 -0.9586710377987555 1.188777057424359 0.27200111719749287
P 5.416674181249493 8.240764318642045 7.0154106579827795 -0.3106044313919877 0.8681635785358016 0.8039767594452476
P 4.114015257310597 7.534047422879001 10.776493773024727 -1.398989166339513 -1.5170048583250648 0.1440031171882488
P 2.293210465847877 1.5554157063585812 2.4123702665609716 0.7429310570868367 0.0505399177310807 -0.8852159060323981
Ni 8.032492803747378 1.6119888603091905 10.178239359857841 0.0868050707107021 -0.48255081195772376 0.22893488213563798
Ni 8.576623013389113 0.03866462725229868 0.9445566726898962 0.8420167449371047 2.4551147841430168 -0.2402053128431347
Ni 1.7040136628453881 7.013594706800676 7.63585418602571 -0.5812256375228183 0.4982903341801677 -1.9711169553261214
Ni 9.148213948223644 3.6174799470453487 9.278169800171808 -2.446056787705807 2.1851119283224754 -0.9587054905811168
Ni 7.3189568636572275 6.109817580117846 12.27905773352082 -0.04943665736457293 -0.21710369382866482 -0.39210968715633115
Ni 5.418741117554327 9.129223970922983 11.079740088387089 0.4202115875988699 0.6823522670625151 0.7144638028850792
Ni 4.595380731481439 5.57726775021971 2.8549096340807 -0.8946878500785753 -0.28308694269800927 0.15651796182580785
Ni 1.2781325101074297 4.254963703990675 13.285021791992143 0.22162215052430867 -0.1742058660238742 1.3399121576716988
Ni 0.45025623730424935 5.954308305361751 2.9533087205426978 0.23723774557437852 -1.396421405612337 -0.18182584446297717
Ni 6.4476786194102225 4.588856963769308 8.63153985007759 -0.37659050847480946 0.21423331425940523 1.8677074432895189
Ni 1.7790508326262322 8.60869743569091 -0.029311740472925396 -0.2510484262052257 0.30766591758895395 0.34740977314579524
Ni 5.814660921266412 6.905975608036044 9.449389636323485 0.8128624919706517 -0.6788902766558437 0.3843639817726413
Ni 3.0145989184175535 5.205514491964589 11.93525517509147 -3.101214753741717 0.806334975264779 -0.941880705714294
Ni 3.3828273120813956 6.036976530160888 8.94610356444834 0.8802521342692196 0.033173401428175125 0.4185095173060986
Ni 8.40494734396307 7.316539286372109 8.42149298453538 0.444955370202453 0.5873114387055821 1.0431268915509906
Ni 1.6346790226912733 4.488702826927045 7.673465967597735 0.3089931210408098 0.45300857952423274 0.5537099486010528
Ni 1.1622272113350267 8.637717590506547 2.330367336884953 1.0902564980489418 0.030933970574695106 0.7232163522667286
Ni 8.72569156698104 5.400397057848926 0.8119756270867083 0.28080508864236803 -1.5049954925690143 -1.4516672134595194
Ni 0.7706036823708461 0.5160235668536822 5.746742686124762 -0.37680596691972523 -2.3783488428358717 0.15727438037585817
Ni 1.1170222070610034 7.43699369049399 4.512432916637497 -0.3740453734554526 0.40753759167562714 1.215429627014881
Ni 8.542878432733858 4.127201203648131 4.212346983794803 -0.5541565492201682 -0.2366350789933731 -0.5327996808109469
Ni 7.435821811428302 9.027944091986122 6.1729135790411656 1.040510794084382 -0.5790296583127641 0.8240745586363872
Ni 8.171651135949162 2.222953086271961 5.394243308644937 0.10628271981933955 -1.4222175407398343 0.7337784440532911
Ni 6.648005347883184 1.5290622684719493 0.9507141128515733 -1.2551742539026707 0.20920089404182038 1.7279206781754628
Ni 7.66174533146202 6.73369093059161 4.35238284118672 0.1880121757793472 -0.06905494581613268 0.4046805818428063
P 0.28678556681685663 9.036682434310576 9.634883328590996 0.14495905334361486 -0.8616877410034708 -0.11812007877389981
Ni 3.3435555222895514 7.679037468226568 3.8402107886796344 0.4619285077216818 -0.32420299601202873 -1.1385654695669747
P 6.1654864494350905 2.5883948068819644 9.800700525428029 -1.3377596301050703 0.165991705644198 -0.4979702318365875
Ni 4.2401998732418615 0.6619317379259395 2.4632039813079794 1.3980638263117664 -0.45673256534303924 -0.5786252237854939
P 6.592714801728878 0.34475113455496337 3.0285064469829357 -0.48878959377858394 -0.9362219647666198 -0.0403398372696273
P 8.627604366443611 2.410029276647863 13.403813419675938 -0.7195435314008318 0.4190790166563234 0.04715171798513815
P 9.119692072695779 7.556220851184876 13.274784920846685 -0.459907363526595 -0.8361721132308697 -0.5598638840175907
Ni 2.272587239770628 3.6905701366461927 1.868622993779283 1.1197347100137167 1.1151889996245632 0.9676331320880497
Ni 2.9651493128032467 5.717957829861684 5.984921108419415 1.059973530794684 0.04413529975631754 -0.41246125422948965
Ni 5.107824069378535 5.673998523807092 11.975338975574498 1.9037324552338761 0.4587483102214873 -0.32745981238642957
Ni 8.13204715996547 7.205044682035913 1.8094975425879727 -1.5903111232183837 2.221020983514259 1.7483997719654212
Ni 6.755873586291702 6.599026339373996 6.9054099687704795 0.31260346409988743 -0.8334814537725839 0.007381122955419547
Ni 5.228084698221838 6.799399204818048 5.115941408072117 -0.6671454774150898 -0.6260744184063928 -0.054777095740879855
Ni 5.449034652772049 9.167074742005251 5.055734506278456 -0.7738945953478865 -1.1524813083171184 -1.0686139800785015
Ni 6.904480770172727 8.183388381394469 13.239441232773444 -1.107434552490125 -0.040214881655988806 -0.16847256308452277
Ni 8.546800075276511 9.1325642876299 3.9737634788939786 -0.6312832163008418 -0.11691885937694703 -0.8333338724511261
Ni 5.824801827512003 2.075222504841647 4.558836559420439 1.1844092673739668 -0.4910282533011156 0.0765409697805327
Ni 2.1852314987087427 6.185556031859258 1.163952734053794 0.2223711128751912 -0.008352742840069486 0.14165261467820123
Ni 4.687894585911192 0.26541215358968384 13.635819637978168 0.2508404239594777 -0.938255707367197 -1.2668210941129796
Ni 1.146070044059294 1.7186298552867134 9.369722160124041 0.3564160904094636 -1.3862634912427287 -0.028271336140867437
Ni 4.1610472856397855 2.967557662694147 3.292249364958582 -1.1415600334189244 0.38505432297144654 -0.0992623226374484
Ni 2.1550025552505474 3.5483944465351196 9.827521792201512 2.9030983996488327 2.422095906014835 -0.5208643628259416
Ni 3.4238430793804424 0.8664744628171094 4.507881965809175 -2.171300990581312 1.0389802163724686 1.5268454985645705
Ni 1.6681836910968617 7.609933512927903 11.35859563261299 0.5561172724909648 0.15731294692327746 -0.9605911376396037
Ni 4.048270073507287 2.330184634479436 0.7989825332883308 -0.39787898553994056 -1.4590959018234226 0.349452771717753
Ni 3.973288268091751 2.8447318182582375 5.748781940246941 0.5414162188353643 1.1327763736890233 0.32846665638438916
Ni 4.071864520522735 1.8091229103827215 9.697872289741387 -0.03972457228313158 -0.3115685950774698 0.26804881741796416
Ni 3.659879823477097 3.391242695608219 8.033110116420563 0.984669518745046 0.5942045662809896 -0.8308085349261111
Ni 0.773948612774874 1.8797586131215758 3.7138693070466635 -0.6140149161386974 -0.2572679247523763 1.1762395870789808
Ni 2.9605263883000243 0.440801849188478 11.590656292541103 0.6924307343444398 0.16906494525288301 -0.1226328790425888
Ni 4.133558878264338 4.3379548875874425 0.2590692428042249 -0.3563620972430766 2.882537287668029 -0.4950733699047668
Ni 6.26782747870702 5.9121483411796705 0.9422396740017543 -0.89423327903966 0.3537783956763004 -0.18085705279180464
P 7.367345318936463 5.1738276202199485 2.760386975929688 -0.3704149757917169 0.11710732123866928 -0.3293629429464134
Ni 6.974701240171771 3.8846683740219987 6.5745322214222925 1.325683929887459 1.0454444839405737 -1.6130049652714737
P 4.997399842771629 5.002465682197315 6.790764209308835 -0.11623211772256756 -0.14189789791978788 -0.2727634492848141
Ni 2.054562369187526 3.673056542420413 4.620866794311579 0.2792968795279577 0.8277494363848131 -1.565893870716284
P 3.361327483553436 8.15400835820433 1.4857101249569025 -0.046394270993823324 -0.4200578356298249 0.42875407785224223
P -0.15072579359347957 3.352976691786138 7.211694865048832 -0.49410020735822 -0.07920771797941843 -1.9292200579820193
P 9.133274796984688 7.316290146728223 6.323686432345157 -0.9410044737569278 0.2569190260533898 -0.29467747574908604
Ni 3.7468756961644796 7.287768271200358 13.037876187996428 0.4668503705033315 -0.3155808015606565 -0.6734971306647304
