# total energy = -340862.1246234145 ev
CRYSTAL
PRIMVEC
9.35152418116036 0.00000000000000 0.00000000000000
0.00000000000000 9.35152418116036 0.00000000000000
0.00000000000000 0.00000000000000 13.68690090567329
PRIMCOORD
 96 1
Ni 5.294636718618442 5.306774997256058 3.92889334139917 2.248555698599418 0.07841967486048429 1.026053995229104
Ni 6.97874339163047 5.651743379893202 9.713730421642248 0.1390491156170831 0.8531614487000145 0.016602898664003662
Ni 5.677076659422711 0.06976330698341944 2.089729977892192 -0.512147294667918 0.7413495715323297 0.26093868873574416
Ni 7.400693522915421 2.6825408758643676 9.077152519294287 -0.3922760375308664 0.8403334436974109 0.2999469516781415
Ni 6.384940296922198 3.7673083517386416 10.964097496590863 -0.47427597354344125 1.2425254547904085 0.47471974594907923
Ni 3.89709815852714 5.436424531178944 9.877918875688534 -0.1869989040234844 -2.0503221022023785 -0.2886014447583352
Ni 7.404293859799459 4.597517982624824 7.384576170656614 0.7324327286586741 -0.07182376681052147 0.8247317326044119
Ni 6.838199331811725 8.217184467544762 7.671248085497893 0.2379923643522159 -0.3872754989924814 -1.5309443512242924
Ni 9.259654998674861 6.321499555568126 5.585309215586972 2.509996266672245 0.4131173997562498 -1.4888489647161391
Ni 1.2453612039511448 2.5367973684936094 1.5699423283002563 -0.4313642617815797 -0.15647733839585956 0.5825482129889838
Ni 8.914340609635875 8.948239885492082 4.153249503268583 -0.5229811520586284 0.0014174491728169139 0.3471251520258409
Ni 8.510672708502339 2.8031755402905967 11.297934759765486 0.3775137916200273 -0.8611377820372716 -0.4259628882603503
Ni 6.218333538672765 2.0335170297268816 12.492541500328498 1.0131725112807455 -0.29177367183872976 1.2470508534645879
Ni 1.9164078899896981 0.1175926135473257 3.8379853026534136 -1.4116641907040204 0.35302917621510166 -0.15902864406280354
Ni 0.46495124581449665 4.707482557740175 7.476674658455196 -0.011434724199502888 -0.5803859152303424 -0.9063467744737423
Ni 5.8981934532489255 1.4758108191027386 7.915491199101323 -1.5745901129387012 -1.306207309220086 -0.775908797564438
Ni 4.550302136059861 2.2755905896755144 10.756659177466682 -0.4080754664569682 -0.33879349223169397 -0.3662006806000532
Ni 1.7894235405134373 -0.05657485215858916 0.6265727064200837 0.07430642402305912 1.612492030190797 -0.05313107549702462
Ni 2.906079714503482 3.7931466135843523 8.237434258424493 0.10746182772910526 0.2708706031374754 -0.009713370633021983
Ni 4.617913657284793 7.131958766976154 8.10818871035457 -0.18287459744246568 0.4499461385488251 -0.3008440095711141
Ni 2.113912084771245 6.138340599176488 8.28988228287678 -0.2369821779201467 -0.9886228469658394 -0.8341296288795442
Ni 0.30898558715038116 2.531569866368473 8.679110495224228 0.7186120207254978 1.2474288056292968 0.7261335259135236
Ni 6.808676569362609 8.124510860997168 9.896286204711755 -0.9210568269904074 -0.34717683119938275 1.3517885973943107
Ni 8.327251909428227 0.5906413443173784 6.858465020282894 -0.18014151478201879 0.6758841428396682 0.7843476723604105
P 5.23600266079267 5.048046372397106 12.398717656282887 0.027941720715590587 0.42547463577002204 1.159053047997365
P 7.347735840384744 6.844165604362418 5.9367479179385745 -2.782979545277349 0.14013232137893286 0.6321792457525499
P 6.484805225713493 1.1778244949212047 10.540898936801966 0.639629531383008 -0.7101512915526544 -1.1705674763948677
P 1.2267703734953816 7.203993559230049 0.1347956777859684 -1.1782350202424547 -0.5762461820303559 -1.189728365594035
P 6.561945950275661 8.750511254125556 13.806935657209442 0.6448717536185539 0.43183194544661757 -0.5480730620302496
P 5.109888003083203 7.391145616529438 2.931624338483845 -0.10016555117800813 -2.78032231016016 -0.8449380323489577
P 4.659630807517772 7.2407731045934876 10.309754503389376 1.123250179366143 3.3403556298760795 1.0891059293842662
P 3.996869572074693 9.29398444465228 8.057985051752071 0.24296436364551055 -0.9530539487222941 -1.0019987540521131
Ni 3.30436113759752 4.578571794242845 4.925477812730308 0.3623190861574599 0.7757596735810833 0.4378948638112458
Ni 3.3567857832388723 7.9398837152787936 12.894210980703281 -1.216335169548286 0.4446802621641955 -0.5321877582585609
Ni 8.306239034159566 3.7729286178874912 1.98547637871212 1.095325685041733 0.12559221878122886 0.14913606753943992
Ni 5.954704715041771 2.607775438493228 1.165176558205199 1.037357336057065 -0.7644334499349867 1.9746362813332894
Ni 4.331130459303463 5.074211937595911 1.974212467603485 -0.5713142919463773 0.7841625529327979 -1.3937225186239353
Ni 8.464410717423537 5.018215009643643 11.967238321660702 -0.5724823441125496 0.20960250035561323 0.6028807538987488
Ni 1.1413535498621123 0.39173909664189943 8.212852841454666 0.7892952461736729 -0.8474741685072501 0.1958715239227659
Ni 1.6689197974284462 1.850554455347101 11.082995582940818 0.6820997847320769 1.1283134528216632 -1.8658624196609799
Ni 5.109345614669504 6.953335299905968 0.4184059035471579 -0.33301750897986515 -0.6879480159827378 -0.049886343307481824
Ni 6.927721474645236 4.5068268992445475 0.20622355610798232 -1.8798952436049623 0.027127966565043602 -1.545064335565442
Ni 3.0318764203842288 1.5567389110364274 8.958747258278851 0.09708485537015538 0.38467328548294394 0.010810460351942672
Ni 4.4233084350592256 0.4750798818641128 5.862701612791804 -0.36856635261875237 0.008684415147875366 -0.1738204576599974
Ni 0.31107939345774804 2.239792954371359 3.8943478752087097 -0.0992021588234743 -0.2569516790635381 0.23005279779016508
Ni 2.539584122757099 7.904450789425229 9.415615981576789 1.0520843578545944 1.291115190773654 0.7046182775495672
Ni 1.1568490257500395 5.452406286334326 1.7554410360902999 0.47020463168754506 -0.6274859540419386 -1.0502388200054236
Ni 2.7398470172290135 2.3117529344302605 4.573341486660396 -3.186125949863816 -0.6390829148509186 0.3855855128845682
Ni 3.283301504706988 4.125237947158325 11.838444452218049 0.7630519962064277 -0.4953243095733082 0.6490078872741145
Ni 0.32941586245053484 7.663854770327708 2.300822872741782 0.12384926794819316 -0.45707092251906445 1.1769224720786184
Ni 6.535574651540625 3.1130944095735154 5.706945428273669 -0.9510777988325299 -0.7782999235044339 0.03681742593866563
Ni 9.111395931247463 7.350045666905153 11.511463726714535 0.5780798928049851 0.24218557649795713 -0.7715353510870905
Ni 3.9785125297282837 3.3659783316986385 0.3978166523326441 -1.2035866116333658 0.05269604484213505 -0.3402006569918657
Ni 6.968260332807073 7.462273310919042 1.8039745124395778 1.5665047648274055 -0.4902070429514009 1.021249631861925
Ni 1.373140432999206 5.738469416938849 11.526068002329609 2.602235878134957 0.5831187407804732 2.9173420540520403
Ni 6.841425607720799 6.989151638258871 12.35845092748034 -0.08707555076326938 -1.1475208789880496 -0.06571122615488037
P 1.8838739366921127 4.053062882038819 10.260823587254196 0.05021313051928126 -0.9632769120018829 -1.623695097995468
P 1.0991033627398097 9.187264848494749 10.375341419587308 -0.8563899829396412 0.11902356442477567 0.6868283005559978
P 6.544327678354808 0.9183954408866309 5.79094175535451 -0.2816754070624633 -0.3290644378693881 -0.7120631638633865
P 3.8294118251072145 8.806788727809048 3.7980327850698337 0.15994241412632454 0.7161275637407474 0.8081401467943179
P 0.763713746519083 0.15437964013026365 5.878373832490403 0.156124325931815 1.1557869756515837 -1.4173334731746559
P 6.685058768661033 3.4953753744634235 3.3139819858736215 -1.2752386287527133 -0.29878481304924026 0.4059627909893395
P 4.031526321405206 3.0640737188043454 6.411040401450385 0.039327336844712915 -0.4758967969763159 -0.5787254968087838
P 7.934740376873024 5.922900180645367 3.0539993215960997 1.6934074748899415 -0.018591389848942177 -1.0727241455921332
Ni 2.773961378145826 7.4035270348007804 1.5524231825377681 1.7032208614359379 -0.012481163186146248 2.4292682553935583
Ni 1.592256000609359 2.1259194420676235 6.749462717025641 0.07867344274250321 0.6457623837536233 -1.2597598163908241
Ni 7.371675742782507 1.3240542815594172 3.401427155143639 -0.524046360098349 1.0476024108238409 -0.11480695524026681
Ni 5.432571703136805 5.3141252954141205 6.475533189296547 -0.28581488315213355 -0.47240883842771547 0.2301795531760165
Ni 8.843633733843106 8.594200524212036 0.3923703245371529 -1.4020873456488627 0.5995779147777609 -1.2622275612050262
Ni 2.816538868621223 5.762325155617246 13.56037991162829 0.6864984280204047 -1.5717796400730994 -0.02481294527862178
Ni 3.4342818657272565 0.16707526962057748 10.963111845921832 -1.2164794084356338 -0.04698459627965457 -0.024780035158157323
Ni 3.247840524280301 1.3763760604326538 2.025196043338784 1.2383638672135513 0.1722184032802002 1.0046878708485019
Ni 4.282558641704251 7.0067792617041 5.4367658618186 -0.8103595230431399 1.0401868350860604 -0.3953215092254095
Ni 0.3030894510324946 1.257228288381911 12.69549015260066 -1.1222618473109445 -1.6075585974449216 1.7955404342069659
Ni 6.357942446054096 8.636469414383086 4.317956966917632 0.26559135701640707 -0.6977110089067725 0.9968035830044187
Ni 1.2712929810405968 3.3468731674022982 13.061477956573528 0.0788315655869223 1.316450841324965 -0.10572376199207599
Ni 4.723903834541141 2.6043247259991755 4.070155598289847 3.5127822925123438 0.32722558488843645 -1.4107020839010673
Ni 7.8344359264361465 9.171133468949382 11.808442891720977 -0.5893976318106495 1.8254035403149853 0.7721578151624379
Ni 8.477399984779199 0.4716132717786242 9.308967457004504 -0.743589773716758 -0.20759112635253926 1.2863154553921652
Ni 8.048211773628672 4.633661624330823 4.803705067787748 -0.5387345582381432 -0.9309038949878161 -0.8444137844143715
Ni 4.673274681579621 0.7214252181468465 0.10311645381617823 -1.975511484849391 1.2361714875479226 1.3269571401729274
Ni 2.3206742886831773 8.40132533399568 6.477996380816692 2.7493911677989424 -1.5042616997267835 0.4620701755058687
Ni 5.2615229708096605 8.93350188307846 12.078662669730853 2.208213290226629 -1.76820472250649 -2.948557046202264
Ni 1.1615247879371027 4.674509082797006 3.855655007958325 -1.5080437924770351 -0.7620060714404168 1.591219493965266
Ni 0.14501221816470136 5.25644509307451 9.900844137691704 -2.1497255784033813 -0.8622973495630119 -2.798284036844903
Ni 8.515872156054353 5.993064668024437 0.4943599196662489 1.2902353592718618 1.1583616783572954 0.48542941905709946
Ni 0.2531981333440934 7.7422953567778805 7.3668924380651415 -0.12982965390134416 0.07185076339371496 0.04442403464132994
Ni 2.0726625107569743 6.851796448251705 3.9636305138392993 -0.044910487359445236 0.5883802462897287 0.5937646505300935
P 8.190663544419738 2.689619979815581 13.507493300682857 -0.013890384828847045 0.58988639852161 0.04805031854000757
P 3.084927618158647 1.8773652757277208 12.77967818593117 -0.4587164285422874 -0.29108924417719545 -0.18819446699348236
P 5.621079731470442 4.1712567986034 8.899209843198538 -0.15292767337138824 -0.23202149148076168 -1.2113953090445073
P 9.128733657437094 0.7534569945855413 2.0358446241436017 0.569430187549787 -0.23848267372507317 0.9138232853564456
P 2.0758607320929254 5.844347375902707 6.170424744151679 -0.09468267368656597 0.8606341029279758 -0.6819997688191028
P 8.578172011434782 6.961106416660867 8.944896715528332 -1.5069909257324885 0.08292347626810881 1.2692957809057173
P 2.7453550650853735 3.8631427735246877 2.7384611213167678 0.29599850855335474 -1.3536202512864106 -0.4401962582509128
P 8.66324282866621 2.775990658935011 6.5047267780876945 0.8247386745829473 1.507531371616991 0.33284190263394936
