# total energy = -340872.02238374436 ev
CRYSTAL
PRIMVEC
9.23248110410204 0.00000000000000 0.00000000000000
0.00000000000000 9.23248110410204 0.00000000000000
0.00000000000000 0.00000000000000 13.51266932934839
PRIMCOORD
 96 1
Ni 2.6316449057863354 1.388869844135797 8.988655063052043 -0.1805192098364117 -0.43284573142311256 1.9764039147566737
Ni 0.644667232167318 0.5922535131552439 1.3219131207398263 -1.0423136516210758 -0.5484607843869715 0.9040266109809978
Ni 7.626269514482299 2.845164498464329 4.5957943463939115 0.5078640939115318 0.29484896832994384 -0.20224348888738072
Ni 6.812260112171869 3.334929161083008 10.97688189137722 -0.48567753051216356 -0.5980306248952991 0.09395042350623174
Ni 4.550348380942355 2.559705412287528 1.878747143025098 -0.2625194029593027 -0.059273698059652755 -1.4153768636689172
Ni 1.9138379575644031 2.1285116103922106 7.003535887898286 -0.030304050300180064 2.8674490258763394 -0.8343810827687178
Ni 4.005973592034476 0.9522196458521588 7.134229968496306 -0.349578755772656 0.2501937915144143 -0.3085310938027267
Ni 0.4428470396640794 5.18771272048165 10.22715825565203 0.3354603140934029 0.6179595026087422 -0.4428486082720954
Ni 8.787180165345628 1.4140745178077352 8.325088018623251 1.0755474739735411 -0.6795186542684619 0.20321690854424357
Ni 4.9601320589383215 5.455639324862476 3.2661739503495673 -0.011918091593824637 2.32831106155219 -0.5939392284347448
Ni 2.9949153435041977 4.554170628158539 9.441896953297528 1.2206705636988462 -0.20948577227209086 1.5968558663154369
Ni 4.042312638031819 3.3801590864745195 6.958186863499314 0.39782730636639874 0.5134259042700253 0.30210359300982814
Ni 4.615335816098683 6.398026378238219 10.148338717164092 -0.706019528772468 0.3085130960805977 0.01907501435358005
Ni 1.0094056343957438 6.445592121372954 12.95466401372252 -1.3302172989814383 0.3475046468524467 0.33284318818553
Ni 6.022125906240791 1.492375190852318 3.1953682055419366 -0.5994491025093805 -2.6826077916258058 2.1462340203103554
Ni 7.404440688725645 8.608531654154417 9.208209005441384 0.573930646523302 0.15751015053574807 -0.938689452470506
Ni 8.377073350507715 1.369518563543715 12.67049193542479 -0.5512144358727087 -0.660649842388417 -0.24695831529625212
Ni 1.3892391433837372 2.9488452623236214 4.512501670765293 -0.5486991256500227 -1.6230420377925017 -0.38475967454916316
Ni 5.738541013747288 4.213150470129091 8.809989933394673 -1.5323265762837999 2.1028682517302104 0.8550308978085855
Ni 5.60356213862504 6.372526265167927 12.451654433576454 -0.3453971135911406 0.5977298058254287 0.3406485431625617
Ni 3.384590677449805 3.9175079571903306 0.23371010581101984 -0.6315351844106478 -0.054525127631073846 -0.7050314538275857
Ni 2.286996382645872 6.65723752036765 11.028230182058985 0.34645666520390656 0.2899975537749135 -0.005612203980454851
Ni 6.225868301329561 4.262276502586374 6.376588556895273 0.8861551300172158 1.6689084613073129 -0.205219283686253
Ni 5.25044743022554 1.2345858508274583 11.38862654837975 0.9570476432627196 0.33307073081530375 2.2354119621286084
P 7.805739716500179 1.0300586948368158 10.398404163418276 -0.11737523018807529 1.361359014691565 1.3544694866605835
P 4.367212883888665 5.782422996883818 7.211766192097652 1.0441291075632597 -2.087636008161488 1.38849752277957
P 5.533284491741964 8.35581094630754 3.4438659764886137 0.6627797442472263 -0.939847220224033 -1.0152067681019548
P 9.098425571509875 7.184218314697532 2.4169703297104084 -0.4933810698040083 1.147551732225985 0.6288396398563556
P 2.107960107244322 4.709627146579088 12.094365720427106 0.059140772026214275 -0.7259057261734336 -0.5672774028728423
P 4.627236484363565 2.511401070656911 9.842304123388285 1.1734175442491535 1.249610386661648 -2.098682752893953
P 4.746529373929542 8.496966351351594 12.784958083820186 0.06646198827797586 -0.18092235881210134 0.6394058454079762
P 5.56861719728867 3.0467741903962415 13.299872025223612 -0.37924722937136623 -0.9454920772146362 -0.6243018998870024
Ni 3.26702426186795 6.810450545856961 13.420188796954506 1.9036920889142441 -0.34850866263692887 -0.1490648479818723
Ni 0.42036594794570203 8.532899168176204 4.220614931178088 -0.8575588064367617 0.5039598737611192 -0.5062036754899734
Ni 5.599222872461738 4.87196186349253 0.944528989013798 -0.17091305420521533 -1.2382569093220417 -0.5410027854470295
Ni 3.6191510947792085 5.616229102829398 5.209566926726647 -0.7104084018687831 0.1882224920179404 0.24598540986002157
Ni 9.027723230491668 3.5603124921010894 11.768832126360046 0.24491197429018466 1.2811868759163485 1.832698788424818
Ni 8.315077239259704 8.739789839353666 7.013737779622643 0.14301092847830854 -2.212167903999003 0.19907383291014746
Ni 1.5157979956529435 6.300199007458782 3.7941684711150456 0.7300997096501233 0.8470072561731606 -0.4498654059095607
Ni 0.6168479198199609 1.902029614111506 10.666171969122487 0.9903413723188428 -0.22629873006437154 -0.852328411275758
Ni 1.6238272581567357 9.16616428606336 7.28519396156566 -0.5374137825441905 -0.9746882391626183 0.6399048965315818
Ni 5.798598303943611 6.909044212575873 5.892037476409394 0.5630921611469012 -0.3735625202817631 -0.058444517290138054
Ni 6.350654517208652 0.49426088096235454 0.7922789113134917 -1.2253867382275927 0.9590070809819355 -1.0259730054795235
Ni 4.949643960296812 0.36321596607879114 9.269651167817484 -1.210334728990477 -1.1141693001107973 -0.05213297324981345
Ni 7.16008460884462 2.7029011956764535 1.7855507848148355 1.6955566600224605 1.5774077848931545 -1.6409816529900578
Ni 2.208584919826907 4.761919920087462 7.335001351135395 -0.7524896473095493 0.3063433421227885 -1.4911557584724449
Ni 3.3841382858710785 7.768338935165006 3.6424077149182605 1.1019971835246378 -1.9081704364005718 -0.05049440920512594
Ni 4.825153183816072 9.05308485634398 5.27800823309934 -1.448511698549673 0.1790894193684206 -0.06846436341998531
Ni 7.645860839585542 5.763459480502073 1.7481749311788983 0.24117641850715238 -0.9639693100832173 -1.712183469945864
Ni 1.889722716673889 7.608238478701605 1.616899204265372 -0.28739559737569215 0.32616294795187695 0.5306857197917377
Ni 2.538673820117317 0.6516931503593858 3.5249964050205405 -0.35527272083363975 2.2532055386666032 -0.6509318437697047
Ni 3.41056164706122 7.671656392054185 6.984847499456259 0.7775370771964804 0.17557472134694277 -0.2508280826643035
Ni 5.655947236945398 7.076549118960481 1.3250632433247587 0.5976611573710223 1.4100734491781328 0.3146248654052904
Ni 7.716323136092587 5.411517297214785 12.43480423214105 0.005927421228028501 0.4237311707163541 0.224761981704871
Ni 6.315044837225991 2.122353545432803 8.36058598558341 -0.2723045073705246 -2.136141926181676 -0.001861992909403245
Ni 7.643534254323517 5.603082049602716 8.117439360739391 -0.41729081440764904 1.4882007896091787 0.10157168749691539
P 2.617648464289391 1.4796620642419664 1.52947222355606 -0.7550440383002868 0.7027560275298478 0.2284592280508001
P 8.961258598343578 1.479560506948783 3.589992149409947 0.27646275251327224 -0.8514573215247142 -0.6445297968981029
P 7.729553281650055 2.504975263742747 6.847855943432733 -0.5962118265190054 0.15356222163159358 -1.460698727534168
P 8.5335454418601 3.9959932798588835 0.46854195808765886 0.40440650224581315 0.02424987368630017 -0.056694367368250745
P 7.9604391714624505 5.996099541742185 5.968222064763277 -0.24000630945845114 0.38717599730013963 -0.8507106731666768
P 0.6999199391479346 8.866874943051187 12.85642672077787 -0.0467951059766678 -0.24484075473261704 -0.7922692412003324
P 5.8892612693130015 3.651714055966361 3.420840168379524 0.4342719223466779 -0.6702817090512262 0.32047258243531906
P 6.0023776289571735 0.030891882090222065 7.263708131320483 0.7001882668026715 -0.5632999062823331 -0.632379277578498
Ni 3.0469773049826085 2.5598623644679024 11.06792985121259 -2.0499184390060567 0.676057692303055 2.360975384554431
Ni 3.75591183877277 1.2340872968427385 13.394474490320407 2.0525034261244137 1.0937231164413035 -1.1906035691101367
Ni 2.750697750841151 0.16009030073408295 11.651001661815911 -1.0905565457878639 -1.420567149620605 -1.037665097105471
Ni 0.8422072463869263 5.406217853006839 1.652112810804618 0.39914808206035135 -0.9751667214609335 -1.4762351326068706
Ni 9.124553493301665 4.065283051253718 6.614613924418477 0.17023068342621003 0.6218809491503354 -0.41192337944814866
Ni 4.239980060491967 8.847828334338656 1.6327901509042515 -1.1233674216702976 1.030047175548897 0.1390185194894638
Ni 6.057763283667049 8.218126954194128 10.938127628298345 -0.2277501177989174 -0.6673380530418701 1.5764544198409494
Ni 1.0497146473084484 7.009198168617334 6.291876848906444 -0.6750107390957795 -0.7874404523531212 -0.5281693811277872
Ni 7.12825101367215 0.1512308117759906 5.135692305168632 0.7693946505950039 -0.18400485439216696 -0.8821151556198872
Ni 0.1413760613446986 1.22719063338745 5.8781195110026365 -1.196842350930997 0.5790260587683382 -1.355932187249039
Ni 8.691374707948667 7.354400640629708 11.327008968860879 -0.05737082460998506 0.41138473333585923 -0.4626263051196549
Ni 3.5124420770868032 3.7167476535286816 3.6637984506070937 -0.5123570966858789 0.14625000424089651 0.08414449315940346
Ni 8.263707713871183 3.552824949849096 8.90718672570825 0.7129784765888043 0.2403886324985344 1.1514754927604234
Ni 7.123053126757387 6.3858487355373805 3.848151711930867 0.23671478319137296 1.1791246219362597 1.3351766998692425
Ni 4.580935591153025 4.426346925965136 11.450865473883281 -0.02729380271894654 -0.657974609549099 0.6543578387321182
Ni 0.7029343442592488 2.9963740755335624 1.9430541443170952 -0.006595393829330577 -0.6763011757724289 0.2973737916343266
Ni 0.5892483405251282 9.049253376646599 9.755850246197296 1.1355307965057089 -1.9986514133009645 -0.18815795732859206
Ni 7.984794456864127 8.204028955403999 0.28281305706530735 0.9384529109796677 -1.097503409419342 -0.1259745418213121
Ni 1.8654966860089928 6.665048199461591 8.621191232373816 -0.8054011505965999 0.6366712200856326 0.10521185535266395
Ni 5.7361498011168734 2.0805396380847405 5.755019146190394 -0.7553975649849636 -0.6992549563551247 0.22506460054695432
Ni 9.072362277086475 4.648360401345761 3.6174227742988467 -0.8929549265478686 -0.3478005808263107 0.9040903743393978
Ni 5.58661130314457 7.381322555804569 8.359301747448699 0.17353095144403663 -0.5693443127042002 -1.1587080059531205
Ni 7.486683631241992 8.882099304547534 2.6382812132718256 1.5284285267809743 -0.4212012052056488 0.27693763526716175
Ni 1.4564146765841126 2.1084863586726375 13.03638809079551 0.3204417291973836 0.11765959419771349 0.24635667715651122
P 3.4436693246390857 2.1552581084243005 5.146597711960315 0.0018421954150613434 -0.5978028251552092 0.9226935912628819
P 1.3343243452149862 3.321006579435651 8.924847538992886 -1.2657507438669364 -0.3714470166006571 -0.1893506920851126
P 3.0114599498119317 5.302213952305599 1.9689309426202852 0.37064406108338743 0.8752683079013829 -0.020137394179823385
P 6.692200926666415 5.638544009886202 10.322422689650761 -0.026767497901831316 -0.2071339842104626 0.8724686336690587
P 1.4779263577766462 4.862600127557238 5.295980181000363 0.2722600272858343 0.646097655605855 0.19499991995108998
P 2.360625420204008 8.747545123560416 5.250942291217781 -0.476005040419406 -1.5569258628897187 2.13937328863478
P 8.994218556222267 7.113839110521272 8.929023390238973 0.44259638305197324 -0.08206292804002642 0.38843275252537623
P 2.9547448178094706 8.18528701857102 9.59442769842627 1.0284492349341576 1.694669886542133 0.02599950938755522
