# total energy = -340867.09919799666 ev
CRYSTAL
PRIMVEC
9.27350126790962 0.00000000000000 0.00000000000000

0.00000000000000 9.27350126790962 0.00000000000000

0.00000000000000 0.00000000000000 13.57270648546131

PRIMCOORD
 96 1
Ni 7.0970384634844805 6.962155385211717 1.7376863172636232 -0.20363059904289446 1.660045354489728 -0.18878119273488775
Ni 3.3501358524400664 5.272486330993026 13.446860839993414 1.213953813800303 -0.7315140734991467 2.4251694027338364
Ni 1.1978674529784332 8.224121280061675 12.204727255297744 -0.11884101610032437 -0.283840275924266 -0.37176274806886295
Ni 0.30872599074556684 8.467216846499781 9.625438226172493 -0.041221211433316106 -1.0077323141017807 0.8583856732134314
Ni 2.4160067800788507 1.5223101739444664 6.677609122089965 0.6070508261160384 -0.12504585935945559 -0.2179608996226375
Ni 1.091008896021605 4.454869530575366 13.828687987796979 -0.6634204631550188 0.7640670677345035 0.47202882938047735
Ni 8.36914956889686 2.699293701706656 8.275930477840587 1.6101001329198525 -0.8569386563542597 -0.4454073701382071
Ni 8.059498082708762 4.407333562254555 6.219828288189102 0.9751302117960432 0.7129494231230818 0.5062548404428829
Ni 3.8212853659997843 4.78935545358811 3.852924698172422 -0.5045707678722406 0.9563156501927015 2.101550304249735
Ni 3.7872145217526794 8.403498618186811 4.789374000590966 -0.0028783499890595587 1.3207759510628803 0.5512954256222893
Ni 7.431274001958664 6.366703858508779 9.681072743290526 0.14777646818775195 0.6517096024759937 -0.31697073992964764
Ni 3.3796070399787976 4.266441255056335 7.91132700423957 -0.11740274099190104 -1.141905589683801 -0.047051444961848
Ni 3.7022877956734783 8.106579649459594 7.912399021004666 0.06963730068216394 0.5618940270737419 -1.2859940674970047
Ni 8.237484395619672 4.991935092286532 2.3444542977593597 -0.8588222465302177 0.9285598202356717 -0.8131465988699739
Ni 4.674985360474461 7.487341591593393 9.826693608866972 -0.4859225566434341 -1.2196320951320028 1.462047785362895
Ni 6.353331469449354 6.059621132216283 11.622227100689392 -1.2023401408207746 -0.2581508415779618 1.5162805785645306
Ni 3.6848907069942274 1.778768855940569 8.926429509021157 -1.0811380806874413 0.790151166416065 -2.773173357820205
Ni 3.701045146482103 1.6250605697686145 10.984717462959264 0.33343608457452256 -0.2509679506762775 2.518757557804643
Ni 1.5688075101053218 2.9197897451643064 12.1476674010102 0.007802012542922047 0.13166156490376035 -0.21662546864066562
Ni 9.078609522157748 4.9359324171617995 8.534897641973012 -0.300109959618567 1.2741366539377863 1.1535604003139102
Ni 0.5750182936561034 5.624183872656457 5.195428170875629 -0.20693806614957264 0.374796135578548 -0.48211886662662784
Ni 2.3269811663683977 3.697298651905122 9.938180570386601 -0.6111784751311669 -0.7158084898384318 -0.026791923381863536
Ni 1.3922678634172072 8.633295983576918 7.477095299865406 0.694192711340869 -0.6562686826015859 1.012939826444649
Ni 5.855010596705092 0.2636790302080775 9.438474236528972 0.44617047355647677 0.3526702502137862 0.044215518174949654
P 5.333450329381829 7.074531675518307 5.520440284829352 1.147671802743617 -0.016236516463520423 0.15650613475126596
P 1.525027309862921 5.859860637952026 7.237279770882443 0.7992916952647525 2.9204798283500737 0.3550590621609369
P 9.074121147466514 6.696135723243168 10.999376086666777 0.7528370033466389 -0.008372283224095257 0.7203462298077852
P 1.236528680432483 2.013981946164729 8.435071181149166 1.245891543049164 -0.49960082546147505 -0.015271838557405956
P 7.376393420506741 2.4342199368837814 6.176342057941973 1.1913846702505353 -1.3290006529655176 -1.9857105368695804
P 8.982999722433293 3.143021471543268 2.503607983969937 1.1082920153944138 -3.029402042674789 0.2442051780311472
P 8.226439655418718 6.893485107136101 3.5748476296469645 -0.40308058434553806 -0.6188138801892376 1.032834251375731
P 5.918552628490927 2.2311673496125226 10.961155350530564 -0.6324736370645172 -0.2045132587581639 0.15421965270993437
Ni 2.4067054581463942 6.89623006355884 4.056257345186811 -0.7463609087039921 -1.2859809548708818 -0.08760571223512655
Ni 3.9443818239573423 5.689283852682226 6.343000788858371 -0.9566318958815395 1.3943393262723276 -1.100590018764466
Ni 2.6824715701159514 2.2613896907669355 4.363720285037862 0.4595900893964923 0.05624185321186442 -1.501805267766491
Ni 8.719864119408905 0.45705008198832453 12.785598055705167 -1.9389367710491512 -0.23931468270806522 -0.6266205207178498
Ni 8.245218495810768 3.102997039379277 0.3974075575530349 1.9100355146337686 -0.39916607978248025 -0.10488198281707099
Ni 6.669205475095756 9.00943847500501 6.495368126723811 -0.08585736208545212 0.08872028545554397 0.6612067433331517
Ni 8.580288649413486 7.291281224398976 7.798063239846303 0.018480575302690757 0.3391279927529773 -0.9188593051184564
Ni 4.743395980510088 2.855784038307062 3.143968296039085 -2.0612112383110563 -0.32434774912000913 1.0855130698266853
Ni 6.117079747065239 8.42141502294604 3.86478736119934 1.1111683085009445 -1.3170455374861705 0.22216568173260448
Ni 7.62394026763037 6.732849515397302 5.665790364164095 -1.507341624203688 -0.14964360330347776 -0.48852502726328767
Ni 1.0737601833652044 3.957578016489631 6.932938291612117 0.8124428879347299 -3.8025183650957546 -0.6702295156570521
Ni 8.799338026648341 4.408641125955928 11.992612602430874 -0.3488693884104572 1.1777902193955523 -0.2127204771593046
Ni 8.130412548129994 0.7594237242555935 4.044612609443456 -0.1666085132925905 -0.24667163729376873 2.2143338013020704
Ni 4.423534369249572 6.9230861236948265 2.6905988667676017 0.25393808904819487 0.5012399037267948 0.4467317453765855
Ni 5.951714669598071 6.930208172791663 7.812789560114241 -0.02847265351839613 0.06762464112750935 -0.933226886694038
Ni 1.0827833002548162 5.9471335598925545 2.248455010974921 0.07551561383981187 1.0227539843215934 0.3993622549536864
Ni 0.4459654657312303 2.4825256058231306 5.068536996133663 -0.5262593085892678 0.8985856424710847 -0.9441736155135289
Ni 6.235632189322992 2.1306518676325634 7.878943009902249 -1.6100391977749307 0.30164902197091276 0.5284331763121352
Ni 9.632200463413918 8.829495453292758 1.114671162265729 0.6343058051772495 -0.18606970734099568 -0.6137009844427043
Ni 5.804108347365855 4.152933597575507 6.22091421520634 -1.19656852844432 -0.2903233125454484 0.49335355900018263
Ni 6.361751808746134 3.01170869132035 1.7194852160105496 1.245021995960017 1.5652456956093237 -1.0090335494117075
Ni 1.7678446712581821 5.486231265410967 11.45936865065826 -1.1187921435947892 0.2126942519070595 1.4927045910168035
Ni 9.586853041430155 8.015588053446367 5.555214060484712 -0.0002648236256124471 -0.1935845276608021 0.4626206486927001
Ni 4.935672759121811 9.201316493055323 1.8731823739807905 0.3376490942146056 -0.6099219770162463 -1.4145494826716154
P 6.0443013078569425 1.2679843972768432 3.116578082220835 2.4165783186307155 -0.476454726362315 -0.37810385979554234
P 4.648741351432735 0.7996874127564315 7.344300614114266 -0.40849661315478686 -1.9275069319456546 -1.0148822948830005
P 1.6309770636797885 0.23929899495341275 4.608014915210631 0.8176483433950692 -0.06568577223358366 2.578317676756463
P 3.804797080460494 5.641376944304288 10.823989136206183 0.49181629642004976 -0.0704489979501819 -0.1737600367357072
P 7.931227010954285 9.429296252165509 8.667503148295017 -0.29979319970909657 0.1401742303604618 -0.7760113845805732
P 6.439380289201364 4.8887952094024 8.435071181149166 -0.6881902139005309 -0.5449864526851259 -1.0109539063628719
P 1.7491400188775588 4.509444086480159 3.7084296356693565 -0.29684851525847583 -0.5270890035794148 0.24402005860353457
P 2.938763329086347 8.816892764851872 10.986699210214464 0.5376832341554934 0.2352150587173949 -0.4022840565861717
Ni 6.480285704001031 1.3977763232655418 12.91023669695023 -0.3539789417228807 0.6517489403543614 -0.5554744967006433
Ni 8.116057167919184 1.460520833928555 10.693663983885363 -1.4003737053918657 0.04851028889556162 -1.1257505771904934
Ni 5.237580871617386 1.0399768176623732 4.992381147705227 -0.7376222432794135 1.5985903325080404 2.3030286328363174
Ni 6.34548608724112 3.741533253717503 12.821022831160784 -0.8214461198746047 0.9416086829998299 -0.9727234021267633
Ni 9.079416316782 0.826722451469982 6.580305981004726 -1.0981366721279668 0.40767334592254306 0.9684551137687127
Ni 9.06221397163274 6.796280265166001 -0.15777193449777951 -0.7339926169466262 -0.410576378501951 -0.3485886239452448
Ni 3.916329482137121 3.6870236123227067 12.11099441226235 0.3082631848533207 -0.8931978957966101 -0.5902779775330737
Ni 6.249792826003811 5.402000051938879 3.773361765319276 -0.28083337077714216 0.8229414734732085 0.2769602609749811
Ni 3.4706264564963076 0.4955712795708091 -0.4493827510075118 -1.7593858386632795 -0.2055617546273363 1.0685448174034629
Ni 7.8587731442959745 1.1016919696668592 1.8777699751373071 0.18872514268597174 -0.10203602872784363 -1.912810763386061
Ni 7.418235458950654 3.2738427561904935 4.0075723900390505 -0.5395773658544126 -0.8217207136922299 0.8661722591373857
Ni 4.513107119544288 2.305401728545041 0.4638633234876026 -0.47606880377780586 0.21946936584736396 0.3297285538159483
Ni 1.1274723036371779 1.2181486006018458 2.8352979463020866 -0.7708591509556724 1.7768973651844815 -1.9187546396743216
Ni 2.1105469165362867 6.375300394332693 9.294087673992616 0.0866160946283476 0.5848848315419604 -0.9034375712467472
Ni 3.4194552756156535 7.304143570879851 12.571801189679228 -0.22174196393162454 0.7960492770680547 -1.5243345592172588
Ni 1.1265171329900763 0.9393315066624199 10.830721698243037 1.5753969251107125 1.20702983298696 -0.2052740481835884
Ni 5.236245487411729 7.043335616713936 0.2662125507982542 1.0272534148538437 0.14535628878203352 0.3865180520011666
Ni 7.225096244706111 3.791239221372506 10.118479694553697 0.03433245473328281 0.38473139241438903 0.39498675159381
Ni 5.079829338822748 8.870660526132415 11.76213456203594 1.256326879449875 -0.11955912521327151 0.19209354493757239
Ni 2.625699194372681 8.448094886554891 1.9631566668873457 -0.32178641615073617 -0.7052875357024498 -0.0639847303820769
Ni 2.701565709556558 3.4953774318081 1.6972937270929336 0.11996638795401919 0.019340352199824756 0.9485123520981988
Ni 7.447715919990813 8.334123554002655 11.418256436776744 0.02768563884072651 -0.47742557491601645 -0.45405270451803087
Ni 0.494080100541159 8.275394469458039 3.2896985889323824 -0.20255124993578666 -0.8409019146063711 -1.0073703027766716
Ni 4.800001433227651 3.888805729898306 9.906582968970392 0.5960326206286639 0.11744439286311387 -0.9034108317738699
P 7.410714649292406 5.461378281583466 0.22189448747301913 -0.9512716600108907 -1.2893259600837148 -1.1022308968019985
P 3.6964454897737293 3.321898040591282 5.81180628090138 1.0370385192650657 1.1246000085258179 1.248432821413779
P 6.716453964872294 8.954084944980252 0.40071356081217835 0.27859188304113314 -2.5401203397511347 0.12562872844611914
P 0.11561830640587992 3.312810009191673 10.184362358100003 0.6979367517643335 -0.07853177495831637 0.9934794037271921
P 0.9593437227444157 1.4773707860235439 -0.006311545072014009 1.5480427014674758 0.604228783286211 1.0714666190359483
P 1.8835965160846275 6.707161916441265 0.4086386951326943 -0.41513622995849153 1.1210022638722308 0.10825012795835552
P 4.772894988553104 4.973740482484458 1.947005009449898 0.3176037455279563 -1.1645438959086072 -1.463943716834027
P 3.258921692392564 1.2733352076008986 2.188001982514809 -0.06803087542699252 1.2855708639166568 -0.7749729160137299
