# total energy = -340859.2591788415 ev
CRYSTAL
PRIMVEC
9.33679080965787 0.00000000000000 0.00000000000000

0.00000000000000 9.33679080965787 0.00000000000000

0.00000000000000 0.00000000000000 13.66533712720917

PRIMCOORD
 96 1
Ni 1.5879734066982374 2.0209110696108628 13.682145701893997 0.1105576930456096 -0.3882491757596604 -1.536925765618708
Ni 6.0188876381919085 -0.20290247410092338 6.440350384938137 0.8295098707193457 1.35399486101701 -0.758731514454203
Ni 8.210577952391501 4.232404717568735 4.876830967606383 -1.7654179037899724 -1.0991802829011328 0.7519358316886082
Ni 8.547757486579506 4.701167647633892 2.662322469827412 0.8732013980700252 -2.3623822922042863 0.21016068685192837
Ni 2.1358469670952682 0.03011395208419613 4.263421537344787 1.6713260696098702 0.5077599642334998 0.3826413426545797
Ni 3.1894198028416407 8.237617299192056 9.482322650276652 -0.0409684719925617 3.41277846372318 -1.6582108723841509
Ni 7.422338043916602 2.9820870214006403 10.05233187482933 -0.5621673353397866 0.13176415191989566 1.1769980625115601
Ni 3.6135528718202456 6.609234260949342 8.062713060329678 0.7738238900109511 -0.7667201890866344 -0.016648664300274552
Ni 0.9028126047885372 5.683743524446762 1.5232068884139092 -1.502973062822347 1.2849689686666 0.323959512542655
Ni 4.867969419247126 0.4927239368656631 4.351685957594915 -1.326748109485915 1.3343791436686117 0.3764367565057646
Ni 2.2943109843255964 5.947265114259911 6.173534775252324 -0.546272261376085 0.6341643945033788 -0.1546150883761402
Ni 1.130834781455833 6.671389278784735 8.54962297742576 0.31139915937914114 0.16233662539011395 -0.13130778110876742
Ni 0.8851660697564065 3.2454592225574332 9.088829194716798 -1.9140646903978196 0.19364854812951812 -0.6890217086628908
Ni 8.927073958651112 6.898992233535131 10.301559771266454 0.3033222959082776 -0.5270496657010472 -0.040420569908891674
Ni 6.405244050694322 4.984828695682124 7.75756618878095 -1.0148277874959812 -1.1032585667355645 -0.42223401734553734
Ni 7.213128567480122 8.348286283179275 11.46296320652927 1.204524550066603 1.1468153682805928 -1.8075148329600226
Ni 2.451159736709068 4.6395354900957475 8.29454558141317 -2.385639205849698 0.22876030423098667 1.0042600392824639
Ni 0.39208733483189634 7.929680594485867 6.3989715944855465 1.635129822194971 0.834497553741924 -0.6488991296103921
Ni 0.10103248197311192 4.835636111936932 6.885566861724178 0.7822820480806334 -0.3074129210378835 0.2736720771420125
Ni 9.242237339608556 3.702056313920545 11.244427209540621 0.5611190965809304 0.393276967991555 0.18081462958964345
Ni 3.3772013438819637 6.460872651605134 10.668542342397615 1.9830111356605462 -0.6959456894762337 -1.1232270394376915
Ni 1.612482483131752 3.6321144123725606 2.2559152986046276 0.14067996635228677 -0.8815014332952883 0.40984078588750705
Ni 7.294386659747122 3.726938861994951 0.9647183303036351 -0.6522904146801283 -0.5749161503650227 2.2202625080816794
Ni 3.2451511084536975 7.211139830992373 12.760432631039038 0.9014485658411765 0.8835205206078462 0.8043997059152792
P 4.730233078086285 7.618448002548809 0.8975643945549071 -2.1569156683939177 -0.19061258951667173 -2.888115295976439
P 8.356483985696846 4.877110137657949 8.779378062506792 -0.04901782465959945 -0.0754374523037088 1.4823412455046086
P 5.3836870713633855 7.8071632226913605 7.850162880065421 -0.1433945370699724 -0.32508154196224015 2.2211459391278976
P 2.7868360475424847 0.015283393224388627 13.202765906757394 -0.5047322331507694 0.40772039711039454 -0.6490762786182047
P 4.395182332251362 4.571834418393113 9.057618169687483 1.0306079331483735 0.03257202039875035 0.8870079649358144
P 8.821064033384017 1.0118653902497972 13.178864655419432 -0.3712660109381025 0.15986862346559566 0.23518034882471756
P 8.892210380973877 6.38148191754259 5.275243978355882 -0.5421975770860792 -0.6798570114444873 -0.08084731046537044
P 6.115271331915021 4.607566317635422 5.528367184007505 -0.4411498804134338 -0.7924852138658803 -0.1490836170349497
Ni 1.4078853814602827 0.7635646371611869 1.8433719883219934 0.3183743051453936 -0.7832423551113736 1.5986985759511305
Ni 3.236626618250346 4.043334699367336 4.306754518158343 1.0157269022714828 -0.5293600590017786 -0.12943421823513837
Ni 2.6600144150867018 6.985656327804039 1.263293034651773 0.24717917305780657 1.2822070896507465 1.1784862170213124
Ni 5.4934410498304205 0.8130935124971357 1.518874617379566 1.7387781897152568 0.7721030506651025 0.797653131220065
Ni 8.031255544017373 6.816987197986346 7.4532530926705105 -0.8535566272559043 -1.872108143460376 -0.9673744791100243
Ni 9.25472996599638 -0.17786773633285372 10.574388274370625 -0.7041135699990068 0.08081902833059629 0.5174172848176056
Ni 1.923425634547119 3.134911616853504 6.222593076320748 0.20472151811422806 -0.16702117534997687 -0.23261798741418002
Ni 6.524092063617068 8.250334008564417 13.488343798002504 -0.3575499469035907 -1.5461164309790403 2.8129028151993425
Ni 3.4616993026336997 2.0503406349131246 1.5337425234034627 -0.5226877891879257 0.692173109807679 -1.5492778594261576
Ni 6.815110502990866 6.5554636814519665 9.402175636141303 -2.023343516731005 2.442034553920291 -1.226916801718874
Ni 5.038552591224389 6.1678561389525655 3.5096960105628905 -0.6977549747708305 0.014166007087736894 1.2066734780888058
Ni 4.48091274741804 4.499987811476581 1.5226606861391052 -1.9062565072073108 0.1208369634844306 2.2352065309860216
Ni 1.426876414399623 5.457055575216551 11.07720434865228 0.16495606529083204 -0.6915172213912348 -0.09818194508907607
Ni 6.068484672102319 1.0361130365346878 13.068285304626027 1.0969349385103817 1.974712900207496 -1.1254183906620554
Ni 7.084215493835345 7.456716108460678 4.9904447754820325 0.5768804731802452 0.3348980138320297 -0.9668679717872509
Ni 4.150371671646884 4.488372843444851 11.585705594987413 0.5255445419104303 -1.110917625942719 -0.31883376128031543
Ni 4.008256375496588 4.563543347965318 6.834008168019984 2.788604090552978 -1.7498215920136122 -2.1485924932402027
Ni 3.8389803542624468 1.8809619089777383 12.413524160605805 0.8295754338499584 0.3105789774706909 0.3110425473706708
Ni 0.6522178021457499 8.322208625854016 0.08473511324370246 -0.11230552897465175 -0.02963659191951025 -0.6263497835549664
Ni 3.7068834348790696 9.080384067237135 2.2459800192778077 -1.3231917595932243 -1.0488511956292774 0.6067983437856
Ni 1.2447996526739207 1.7716094125246626 10.8831568871569 -0.024653022661989803 -1.245909540771293 0.7146432658857369
Ni 6.785335476420778 2.6293990773246088 7.985093515524063 -0.13514129592224466 -0.8412150749714158 -1.1545654445396567
Ni 7.121329238148952 5.478446163448621 11.206355510468127 0.8011477746368847 -1.8401197634792374 2.552626699748262
Ni 8.425865679783493 7.007541765960289 2.8765812828487487 -1.0491129339310965 -0.3786715593735543 0.8300731994219834
P 3.374745767843101 1.4338043133381635 6.088071392308882 0.19037039159887859 0.3132680942670798 0.3489233815768442
P 2.5200465808715333 1.001342826767675 8.92556980161742 -0.0834603226081853 -0.6214626306659943 0.43462956279641274
P 3.855758567729504 7.943480371616813 4.550133848699104 -0.35123171799504666 -1.8928404909117207 -0.8451480914772348
P 4.603206036228012 2.3169900497187417 3.1762614632539257 1.163317479700674 1.0966161217183823 0.8072042652436098
P 8.437574015725447 8.685288418337857 8.031733587717715 1.0185597437345877 0.8682509960432854 0.6257136926328644
P 2.353039399855809 3.369106346065637 12.059249895735086 -1.5382671101379508 0.9993834279164531 -0.2730640112443684
P 2.9880252204908175 5.685284094965439 2.987065398373726 -1.4867694564792913 -0.4723301626709801 -0.09715273249361334
P 5.648263718562054 7.051247284735634 11.298200590075304 -2.4152711697835176 -0.8457168194965113 0.3957025467139121
Ni 5.931756704371886 7.914162847806819 2.349822875348629 3.7443145030615126 0.9747334905782568 2.8209773646773613
Ni 2.316121728153669 5.116897604692435 13.530760839616773 0.8866827203859117 -1.242822674315853 -1.190786117434588
Ni 0.9251480762720624 5.084816390739841 4.369190573403507 1.2083768339331575 -4.434279549474279 -0.61455201958909
Ni 8.11363405120705 9.305671497814002 2.02833195111538 -0.3915638419551902 -0.7845721296663908 -0.6294896147355288
Ni 7.660351520656851 1.8316449787979956 5.813521184940202 2.1510949479470822 -0.7801945694239854 -0.4106262579032799
Ni 1.8802429760690218 8.272536897615426 11.29323995300516 -1.067277777765581 0.5374600624010938 0.7724352371935407
Ni 4.744051528799276 1.2087129553727647 8.06891735796399 -1.2390781196717564 -0.07623680827655256 -0.10364862463060213
Ni 5.320495669724518 6.514885987669088 6.07462547955768 -1.2827004843473973 0.7441495028749701 0.018005435438485116
Ni 0.1772328345433379 3.810652530300815 0.01381191495927552 -0.28186592580671455 1.1222582477665188 -0.014873574677722769
Ni 6.0756833379805055 4.109317801521869 3.2679011334586128 0.09376530407861916 -2.0240109751116755 1.6598440371121994
Ni 8.813715978849473 2.1311785715841225 1.7225707187173844 2.9890796889066586 1.076168652497308 -2.188457704866257
Ni 5.008226693983986 5.790014879862482 13.371341668664865 1.5795957936834084 0.34785714509585897 -1.098604870013637
Ni 8.680685380363867 1.1748017303798026 8.913516938086746 0.5570546967035698 2.442672444614606 -0.4060589502475716
Ni 1.1186129220076537 0.6495250716149209 7.231231671593242 0.8271125741317626 0.6097132034395499 -0.2679223191424289
Ni 6.609280944904453 0.04604251756822508 9.19766069823083 -0.5183984177839523 -0.3922343856596535 -0.09097822825178524
Ni 4.5520590950079 9.129131453164518 11.434252574135725 0.0031758266248203375 -1.587500650352782 0.07087682951621987
Ni 3.048733035717756 2.8581317837887013 9.856699026218363 2.118187141475468 0.6474135462038011 0.4242371638184952
Ni 7.248524342245628 1.9489430844110414 3.044241105556931 -2.62845470262217 0.3892516488822458 2.494283483922678
Ni 9.257437635392845 0.21559210677931948 4.389115285445077 -2.219117338733643 0.10269423113713282 -0.11994710468030956
Ni 1.4259053881333048 7.0638799629887945 4.160398451525722 1.1766134254786318 3.621779325939053 -0.9311190963224157
Ni 7.6987350685494915 5.844709801671063 -0.0016955612496480999 0.46831178554020636 0.4139455520845 -0.3069444660418972
Ni 3.3888069751226717 8.547187942327147 6.565183280906171 -0.19989838569397186 0.32114878256673723 0.3190880433829666
Ni 5.567920631815238 2.383496012170523 5.95393251672893 -2.6322509364398083 1.1365759499407717 -0.4301869536440269
Ni 7.356728413402961 3.390777038028375 12.501064045872603 -1.0021226812244872 -0.9155988891996296 -1.3427727670489455
P 5.774889278406369 1.4638594436389192 10.960721344895482 0.7629728062290602 0.7928497962941506 -0.9104834223499352
P 9.36340087670483 2.573191595370415 7.19624858299092 -1.322744901863793 -0.11841009921049285 -0.798272767081935
P 6.913847068051596 0.13927877903772376 4.211274625806188 2.2694713657061625 -0.34307797853966077 0.07533589372883799
P 0.6819386753279074 8.161251685420735 2.324761060886595 1.4492308361038846 -0.032784907740504826 -0.12091821034432723
P 9.415873642250107 6.475148605078217 12.367717863850443 -0.1874413908775417 0.4204532712960308 0.6934262654884896
P 0.8587700278572868 2.0708162176250093 3.767205640636787 0.3694068462421767 0.5657280561078515 -0.5939261158086223
P 6.8409640773315905 5.643828742826466 2.028141480578525 -1.4358778118357467 2.224950400475652 -0.44040323205539633
P 5.401361616768583 3.4387214599278413 13.73024791556174 -0.533559698905423 -1.7280057816901013 -2.738313569828542
