# total energy = -340872.6361980052 ev
CRYSTAL
PRIMVEC
9.18827677113849 0.00000000000000 0.00000000000000

0.00000000000000 9.18827677113849 0.00000000000000

0.00000000000000 0.00000000000000 13.44797181980871

PRIMCOORD
 96 1
Ni 7.474020086567526 6.70969327184331 2.0716330157652534 -2.5042249114061064 0.8386617124219428 0.8924594749686889
Ni 4.561299553119962 9.066339286722506 0.0006817701466915536 -1.2020331511033169 -0.7981861209053995 0.9877751542535634
Ni 1.5502920215705174 6.983145580949607 8.14522187715767 -0.3024846304983307 0.9615367893823247 0.44574572731423234
Ni 3.89068397459665 6.076473980342027 7.925266472702075 1.6719845291294753 0.8628048853270495 0.49343069209502116
Ni 7.026477494855233 0.09050636521484018 9.902374170932234 1.2051917513369568 -1.1517919955595775 -0.2114398106746681
Ni 8.005837554094576 2.589734223521668 4.717669324878123 1.4101863206069132 0.22836692544730994 -0.45098743532914587
Ni 6.532717870287702 4.592236481474551 1.3658033659859392 -0.7043092309495806 0.6761913896674419 -1.1908745633833362
Ni 0.8789900787620591 1.9134219133144106 3.287182327104054 -0.1481963293339899 -0.10306601265425476 -0.38062534066581544
Ni 2.060645674236766 8.228184667029737 1.4668643048868248 -0.57029999174925 -1.2036138653268755 0.9282561729523239
Ni 2.050740711728228 0.6161640119017014 13.130855353343994 -0.09949989256955123 0.20517506071187894 -1.263668921637243
Ni 3.288125963142669 2.0597360348227167 3.87421306940852 -0.16027202955160139 -0.512639146702672 1.2797097771501895
Ni 0.8309932766694356 5.372137425560521 11.830651690354069 -0.8916572907823676 -0.0038368572475869405 0.39356981664162544
Ni 6.673307695281334 6.473168647636652 8.018003751550564 -1.0225565235988066 0.13969086296614006 -0.9440383754872451
Ni 9.140791894520913 9.12830502620078 0.6863753110786399 1.2916821190207175 -0.09474875103781101 0.3575077808117456
Ni 5.753147704170477 1.0917143092898065 2.7108825734022988 -0.9428332994355505 -1.617920143184904 0.2633447270740755
Ni 7.874151169426337 2.4822038188487396 10.554707834888534 -0.44941340597380663 0.911810882912107 -0.521920572004598
Ni 3.276778441159326 6.209685618977258 1.8054578219713502 -0.383205699798482 -0.9951879017778668 0.061025647753752965
Ni 3.561229117726403 6.7444249585615585 4.349639325058345 -0.3917191365861318 1.0080416178120832 -0.04967319885541123
Ni 1.2671093272169636 3.321608044201214 10.736510757132441 0.06678080506997532 -0.5256404440583463 0.5080021621512928
Ni 4.716599809445847 9.166693647129044 10.723453296816222 0.4683097286576774 -2.7558477220575637 1.1809171950603081
Ni 4.978162488231137 5.161183775993253 3.224231604341074 1.0425226823080884 -0.5232914842101956 0.4442046080793576
Ni 8.794375478475562 8.802378467663814 5.024351037427952 -0.7179728444796022 0.47249471327330234 0.5119524050482925
Ni 6.898346973351005 8.720804945260477 0.6015932423784742 -1.6599319688403156 -0.42784802109820513 2.4609388470239613
Ni 4.671274039450841 3.0642444079636073 2.0955436687670783 -0.0071052435862135705 -0.1917724141527278 -0.6918481223680923
P 5.394437373620096 6.44701881155196 0.6023604635004249 0.8169505459970963 0.12713976577400685 1.5915851048348009
P 1.1483692247143362 1.616043331135541 5.413024338980505 -0.10383965759548569 -1.4036372066344858 0.7202451854535467
P 7.594735668605715 4.710287463208958 11.333225024471922 1.1366772514053263 -0.5397352315885157 0.009502025953164281
P 2.6565146201005656 8.308416701004274 11.631621667732375 -0.009713113522705853 -0.8732427928309219 -0.11765830864613286
P 8.20458917192591 7.042924510523398 6.421097763562316 0.04859564952051631 -0.3529224754339083 -0.31212523891188826
P 8.835290875553964 3.490699904168393 6.6574055444339075 -0.12065030139492125 1.1082753032238655 0.09987578785173122
P 2.511073384898671 4.893832482754922 3.8342321200918223 0.9499879082024607 1.3849830818684083 -2.485384895881468
P 4.090106336642385 1.6434427728799372 6.098009463762724 1.273486164837981 1.0484261922767169 0.0430171269914743
Ni 8.467989506093117 1.3468268176845635 7.075327887872757 1.1622016209286758 -0.5634942816813263 -0.12204718174244787
Ni 1.7975944945921234 8.938989768755594 4.1338664242519965 0.6473089023051368 0.15694322228868454 -0.4204414442214888
Ni 3.9173575424651896 4.358367269294765 5.332537789735572 0.1979284064517946 0.12783859161324435 1.621053803717879
Ni 4.293277515667231 1.993690700396586 12.67979732688609 -1.3255456045373817 1.790308239273749 -0.14591678927119384
Ni 4.642919016907848 8.839471541547828 5.436100696438939 -1.3770658839038608 -0.11593618374870354 -0.5466478995479489
Ni 5.943547178290994 7.5516426498997395 12.109791542867404 -0.9496073849345903 2.300111716299839 -1.0261010464169553
Ni 0.11852785330601581 6.343843650134178 1.146560971818529 3.746714627862573 -0.4217293097949769 -0.976635592696976
Ni 2.9641932606950854 1.1366082302700615 1.6722415891976643 0.5237936206575947 1.8410219635785328 -0.10656142740202293
Ni 8.104354259119198 6.447753873704728 4.32036271834132 1.7138657427442938 0.12698318559148453 -0.8340139292372862
Ni 7.492653912140174 2.549471194103846 1.8485719737142179 1.4411904822979116 0.3120784448343529 0.3045312286147142
Ni 7.482638690308721 6.259430950165777 13.045393352152518 2.0670075332778595 -0.8270896913136272 0.2531400186269318
Ni 3.041181832920537 8.529707162094832 9.082262570606826 -1.2391961333068593 -1.1157415296939235 0.6505580053700538
Ni 5.481937334630119 2.908696068161164 4.495656665222471 0.3309428858390236 -1.1410776944658672 -0.8517272873566493
Ni 6.95734489938748 4.654854588613404 5.23705689140188 -0.7819321209403823 0.1997839716032946 3.147050324018593
Ni 1.4729175417148628 0.004633648045506071 7.173054401083153 0.2402009419677605 0.7345736862610769 -0.7782389883595113
Ni 2.227357770484361 3.5391864414202976 1.8470384502980073 0.8096061898168831 0.4523745454846596 0.40784920937877506
Ni 2.5397316205796807 2.863397862996887 7.034311419748349 0.27586162859416363 -3.051309898491474 0.13862694047799998
Ni 0.5567388309889303 1.0720054553187366 10.264218622736477 -1.1139903513307718 -1.2139026488473934 -0.7139989474335187
Ni 0.36425545566531814 3.1736584094030014 8.756607066238693 -0.40549176489019195 -0.11950796026036192 -2.0470575725184936
Ni 4.839823791080353 0.37690036234829544 8.377037509448162 1.9514477590319683 0.7654480072424301 -1.70724463788335
Ni 5.2743741592424875 4.929234913687571 9.683991799483561 2.2387911630134867 -0.6954497236764217 -1.5597466201679655
Ni 2.7748504384191715 1.0302539250415612 10.82897973829517 -0.7372625459471496 2.5920190855029555 0.08150397021276286
Ni 6.356018117039383 2.1065778705078047 6.606719333689847 0.1592991241153708 -0.9719307310221391 -1.03992252568108
Ni 1.2392596599039973 6.921850585685735 5.246416989089679 -0.9359743675321881 -1.1880669187312118 0.3050634469691004
P 8.923479957332207 9.029154330069398 8.622490382327868 0.5234627196807371 -0.7251338810044157 0.4856014258585895
P 4.150850035291682 3.940263916800796 11.385577988647384 -1.353554945266114 -1.415276590645627 0.349210830910276
P 0.1473762863190545 7.763294608512138 2.8810669194940277 0.7665926623698346 0.04747439143187953 0.4140052016778418
P 2.1703628888141764 1.868224779196139 8.918937273228105 0.22092641000886468 -0.3954909449237382 0.09796751508542481
P 8.002548150960942 8.694067059453571 12.285180129000723 1.7668420378310086 -1.0776832893696215 -1.6783654929551546
P 3.6814485328114745 8.953920718733677 3.07232365985021 0.4019385003212949 -0.1742619160727902 0.3256204451848457
P 1.418697519671374 5.374985791402495 9.78832192730888 -0.2770942154496841 0.21736954589554175 -1.4218964099549898
P 7.428455421372871 4.474847055677633 3.3051481649453756 0.1384060827164455 0.05716025126107575 -2.003562991669969
Ni 2.1005963022396617 3.1397904207142537 12.789788352115405 0.4207805727284624 -1.0502295640340429 0.4542239399885726
Ni 0.47186487951966855 4.312425884746816 3.22185184062149 -1.8419097655001244 1.103951736147847 -1.3069454729376913
Ni 2.106476799461799 4.948374094490246 7.224505995293782 -1.655011905830879 1.1048058566180263 -0.32067210004063484
Ni 7.222196981306403 3.8977313829863056 8.214680656455712 -0.4728667519007405 -0.05998255120121927 0.04703961788730609
Ni 0.7504001434123517 7.5453762450474 12.449405877516584 0.273532980460987 1.0486051410567425 1.4770913099595786
Ni 6.6803275388402605 8.684180473498854 6.546338571978479 1.1214910305831913 1.1865728506841886 0.6621014872332791
Ni 3.5726409576481135 6.091790837950314 10.591703513037308 -1.9359900297160015 1.5013560960442143 0.059900018789742
Ni 6.073120259270027 6.94771558518623 5.2160653539742325 -1.3463116334401395 -1.297226188767398 0.0018347392158936141
Ni 5.562711476942321 5.318422758747061 12.000459317092506 0.7951344785632694 -0.4787640912217819 0.5197883561529435
Ni 9.027509628502582 1.641118138821811 12.474567055005803 0.09385657824084481 0.4170704708667269 0.2217591903228052
Ni 8.177658332303903 0.38948003226521466 2.6754204186697375 -1.018462556035091 -0.16340311898141535 1.4350879689445992
Ni 6.971127314751865 3.1279559200547022 12.676340697112703 -0.6595733214947866 0.37226822695037176 0.5379393160303574
Ni 4.089968512488741 4.434841298013279 0.194545224662124 -0.32006351992235843 -0.06353632999074865 0.012402744539727027
Ni 8.920438637675133 5.567820158904053 8.107446114299274 0.08873339808166653 -0.11837898886224128 -0.20732681694755906
Ni 3.1819002937909033 4.035821996660529 9.381520155413707 -1.2283854158446006 -1.2376452438799717 -0.12081022401155321
Ni 6.3981739315005814 0.8187756248627543 12.132182454868383 0.2475234437711027 1.2685033669114087 -0.7008176728565543
Ni 1.4406391249314743 3.795695567905313 5.193929876071339 -1.216305344751615 -0.9238765558273895 1.6006006780698498
Ni 5.203008812485705 7.512427084049611 2.7279341776911155 0.7099124360689708 0.4444650608295958 -0.7302927994975359
Ni 4.994241972822917 2.1203327210414606 10.41509104841963 -0.8007932195109435 2.3845452014545705 0.3895426977601033
Ni 9.061230604760775 4.023344316617306 0.2216965829299615 -0.6113921338038697 0.03246969049293118 0.37598192835653316
Ni 4.8695478668828756 3.0327837478251722 7.961522494559626 -2.0147676021365366 0.9459193945600419 0.2751923704412809
Ni 7.04535021562753 6.49090202207216 10.290535685460922 0.7611480943154956 0.22666434093390642 0.3078484659134053
Ni 3.6864469554502914 6.847930897948086 12.836156991539651 -1.4624583905377524 -0.4530155215027682 0.5879375023253551
Ni 0.15877985679154621 7.314860753939614 10.279387549086518 -0.22206977958468851 0.6767770869675829 -1.8860661483023646
P 1.8758602373080082 5.029166613356268 0.28292358494470327 0.43712738951760205 2.1089483964860194 0.7073431326798979
P 5.105989796597347 7.373638161330259 9.534867902896302 0.45435172381568856 0.13820347978733616 -0.5810978536957024
P 6.855474473290859 0.828432503894733 4.568128280519169 -0.38454138789076997 -1.1266440355390404 0.9338745475803657
P 0.6038030229752304 2.180295416153443 1.1320609520275056 -0.07200014448738568 -1.2352831714056987 -0.632191329937408
P 2.9653142304780555 7.290015653176083 6.385406820734707 0.3915957236343901 1.0010680147077275 0.5795297378776342
P 5.877033241742475 1.7713895288459733 0.577793767527255 0.1762432081688771 -0.42747598247076696 1.368610811157972
P 5.540328834390561 4.851456149647894 6.948741915717031 -0.2733388621723099 0.3583194780797635 0.12625324940399546
P 6.404467901183651 1.9243743393906416 8.975728175150898 1.746760179479469 -0.09212956824740907 -1.8501401238297168
