# total energy = -340891.0847291767 ev
CRYSTAL
PRIMVEC
9.06478056404094 0.00000000000000 0.00000000000000
0.00000000000000 9.06478056404094 0.00000000000000
0.00000000000000 0.00000000000000 13.26722263753438
PRIMCOORD
 96 1
Ni 6.386255850771313 1.7294060577699824 11.522702342024989 0.49168491304850814 0.6474248590577109 -0.8653672467375871
Ni 4.644485432115936 0.28464589843881555 6.132906107726065 -0.21224225197130545 -0.47587057172407077 -1.4860179230252473
Ni 2.7471271173924405 1.8227189103757397 4.761964083610531 0.14620963792126432 -1.650678054342215 0.3099410867763759
Ni 3.523072345977327 4.308707825138818 4.818774877262251 0.0962836996250987 -0.24339348076312917 0.3938001874848766
Ni 5.1161441019024885 4.35701404153051 2.6823674175380794 -0.09248489470429878 0.5691483946433101 0.22677155593573203
Ni 7.091377947686414 6.058781582922509 2.634751030958249 0.6735012444297885 0.47650049199858585 -0.7083926569903348
Ni 4.938302169196801 4.589842934009514 11.397619245994647 0.7064026231434996 1.6803627258908413 0.22964399238752065
Ni 5.59235329160434 7.808873470267617 12.437663234588054 -0.3271458806904366 1.1679338954267628 -0.49560455981788837
Ni 1.9066043910454187 6.550935721889323 0.6268522478938832 -1.3601187145265607 -0.4238874937885603 -1.3899586807061288
Ni 2.710287848596074 1.5677991473119055 0.4890974949121547 0.18623837170837604 1.1977494361262986 -0.14983257938583228
Ni 0.5172336677509938 -0.09111826919640684 4.838012154880275 2.0381412438654705 1.2350949666542923 0.010660307927323575
Ni 8.726609998683402 2.350035333707983 1.0850415600267633 -0.673020448138628 0.25677041629066744 1.2249725335083097
Ni 7.128679520298877 0.5393680492832202 4.780352897754307 -2.373555020991654 -0.008152196793489188 -0.24796824461800523
Ni 0.7351364923165891 7.727372026924081 2.6654380330882534 0.7666497408600151 -2.158472985578708 0.043208674176990106
Ni 7.775424429455955 4.078942828539039 3.783267811413082 0.39112906841061673 -0.6452988138536435 0.06757810416029007
Ni 6.895442712688022 3.948926678847531 12.594336184906895 1.7260023781068274 -1.5288370750733025 0.15065764639028892
Ni 8.132332040262881 8.997637877064937 6.7632591739292875 -0.522770321599403 -0.8079869090459053 1.280028336831873
Ni 7.012487161186715 0.7364372883481536 0.3890676398019418 -0.3406773395179681 -0.7052132308210887 -0.31962746082620436
Ni 1.7377819151439593 6.514749117303916 9.382300939920976 -0.686634696487953 -0.7491580118331549 -0.7073824705582656
Ni 9.20818553856425 4.744016724287222 1.5566694095589089 -0.36272840578073656 1.0428651532491717 0.31883144728747026
Ni 6.2816664109650935 1.9797753009185173 6.8608787038493055 1.0676978960221353 -0.17801546957795147 0.7300634570955491
Ni 3.39796930742943 4.2172532525781525 0.495702094135834 0.41162975946712976 -0.13513049728896728 0.0895353251576716
Ni 5.947103484602815 5.575347762996569 4.8184567034594075 0.06418579064928945 0.47831723349235045 0.16368799721168584
Ni 5.176968780451607 2.8784939194094057 9.329709801688722 -0.26495038099829854 -0.38863227013069196 -1.0634640604464458
P 9.213805702603066 5.69491222053202 12.465019836286025 0.5242201666720521 0.23128332776315652 1.6264094116028376
P 4.049944595054891 6.25898632963426 12.620511645678643 -0.51958935276826 -0.17738529219312033 1.2061795691715225
P 2.1931783683407766 8.651517355300257 1.3096595741406725 0.9078516411540429 -1.3086825102334558 0.6559159272478575
P 6.407376789820412 7.602540931797416 5.770552376669913 -0.4386641378771026 0.43880709121287004 0.31406436491613005
P 4.612278266261239 0.9950772374144553 12.467567946142978 0.4906577573355744 -1.0225125577347485 1.3967767320692268
P 4.093745615434822 6.1908010491504335 8.179521475671375 -0.8292902985093717 -0.13221358075248843 0.1484632098421314
P 4.659115988178273 1.0184190477369564 3.8193945884458183 0.6385242141339713 -1.3769620113361447 -0.3410982291054706
P 0.4829687966756332 5.58735859743436 3.6854488563174934 -1.0514418391745892 0.3669090195209875 -0.5531851864458344
Ni 1.3797230771871483 1.0301579387535151 2.6668711749181515 -0.8362150506536631 1.7934619544113823 -0.13455277040862632
Ni 2.077230758307724 6.597111714814691 4.73935742700343 -0.8616021232682 0.3685568395370556 0.20170355722351066
Ni 5.925855638623809 5.757160069652259 9.319932529217324 -0.2449302291226298 -1.0924617332303768 -0.14314128340858573
Ni 8.538216661233873 2.2128580072573394 10.121285431648012 -0.11617375368080637 1.041953954288812 0.11973653133140023
Ni 2.196423559834157 5.361999084258556 6.793083208935913 0.3546163181965635 -0.687498330039829 1.6548548114277242
Ni 0.47772119512390665 9.144097538960336 9.06701880212412 0.40541180358187595 -1.327023731744805 1.314365419550846
Ni 1.6067323804517664 1.2737920498361788 11.405579029934138 0.37933593243043057 0.44095961877949863 -1.0272428733308825
Ni 3.9301263236596213 6.903356266245903 1.6148462656632891 1.211448787990262 0.6181657050822773 0.5792895968423701
Ni 5.947801472717313 7.796617886750715 8.09413396083842 -0.9099684303867297 0.5800958947937493 -1.4083646940171424
Ni 5.450661704361227 2.726223733080329 4.714215351232367 -0.27851474994629455 0.8495585618401046 -0.2250761705111801
Ni 0.9089436911292498 7.504215255460264 7.308514798282203 -0.31781406176654947 -0.508362116593873 -0.5685768384105563
Ni 5.095974964827707 4.6320032290813415 7.012138167129466 0.7304545218863807 -0.043770717328047194 0.19529842502811529
Ni 8.152492112556954 6.833231122690615 9.150788253600739 0.8994505615745414 1.3218025925551815 1.373273249630648
Ni 4.657439003747336 0.09814075481071421 10.229546107640878 -0.4085572911893932 -0.17149772306409175 0.6088207735322676
Ni 8.192875710610059 7.304889792477167 4.5750428665479435 -0.7092555192112624 -2.01525816861971 -0.008155539227598858
Ni 7.609412035573904 6.141370799950979 7.014832219955815 -1.5345138137431058 0.40809037885530364 -0.9925797747310583
Ni 2.502785953414571 4.9726486232985305 2.5875063003874357 -0.005707334797422429 1.0994173386126032 0.5591244347484048
Ni 2.526281865009104 5.13806274165387 11.716443900092102 -1.8761406616585363 0.1380903512482396 -0.5280333697705551
Ni 1.1678882168273326 3.3836741482532813 3.844641815673092 -1.298903319359505 -0.008306205872850211 1.1601334255457374
Ni 3.6423920544336696 2.527650646895977 2.632694232215656 0.157683957109451 0.329198135233775 -0.30415610466348264
Ni 1.1227274793412354 3.179281472854542 8.327583790795906 -0.4362825250188035 1.2910640258207442 -0.17159131121916255
Ni 3.8642163031334444 2.6631328593542682 6.788956920757737 -0.5874217390312012 -0.2147177100949915 0.7140606539093896
Ni 4.149992579726519 6.925166128628791 6.076958281197725 0.30823901648360463 0.014198660097885223 -0.16232197010209465
Ni 0.7708317857876353 7.640640205112162 11.529455603652275 0.596366864039631 -1.534192682958261 0.3502336157478355
P 0.20646035187818043 5.301899588166058 8.161305798839116 1.2896756301136498 0.09043109749906361 -0.47135442902127217
P 8.629508067741797 1.610258580147088 8.024175609248154 -1.3279084483426034 0.7742602062174214 -1.0026788108382731
P 1.8546360032477884 3.3215804004050744 10.61265093469325 0.7567445659311612 -1.1598922560692089 -0.6977673160660047
P 3.9709812903095285 6.216137111228643 3.851076903497536 1.1874840496445485 0.0495065913705599 -1.2894414026156569
P 6.7094334125646355 3.941049384412481 10.2805717582449 1.512182497235757 -0.08930932518979458 1.6416557962389469
P 6.419931511100669 7.6646528092070385 10.212298549388208 0.020848818424551187 1.4177294230614939 1.312489542684372
P 2.374256427759138 8.436881477701741 5.973567205401071 0.6381102665250042 -0.024524210393609375 -0.564979350867285
P 7.035448250719489 4.006905016254411 1.6631524820549815 0.15262016943329845 0.8102037141915659 -1.42249676254315
Ni 5.296515108425644 2.603903582209716 0.6510932844625945 -0.41656216377174066 0.5481931325478817 -0.8863862721914154
Ni 1.5090049796413265 1.0740133478176936 6.964442916957476 0.4284154635659009 0.6333760942741286 -0.019531642275024425
Ni 6.790653847706232 0.8391602898066443 9.106475979588888 0.05757162776688149 -0.2782368136945595 0.13249845898275892
Ni 2.8448454534221725 1.6508687977178857 9.00051050607123 -0.23028959639131955 0.06794294369887653 1.4622768706545655
Ni 6.642091156686632 2.1539550622182673 2.5304571030031013 0.03551567640810657 -1.6461616545291002 1.198314050380517
Ni 3.780095138165364 6.70690433874717 10.452541526008098 1.2221666886283986 1.3103514132954466 -0.1836896371445933
Ni 8.260245160830186 7.391875428148903 0.3279429170113956 0.22823142831071017 -0.6291486864563424 0.1380463853841816
Ni 7.39923603008361 3.9172724646160075 8.234221988374328 0.9346919012753386 -0.5178700560843081 -0.6030203648004067
Ni 2.900865798196175 8.628619719232436 12.544292250053521 1.1891475533899005 -1.6016841409420157 -1.2545350776567747
Ni 9.27834694124237 4.719904407604561 10.584669769604513 -0.8358916058759733 0.042719907466029654 -1.33336844301591
Ni 8.677134425580407 2.3129875749553377 5.840789017027908 0.4729356574654629 -0.522272556027378 -0.15677867168636225
Ni 3.980780318254625 2.6550923988664783 11.425957563443271 -2.32783489324672 -0.8370871688459712 -0.1537547972583739
Ni 1.0231780576085343 3.5781408887770145 12.786750659078388 0.5046396734369631 0.38065208013869284 -0.28374977309298877
Ni 3.2790303197628146 8.399661488115648 8.115454325063089 -0.4196755125897417 -1.0511980985948992 0.25920627942566976
Ni 5.629609540313263 7.94402028583972 3.3965678923320093 -0.7624115344089515 0.010016503695737589 0.8933483053315454
Ni 2.959560253278969 8.63185584594511 3.44776668024755 1.3807294487983768 -1.041852138603625 0.8420997915692141
Ni 3.3098143150463923 4.391958771158953 9.385021280611376 0.10581195083050808 0.32645451105036677 -0.9219065765852122
Ni 7.220795821851209 6.074862503898089 11.62829615953363 0.37879780053877343 0.4320345483757269 -0.8505111555613609
Ni 0.511967030159781 0.3209231508313005 0.08806615753210156 -0.12538884452117116 -0.8202536422284002 0.6229122186283272
Ni 4.692229632103747 0.4367157531142502 1.626535300385955 0.10190258847377288 -0.8514105274471788 -0.41003053330080996
Ni 5.780565333439713 5.580995121377507 0.5221848509735764 -0.11506200867386636 0.5714130223077708 -0.022752977425799525
Ni 8.070845632722094 -0.0981652297186252 11.373525965351472 -1.506094382060148 0.5016762199332652 -0.5197847566085178
Ni -0.021662106457351685 4.714936907776704 5.844065935253765 1.026012086247575 0.17509701037957587 -0.3348409353418491
Ni 7.855738386526775 8.769595188799634 2.456903659384136 -0.6905414877415269 0.6596237151167479 -0.10176966244033442
P 8.562075164056717 1.5018256733207747 3.5988666033872536 -0.01257346578963641 1.1946887949231038 -0.4284769129314556
P 1.6805015658515774 3.0719091453710377 1.8264717295887554 0.5348807317096917 0.27137299669519066 -2.382003923089956
P 4.7009227568024965 1.0272572089270295 8.152575508539465 1.2163840205083503 0.38676359235306945 0.15637063761466619
P 8.728867129079635 1.9906711673292534 12.223516855147757 -2.025879909999614 -1.2875033050526794 0.5953600200416714
P 6.32009201638532 7.65486284604265 1.2448210106941542 -0.5146291805495072 0.6933383337603736 0.9589795701781098
P 1.8376667337628478 3.243550768072613 6.095161267336992 -0.18594680860988622 0.35757385816299064 0.06079142025575982
P 7.013049177590596 3.773722597327803 5.821869913212726 -0.7744705224560147 1.2571267496433511 0.9083087832961195
P 2.2653249579938968 8.452427576615563 10.235158113377057 1.0029575184209565 1.0316500012596428 -0.30343953821243225
