# total energy = -340873.1059207774 ev
CRYSTAL
PRIMVEC
9.21826743748510 0.00000000000000 0.00000000000000

0.00000000000000 9.21826743748510 0.00000000000000

0.00000000000000 0.00000000000000 13.49186619150941

PRIMCOORD
 96 1
Ni 7.342930813563701 3.572180056687146 9.37078926542232 -0.4454873314465231 -2.8688461633341817 0.7864644615930972
Ni 1.5146443144432244 3.639077023925182 13.242482816889845 0.29256274339892835 0.44391587319434517 -0.01655096238014569
Ni 7.516234242539183 1.4093624813406185 13.265742349442554 0.4078849477127168 0.41981820881519305 1.9168417389223247
Ni 5.740842013627847 1.496161688108339 1.4970438763079643 -1.2473838113239741 -1.1438143766707398 0.09764484163868345
Ni 8.9171251360485 6.923259967418071 2.435241347428488 1.4878614039918892 -0.9415806579753719 1.1355662777293345
Ni 4.78386600978573 2.9347092043498284 9.84439435104932 0.407891118360304 0.7285737599239 2.029748134705769
Ni 9.023909546753394 0.7468723291850905 7.191326264453398 -1.1464466720872641 -1.2066125429438832 -0.5349738056441302
Ni 0.28471725361822126 2.4416056393095875 8.809581140101715 0.259332777701205 -0.158945597430694 0.7623472568299194
Ni 7.998856637433407 3.014511746086039 7.061359754642784 0.1673983561837375 0.12998803385607932 -1.1773171364138757
Ni 6.370680140476244 8.850882665802873 10.022081988047184 0.9468015400546791 -0.2721762093227764 0.5632605684039654
Ni 7.934697495642484 5.333864721827922 6.18310683341278 -0.5291939657375595 -1.5315493317981432 2.270080460045071
Ni 0.26699329069847866 6.651523878091513 5.228691664281801 -0.43965041304977187 2.865781665476245 -0.570793643556217
Ni 0.9938859469068956 4.639157646591201 5.632233307784961 0.21307451806461367 -2.2736568645424198 0.5840037144885877
Ni 5.81355570765756 3.4462400861199627 0.11957475685933384 1.0482894095885364 0.7969468491816598 -0.36707896943994844
Ni 4.0235893978307855 7.051522941394926 5.074061679778426 -0.5976750413280932 -1.0840542258929717 0.6543334132520859
Ni 1.7621455785157103 7.53314976339929 3.6739294496842514 0.4387780377471476 0.9646018014608936 -0.21115081867933955
Ni 3.6609888457695825 0.214944186920592 4.44987342907998 -0.9201993640861185 0.5871245195057565 -1.3213937871525372
Ni 4.007171663415608 3.44286620021544 3.6477421953739566 0.6430159313567378 -0.0885989293863313 0.5286422069991477
Ni 0.32004534198022344 0.06410475401268115 1.224823827937725 -0.8042330984304278 0.6687436751401451 -0.13544854275001836
Ni 7.85760512455089 2.1867113247031473 2.4567208325271994 1.4570338770880713 -1.642701721004958 0.41548564287811024
Ni 3.7230646591058005 8.656653769605349 12.3977438289781 -0.5853239759619081 -0.3298367972590384 0.007570356148090187
Ni 4.245344040779414 2.0571209202064806 6.157741848563368 -1.0447104339880264 -0.17409607991888726 -0.38054383669560266
Ni 2.158936684729577 2.8229745839981355 10.327146723515275 0.9866263853611008 -1.1675029785369313 0.20450965921373812
Ni 6.550841960470756 6.414540657235039 1.8287549358077873 -1.1052046347183417 -1.7832508182063354 0.6587845070449041
P 8.325837803879649 7.240405242443204 9.438207986600784 -0.6838679323760932 -0.25305182978849966 0.4707430206895183
P 7.9614396896562 8.644080052737127 5.64716874478635 0.1777861271759648 0.12890971319023606 0.6729553992286474
P 7.38909589719717 8.661216812017203 2.3340256921195572 -0.7821462938337176 0.45380639283517976 -0.5424366896800787
P 7.150923519833364 8.769291780171914 12.280849744307387 -1.1531353969613496 -0.5492681107796153 -0.4757630996119291
P 3.915809414236033 3.6370950964129625 1.3157740205601083 0.0698221629994604 -0.024373029527725763 0.17339982518281102
P 3.4196638209212225 2.2797328620324877 8.434102668344833 -1.615137181123128 0.6234212970542619 -1.7492628912966648
P 7.476273052932337 1.2031129643247964 8.670386222698156 -0.9934534355852631 1.084276626316423 0.009056967995945693
P 9.027099067307942 4.618186088031669 8.048155010189683 -0.2700807602463284 0.03711001747841996 0.24655413787929795
Ni 9.274683295787916 2.031245243337641 5.054120723525247 -0.03047837109451525 -0.09693650271774919 -1.22027050004695
Ni 2.0344071090896936 0.4601906627628971 8.248697497797062 0.37368439057160807 1.1693672854391794 0.2942517010655771
Ni 5.629042865403663 8.37687013275243 0.7142166165709602 -0.5454039998385187 0.7176468285987512 -0.2994856957710068
Ni 0.4769946425862699 7.6302365566955554 7.712152847169217 0.3083254055498238 -0.35148034367074305 -0.2321503037491421
Ni 5.164027361431948 8.941055758475114 6.0246042547332035 1.1927982627686102 -1.1643078686384012 -0.6167803946989765
Ni 9.012248438367545 8.895471425694064 3.7295699904796304 -0.3376951169611926 1.1250095852594109 0.8920355000573928
Ni 3.9632281822493245 0.4317347928211728 10.141943433025725 -1.7311253011556895 -0.8059899332205345 1.7321588846265266
Ni 2.73324396816583 6.407866631565984 12.49557269280801 -0.056006083051974506 0.08906635594105305 -0.18575731830689945
Ni 4.19850602361854 5.1925671176079105 8.941788610741261 0.5051225266106527 1.2547649342793938 -0.10796602105903343
Ni 8.64632009173931 4.495785932183985 1.8088407125303545 0.30179531774078994 -0.6640979488380175 -1.6887038987666854
Ni 0.6765618374922873 1.6197970918008484 12.03165508449539 -0.0876728180276361 -0.45247096185320784 0.2626968090774315
Ni 4.919982947671473 1.508864460721542 12.388744034419123 0.1696925515345529 0.28282494728587426 -0.3929612365233491
Ni 6.675408409180634 5.5006416174143276 8.761590839503503 0.10207279550305001 2.4055426296418445 -2.0896715505342787
Ni 7.84947461261704 1.524507860666829 11.033445770131607 -0.6590395604785036 -0.6614011187321448 -2.3253704908666273
Ni 0.948734872698283 6.9165767234815165 10.53176460718383 0.2803865130477107 -0.6514887447144394 0.3294745288236132
Ni 5.100836137728389 0.9727208047298899 8.402302410954581 2.338255831469728 0.20871958353002765 -2.407625994533434
Ni 0.10069297954175503 0.1968533369544013 9.594970156376606 -0.9229051930530557 -1.5146587266903915 0.5093453064427486
Ni 3.5555963934569923 7.0403504011865055 2.3019958998685883 0.88584736896881 0.6034047447230189 -0.26105387415736975
Ni 4.96553040738253 7.796405046627047 8.002188119307435 -0.9392286128034277 -1.5595756418077398 0.9915911855655439
Ni 7.214299108886898 7.620124117249485 7.688177977058609 0.6726630647992092 1.039010555389772 -1.5981280481596412
Ni 3.303292412017685 4.343030021463095 6.43008818719834 0.6784575599937992 0.7033805484877241 0.10555972561038594
Ni 0.3856379243671941 5.950115122383241 12.911176439333214 0.8461634201156265 -0.4743291953788799 1.3133133241372479
Ni 3.000287959335551 1.3177513389385787 0.906883016427454 -0.698703454727029 1.9962579733681232 -2.0528330415496905
Ni 5.617077554190356 3.3559748107727327 7.654016921361942 -0.3316406832369966 0.5806821063145226 -0.02427198517348723
P 3.242719176283755 8.67064709966837 6.8071863085547415 0.18513228312839083 -0.8081046655706922 -0.26164625632573
P 5.270553660646878 5.772580508625857 3.417395205289793 -0.8017537836519999 -0.2720003458665445 0.8324951785999146
P 0.2949965437060171 2.3827101282604195 0.9932766194252318 -0.795569766328475 -0.8234533801126205 0.1920125551879919
P 4.786373378545375 7.28461605336695 10.129882251830434 -0.6238833242923448 -0.6792931685212172 0.7441885836430215
P 7.257864641085735 2.82527915087281 4.812117234188983 0.6356422646004859 0.3241333191163579 -1.1674091332715444
P 1.5088736789890407 7.565127933352267 0.7050057236862632 0.045996778445088524 -1.0064246510339507 -0.3795015114740174
P 3.901235333320595 9.282242275136847 2.167063509356427 1.5582929184405745 -1.8299582495652031 1.774958496290556
P 2.2550555599384787 4.903122736416359 10.94866259846585 -0.5028041628901211 1.0179110544069954 -0.5901725623034609
Ni 5.519271736029193 8.151087106906871 3.4780145323612177 0.28344972535406665 0.001189906543043112 -1.2356667799973622
Ni 1.480555161233047 2.491522557815026 6.823133911327486 2.1319541133525735 0.42173290933940266 -0.33344122678084515
Ni 1.92112381979822 5.4695760559437225 1.3004044031595328 0.15641434636840804 0.4871183767237482 0.6682291973975717
Ni 2.6597098483287325 5.369124595010433 3.954088270024368 0.9928152877806322 -0.15768678532292843 -0.14446231621285444
Ni 2.598389932927408 7.529167471839854 9.037984919397152 1.634170286495179 -0.7033836338115177 -0.6610810163885646
Ni 6.1068717611985655 3.546202978875821 2.522844387122095 -0.9266564325653719 1.778299387738331 0.3554709528873749
Ni 5.699341373348718 4.177626647733994 5.435832587764747 -0.2619429616305424 -0.310829145808284 -2.032058013785868
Ni 0.12651242497885237 4.132761339817841 10.347437973933404 1.8084445438631438 2.107779830099215 -0.3876969028006162
Ni 5.638150513692374 6.747412296612948 12.261583565235112 0.17084954795713156 2.0388426408078693 0.5042588930587767
Ni 0.0798504767272036 8.415559201444456 12.273105477781733 1.0696619617270415 0.6538839844194932 -0.2235293948493505
Ni 7.4674788257385805 5.076711931684301 3.7926045036357126 0.5027252300230698 -0.11285214550674112 0.6357430518444084
Ni 8.021893087912648 6.275160452654757 11.426032424539317 -1.7157130803656777 0.2745861043158497 -0.9830008727933714
Ni 1.8501431600582614 0.8861631165706351 2.906835928914022 -0.28612624374496526 -0.40370793351689177 1.0879800433099394
Ni 6.6672594607117865 6.907690313612774 5.220920664780399 -1.1892177445062035 0.6772668821198077 0.15029383529296697
Ni 1.942556291732688 3.293668540749047 2.342943444097795 -0.5634078926151072 -0.07173120709671518 0.1082195318307362
Ni 1.5327305552756656 9.328333612630328 5.66221203551747 -0.09202441012811248 -0.3528106324463924 -0.67657936913448
Ni 5.948695509188442 1.26875624718301 3.907824550928663 -0.31194191925648856 0.6224581618100441 0.006936579218833215
Ni 4.377395722698233 5.655397892182434 0.466065464639816 0.5335902950330422 -0.2977550862331453 0.9190482812008107
Ni 8.462415655140328 3.7091082021127746 12.258237334133085 -1.0004792320837932 -0.932879273546632 1.5991698591605943
Ni 5.897736926455651 5.090179820499896 10.834751545157715 -0.7117086087374452 -1.5840720842872074 0.10902685822337997
Ni 6.605515505005522 1.2905297950149297 6.2478135402931265 1.493793453205608 0.2850155271792898 0.9734980755092589
Ni 3.877240183021489 4.044348936237848 12.256295045171111 -0.6156650501476106 -0.3923989362619758 -0.9155153283468879
Ni 1.9890624512636086 4.504967326612686 8.637330437274583 -0.7325533133969383 0.38116141567494355 -0.5819023518748688
Ni 7.905576988614103 7.447327692986432 0.4776740289009238 0.4334501977763309 0.7461266812059989 -2.6403522253907044
P 1.8432663325042342 9.039709657246158 10.7479173089735 1.0138507682946927 -0.6122537104732166 0.8515431963703011
P 2.111812901276243 6.265508926583622 6.8492806052607875 0.06360240734199368 -0.22598248437553337 -0.2060878023341354
P 2.6700803992647653 2.0187360543419106 12.334857729928746 2.8815119317273084 -0.36481896976117817 -0.45291987646516835
P 6.470311175602149 3.0539567127129588 11.39632287021777 -1.2360416468382776 -0.007042251558762065 0.9415107239693851
P 5.345765505168738 5.616893188840383 6.855298290283935 0.05615340726311619 1.3473261907475829 1.9005000643395076
P 7.337114086772023 5.11340063632911 13.369252431531912 -0.5945156697635051 2.092530103028996 0.7551479108680027
P 0.6663240296082356 5.0051044297544305 3.4700812913518395 -0.8039304795883444 0.941336917395682 -0.046074168650243226
P 2.479769266754189 2.2421407671728057 4.5523980783737255 -0.8417619486138213 -0.46730237043908557 1.176190221898284
