# total energy = -340866.50731094106 ev
CRYSTAL
PRIMVEC
9.33150189290018 0.00000000000000 0.00000000000000
0.00000000000000 9.33150189290018 0.00000000000000
0.00000000000000 0.00000000000000 13.65759626292639
PRIMCOORD
 96 1
Ni 8.210396595293306 4.399327237411529 2.7796080631962883 -0.9858614821706184 0.21931124300294488 1.307649183872935
Ni 8.984920584170986 9.209511171806172 8.200881262809856 -1.5479825376535017 -0.4392878875040305 0.9074983715796822
Ni 4.028204075501982 8.614403969884686 8.196059675780146 -0.4886237576246811 -0.17521013891867243 -0.1944918699664199
Ni 7.03829463663065 5.254447408165773 4.953706166157324 -0.9897204509053923 0.5721450153777887 -0.37529004449583114
Ni 5.96840061823591 0.776695429368903 7.925079392768909 0.24122475524658457 -0.6672714614699927 1.1870029962430717
Ni 8.478975882866676 6.0070796935952195 13.510654212567383 1.0371693884159752 0.8235878488079558 0.5330089686082756
Ni 1.2735820417826749 3.38953742272953 8.111109415118866 -0.31202419455764974 -0.1344913210430716 -1.015982984146347
Ni 4.791875527674507 8.926505382301439 12.781816323822785 1.0518825262564335 0.8406815710654489 0.3450973229625347
Ni 8.848400711431134 1.5091838016552515 6.406136706430723 0.45159370145457706 1.1854683047661003 0.09415765442103138
Ni 7.147566523833908 0.010497006482915924 6.018465992208833 -0.9484791848674182 -0.06906034513277139 -0.8244332275273866
Ni 9.345312518900025 2.051521360354327 2.4442320187502973 -0.32072017966975086 1.6450018298930442 -0.7602425517820907
Ni 7.855650219211402 6.948198985823864 6.473468158361987 0.38281952010365683 0.03225243227580252 1.1697845754822562
Ni 0.6570814386142039 0.6964351815606002 4.3170429868419635 -1.30297209011224 1.1197007714519878 2.558357945805084
Ni 3.0340538579978364 5.804203510872244 2.041237112114642 -1.2139990652159416 -0.8347541498374205 0.5795891303606598
Ni 0.6018034876821233 5.6156045260502925 4.087322872614495 0.1642783224975171 0.3735851459895824 -0.04325675380610615
Ni 2.229547753528005 8.59733665291673 6.139594485721268 0.6317938373886731 0.04240623288035278 -0.2944792436953509
Ni 5.702938052295834 8.294006852282305 10.368887761333124 0.14332100351955962 0.25384115845901445 -0.8474500001375341
Ni 3.4944794930530008 1.9334871928706368 8.4408865584272 -1.9742174486283157 -0.9489916057274624 -0.6146409797584705
Ni 5.833849692396134 5.769079737735347 3.078531528635378 -0.7238087344350889 1.7832770434585803 -1.0670605195484526
Ni 5.519639360550863 7.5644980285513785 6.217579713367304 0.12976074833662168 0.11105288751447326 1.0517966514108466
Ni 5.123759724110979 9.23880275625801 1.7806362586624305 0.05014911005056524 -0.06747963090921281 -0.009122788236874612
Ni 1.5094077577007576 7.9098849082315 3.7748370023196225 -0.23195284302635535 -2.2227114838428044 0.1103409490491132
Ni 5.4652740305042204 6.683389625016514 12.116978540832546 -1.7902483325700909 -1.4859909264420537 -0.6899341931748312
Ni 2.7470915116891597 8.77913297285643 0.7371494574834472 -0.4035873487786275 0.4915239619906116 0.00982495651022179
P 4.79031716685786 4.483618694038944 11.260661138385034 1.1806194613142313 1.8264078132097836 0.7175792085856093
P 4.606915828592032 9.549485780386558 6.281565821868819 -0.0407283309572976 -0.36103122058397175 -1.6895865584819547
P 1.418332299194882 0.3929168845878738 2.3635975777159617 -0.14118467390284717 -1.4423513353752322 -1.728236409643669
P 8.76169239581263 5.594020762164627 10.731592975382204 0.9517786815542962 0.9100905577868907 -0.3866772032868502
P 9.288147738284554 3.0243490960258987 4.443048123245298 -0.5438443686608827 -0.04495830987824515 0.5615798382674329
P 2.0120304443300583 3.1416087488522133 12.182152549525435 1.4091187985743474 -2.595882939333736 0.3578829047629772
P 6.53179937671447 6.643590769429673 0.2215531837680072 -0.10257596039171364 0.7121590660113026 0.4589539984743902
P 3.4999197586584234 8.38606211848727 10.232148598298714 -1.317688056166176 -1.5357474290398905 1.6917113181344414
Ni 2.3165080196977033 6.088385069615884 10.395424686425235 -1.0538669036763142 -0.22078397089372945 -0.17910767420086574
Ni 7.255783951322908 1.2785464007913967 3.741580462712134 0.49896936252506324 0.8820429076210551 -0.286921485952751
Ni 5.382512940187764 2.271212909494064 0.9653354727991978 -0.029028783132182264 -0.8308285895307691 -0.4935001118803758
Ni 6.291746490437457 4.496776111712436 0.8803936104896247 -1.0132961813428034 1.1078634124974274 1.90605596116073
Ni 0.5385555009805891 8.095133883872753 12.763925035237405 -0.10897183661572847 0.3059947005341182 0.47847561344708567
Ni 6.894066943324623 2.564576666103461 5.818996740828122 0.21395769200051537 1.1151280644796409 -0.22616580403093312
Ni 7.389261754444633 0.7489248797261279 10.362359442606618 0.40624715499897773 0.09906871856940358 -0.2480276371010309
Ni 0.5273222389980714 1.7650162576385593 9.811453698866547 -0.09371053958128377 -1.7213769635196743 -0.2604686910778611
Ni 3.344176992012618 4.933509063453419 13.067219376164624 0.12252797803360833 -0.01742925122004095 -0.2066223346813667
Ni 8.561307724095911 8.846002515443839 2.9176583022470997 -1.1800260507046065 -0.691189662848487 -0.6294376784516709
Ni 1.7888209189754944 1.798535012449328 6.377564580775073 1.0474196053890734 0.2971429065704431 -0.5049921716803755
Ni 7.505718898107885 7.851917618452965 11.895930191317118 1.0005234550581672 0.09617442774074404 -0.14130294464826632
Ni 4.896304365393693 4.129376219059432 4.8950604761909435 -0.8762008470179813 -0.4570619236579999 1.5258587091712688
Ni -0.1709792429417476 0.9444972959150307 0.28121414114068294 0.6432457879793567 -0.06785218375728314 0.34038989018453636
Ni 2.6431292490647786 4.133911328980933 6.3486649194028715 0.47428857194893154 0.63441070618623 -0.7227263000041875
Ni 0.6719763819407487 7.911153992489369 10.351843773119908 -0.6831397959608171 0.14480658692615062 0.6574069099710872
Ni 4.718072679178301 2.3659089907356234 6.5773893623780255 -0.7339010856740844 -0.2610628730184342 -1.7611838111039668
Ni 3.63050479619236 1.7095684733719698 13.039480553628296 0.2781262562586242 0.547548042764715 0.3524949009781865
Ni 4.437661047200683 6.299482305509319 9.53887492958051 1.0269255992007797 0.0021970076513187966 0.068217794626818
Ni 1.1400109236419882 3.907799706536684 10.226972414196949 -1.3328097422989627 1.8471429888746058 0.7714546184478263
Ni 2.9199855788199858 0.23460142286931518 4.116467952486564 1.9962114364009038 0.3376393240225927 0.8712080217890803
Ni 8.834282149062345 4.640779848972956 5.976536754739115 1.741685078949407 -1.4834414205473225 1.4120760814304585
Ni 6.621829707007983 5.561491146554844 10.298387331357945 -0.0322622024678154 0.2160685676959311 0.34883879228283793
Ni 2.2392431839980467 3.8091843944987644 3.3215816933214164 0.032827330942666044 -0.19446153094911672 0.18008572184341887
P 5.961373997308152 1.3147992856577213 12.065925893959017 -0.9499534554200995 -0.6469340354642213 0.47272791233003103
P 6.9694934731507505 2.528613057795915 8.486885263873805 1.597471388412249 1.221526483941238 -0.014259338132491573
P 4.154142025091664 3.810836070334373 1.8636474332297017 -0.8444842326409907 0.4337384184407111 -0.18106454081692042
P 9.14487185817193 0.6375422067939729 11.708562031595262 -0.6576079702382998 -1.2992923272678074 -0.3128693161667644
P 9.16295630884656 8.664747422614113 6.0717852608929235 0.8101474070323338 0.3552673215170011 -0.7240563316695207
P 5.279651794787123 5.4242340851652 6.725054780982572 0.9077886491265915 -0.720161881711121 -0.4695988797827461
P 7.232343218559921 1.2977413001916618 1.453236782037221 0.4571334003258837 -1.2756440917212484 1.0342861533309091
P 1.8126162488105337 0.5387897216781811 8.146018563712154 -0.32764467470372605 1.074131310352305 0.37963160929397843
Ni 8.692741928302393 2.7152430957177915 12.30978230040888 1.7210352639095392 -1.620677908435699 0.32167457316322023
Ni 6.145391214699122 8.423490772592503 3.9531778671071987 -0.0891620009786529 -0.9771205027531946 -0.5244698207890128
Ni 8.140755596642757 3.5515229641438224 10.209804317008517 -0.17033249911139697 -0.19496469583778034 -1.4340826676085365
Ni 7.5513406108778875 8.573364024545665 0.5647210322972361 -0.4705188204938542 -0.765115820713992 0.4675602520861625
Ni 4.466644692089949 6.97162105558306 0.7663439943155662 1.0591366367156856 0.5245392405743676 -1.1691947644170573
Ni 3.333576405858655 6.330864146385882 7.41444934436257 -0.07561537264246979 1.2499757404208667 -1.827038504815247
Ni 3.2596895738453844 3.34414899750693 10.312700922116363 1.5673028352486684 -0.8162036405287427 0.7573469754018506
Ni 3.252345681853159 1.507065550724838 2.2790700340905747 0.8992664705881932 1.3968016717698912 -1.14483047664008
Ni 4.0436383796381214 6.284066664376972 4.844213122359128 -1.4038151269732468 0.5573200345498144 -0.5334293439751459
Ni 5.979038530397458 3.531469566569117 3.094415611162909 0.48808691128460463 -2.453411428298665 -0.41263171836908286
Ni 4.968530190069459 1.3899365389250686 4.274827272264035 0.6919309118898858 -0.19453223628605207 0.3952803715748289
Ni 1.5014199920777014 7.780372993415614 8.199924783865507 0.7068222271794213 -1.3291302365648465 0.28636535633896487
Ni 5.066053716385535 3.6048711604837904 8.422216089433496 0.5427470218316459 2.580913205397781 0.45927950013460905
Ni 5.939995526464201 2.750609487903987 10.519927451023298 -0.4247174458890234 1.2927941211379734 0.4389834688897343
Ni 7.211851240396099 4.252020148479792 12.61744751682423 -1.3101187284593503 1.0155903766936187 -3.1797221032200014
Ni 3.0359108268751593 7.491124429142394 12.27024379372494 -0.8451748309501123 -0.24312840002720065 -0.15737851005389025
Ni 0.783221881795031 4.887383449581027 1.5991404130837852 0.42110607438868125 1.1062598154557337 -0.7015506943678369
Ni 7.383494886272848 4.93181073010833 8.136417381411263 -1.1908611936468976 -0.9497937899137836 -1.2577085902887502
Ni 2.0601156736006296 3.148738016300829 0.8584263218760303 0.6496046403178489 -0.5788630508279128 -0.9187232937612242
Ni 0.7903296867892857 4.753028485281068 12.345197216404934 -0.7202840091112821 1.5594607134964305 1.1466477323544768
Ni 0.5891807650672772 7.466461269631019 1.5898126437884499 -0.05159175603436276 -0.19616591523473315 -0.007918483516128299
Ni 4.265924086304972 1.0164338440320178 10.358658568954626 0.30290552008583316 -0.1964659629736552 1.2773063099150195
Ni 0.20458851332090866 5.709311468090866 8.217065819698442 0.7747101492706464 0.24174334675421594 0.5169773690667095
Ni 1.9269738045471632 0.8052367610682956 11.724786713942 0.3094150390695768 -0.3804422781207319 -0.3231395877445209
P 4.281377053444904 7.386658265415624 2.8999583094505894 0.19034416634663348 1.2999145342328389 0.8692262154723611
P 7.815048854461498 6.730280422044385 3.129078408106139 0.8579742967076256 0.01136324753161914 0.699813399961756
P 3.063326779445883 4.709795636996466 8.62953873280996 -1.702705098141784 -1.383195393840366 0.35644360121328933
P 8.467414152017417 3.7921637350402895 0.7234704088539632 0.21718982578456789 -0.7094154418278944 -0.717482792217061
P 3.162557970608944 2.4785122241157875 4.779257470810609 0.09807627274914722 0.3320572019491249 0.09349662379826479
P 1.497818032345809 6.504933982755616 6.031576752372845 -0.06136374781946206 -1.1711079222793703 -0.1299109007612408
P 1.5537230602053071 6.3571416557252824 0.01966147449506965 1.0644572775976509 0.32203375627485187 0.1545433545979403
P 7.07967051603793 7.661191051198704 8.786805333715398 0.17026565042920355 -0.07867704228692901 -0.3395676513935571
