# total energy = -340895.29839414486 ev
CRYSTAL
PRIMVEC
9.04067998223447 0.00000000000000 0.00000000000000

0.00000000000000 9.04067998223447 0.00000000000000

0.00000000000000 0.00000000000000 13.23194899994361

PRIMCOORD
 96 1
Ni 6.301399066509417 2.2051755096531265 11.51797441005113 -0.0333772899088651 -0.9565439641534237 -0.7480442099436858
Ni 4.378780965231675 0.18540174224925485 6.111559254516402 1.4449064976969181 0.1547796389784625 -0.320414475503874
Ni 2.617177372278168 1.4278036111260302 4.856879238320415 -0.16314009512801583 0.4618050947699401 0.030007602105683803
Ni 3.291358950871923 4.247112503736215 4.516725466686634 0.4124154885932188 0.6779564519876646 0.9810324362130911
Ni 5.082760624647253 4.368574037668617 2.7770283451042928 0.5028432436581728 0.7441060512315443 -0.8194825683903306
Ni 7.0963189246466944 6.176294138593035 2.748897365648836 1.1435999466670885 -0.22646662310080354 -1.367595225409264
Ni 5.080373885163952 4.2807076700996545 11.524657280604373 -0.36782844601146325 0.9927324982588385 0.5422968216681048
Ni 5.616576607719277 7.930610943578586 12.521194244389578 -0.2855875976326759 -0.8420586539186337 -0.9092328377722857
Ni 1.8585106403834604 6.547178989210295 0.455148507261617 -0.63267932531742 0.08181610213654297 -0.6764667548160156
Ni 2.7273199750246104 1.5676900506151303 0.36240288477167765 0.6265279610040436 0.6744003592052902 0.20421578212240313
Ni 0.46913443900656865 0.053129363339080624 4.629356064530822 0.73627961320859 -0.23392770736453908 0.47370518864163585
Ni 8.713569982259772 2.1922473374519105 1.38861407206461 -0.3863221339402766 1.115912508054149 -0.618171104398916
Ni 6.819222086907348 0.6235221289926969 4.690183566771536 0.26767575034926155 0.3335805805721868 1.4608997878013807
Ni 0.9558439596629021 7.531672863352674 2.6470911738022123 0.06375461664914181 -0.07092645180723268 -0.10647529544611986
Ni 7.64659798574558 3.904443614965107 3.840493461900407 0.4026681793984678 -0.46706428628635044 0.08926330244320757
Ni 7.614810955354339 3.8379674959472467 12.649716549293414 0.8043529118377438 -0.12739147677349674 -0.26381549606290694
Ni 7.674298628839654 8.956086219530834 7.242745391947235 0.03106535394623682 0.31812927901412313 -0.45900182099319015
Ni 6.679426054216857 0.8403989981779888 0.26607986526074456 0.7518293880177309 -0.7592562766094214 0.6599049938025926
Ni 1.9708862910555676 6.639619940788918 9.132492485318402 -0.4901322238494075 -0.3408678582622194 -0.09583324235124141
Ni 8.92483258925139 4.924792825436174 1.222793538326274 0.36809686918150153 -0.7070052897245049 1.2808513469538005
Ni 6.23468788981517 2.1546923533093576 7.074130384063867 0.8213175647165404 -0.5064700417774826 -0.0027940178053693816
Ni 3.267762776434739 4.3852179292927005 0.39955555866041653 0.8650286324512457 -0.4619364781414818 -0.29500760539499515
Ni 6.111427260590432 5.67787241717679 4.716117661020772 -0.9277558362771376 0.05596931627676813 1.64431740223151
Ni 5.104060466399747 2.8757769790219294 9.472381365032257 0.9960669619487102 -1.105510338884219 -1.111173450707267
P 0.2827120040010081 5.612851847616548 12.397237482815543 0.13270800389040371 -0.21757343437623172 -0.406975291414254
P 4.1451788383035515 6.035765810833805 12.41622562272758 0.348117083625465 0.7034306849993692 1.4593499268157577
P 2.472237192746775 8.635322898062903 1.3530860083468914 -0.19613377644521704 -0.719997845329431 0.9489653804752173
P 6.418276975752297 7.705027899687159 5.876811673449891 -0.7920062173469328 0.027804938027410176 -0.4788553653840076
P 4.669258009165288 1.0019966303532566 12.479342225109098 0.16655991944284218 0.5550996298597278 1.5971746831074365
P 3.9278770571647934 6.250364428694128 8.249378987001194 -0.46636777443995814 -1.0832422715146377 -1.0884425847686543
P 4.654584985750901 1.1195797126252942 4.130829471228188 1.051115309073106 0.019973100687817213 -1.618897933717141
P 0.09697033218897999 5.6899326841113504 3.5229133638115324 1.0119527799410315 -0.8737199895776565 -0.015219645163231854
Ni 1.5082656618888424 1.1945359893527632 2.6050004805734006 -0.21931098589262876 -0.4820394195389441 -0.04601040529184334
Ni 1.9204845008305478 6.406930922526755 4.854034136368162 -0.5445534789127653 1.0279391280669585 -1.39075289447265
Ni 5.8642641138708225 5.597690627489668 9.155979267529268 0.5478208368101275 -0.7913066201767469 0.698047566310585
Ni 8.536878935056581 2.6271130794453965 10.153906687877093 0.8372918286576095 -0.763606068937685 1.241910446914229
Ni 2.259736012614202 5.327039794491207 6.852045179210659 0.3117765973232179 -0.3956380120245638 1.3264676021310187
Ni 0.32560279739751735 9.05722430513573 9.316826523276074 0.9459453627019708 -0.09806367434365693 0.0026744615083695873
Ni 1.3486072555437567 0.9888786038749601 11.483929017830613 -0.4343189735345294 0.8985329348562783 -0.8654832034901611
Ni 4.082780065902997 6.864380282812993 1.3444322695839517 0.7630157436518537 -0.04920140142531526 0.534627220937989
Ni 5.536973421543258 7.6984553254282195 8.0333673108786 0.358564247100718 1.2303721072573262 -0.14365807514400422
Ni 5.274233183423164 3.1241696582026326 4.942066852446567 0.7164090995369081 -0.8744432408969264 -0.24498473650964905
Ni 0.47753051839347016 7.471127430323623 6.988401233214042 1.1705487073417906 -0.06283056217297565 0.0922565807435766
Ni 5.011058992669741 4.579438854746352 6.95942314205561 -0.020107569383152467 0.15138501147461672 0.12231020559584742
Ni 8.005124226992866 7.069920139452604 9.11436501812913 0.3956696365934476 0.15667814155275595 0.25809556285999424
Ni 4.661347414286921 0.4562243481650748 10.36371193727512 -0.5802126228772717 -0.8296070584188422 -0.37053890296409087
Ni 8.329115071171168 7.098461565773749 4.944779056404864 -0.6344451589685912 -0.040548353736007584 -0.5284403754009868
Ni 7.23578949286219 5.999503643911374 7.041223213437849 0.11108528341430547 -0.44464735204373096 -0.3212454560456016
Ni 2.3494557195546677 5.283490839600817 2.479402835604595 -0.4626173062585904 0.11062454172780303 0.4837923976743087
Ni 2.4312829129764895 5.287730918455622 11.330028620488992 -0.35101266000570513 -0.30457108071371414 0.45284042937748464
Ni 1.1935686366076372 3.3903905580692086 3.8111058279442727 -1.2261930361789721 -0.10785623495404652 -0.6278921883414219
Ni 3.574223742362582 2.5427996990618027 2.7369754211161483 0.28662066688288057 -0.2123201563970924 -0.4455240982217295
Ni 1.4973445206167662 3.3350344752803665 8.150231659101687 -1.646652735232906 0.7105894075313375 -0.8020975401446637
Ni 3.719100637134949 2.4968459233283897 7.072476843717292 -0.4666022590482674 0.7968514612543761 -0.5785540042279261
Ni 4.088529938294588 6.735080479441113 5.969461464733303 0.813852880908379 0.4368448252801766 -0.049410946332960066
Ni 1.0870603871653126 7.3975543776148855 11.22270399765522 -0.8998935626492308 -0.2909236651336086 0.8920745808254442
P 0.22364562619721523 5.499743901875701 7.941537509258578 0.9165010892989248 1.141367457792144 -0.4540570753934051
P 8.721390170339529 1.6932198904849782 8.152719654199432 -0.6887234606961816 -0.34529452657500537 -0.6172159395744984
P 1.7861580794559564 3.261316771693853 10.372471451992432 -0.5627208938504116 0.10100835879427765 -0.6327019510252393
P 4.080140187383589 6.18884260224009 3.7333550770717716 -0.09688610909578799 0.21669540264665263 -0.47234301818678653
P 6.863331563949118 3.996061864676381 10.31292772629198 0.26827584582710573 1.0178994844427693 -0.23144607859326594
P 6.319263449914732 7.797450769906061 10.268031710102303 0.41008761179099057 -0.18354642669850968 0.5297835196924424
P 2.3894607279395492 8.347205471573009 5.8925180465723885 -1.5469083307527165 -0.19933120033659218 -1.1052475721411352
P 7.008244621440929 3.7346144437764077 1.7419202247601597 -0.7546210918302552 0.938029964509636 -1.404543520498839
Ni 5.279937852415448 2.8361516791912096 0.6122041018747234 -0.7477158800699897 0.3644849834605271 -0.2475090455933995
Ni 1.372230552020524 1.0298509650049672 6.952502501622022 -0.08377836806923636 0.18906632807547438 0.0946631333025402
Ni 6.887289365580743 0.7830295559841038 9.46808161769037 0.0359422224225639 -0.11864844047354405 -0.7015591790082693
Ni 2.62276451243226 1.5654841247290487 9.045082672082419 0.6316375143164671 -1.0099156949063446 1.45976284598346
Ni 6.39346030953388 1.79669047149401 2.561348461932596 -0.07850297860290996 0.4010715243353093 0.9808493736680075
Ni 4.206320956203428 6.943703207913321 10.410699062716644 -0.16940021710511471 0.7868223591531481 0.15687483094459434
Ni 8.413310922716569 7.228683518491451 0.5021907808502929 -0.910057133445794 -0.18218657023650559 -0.19513824530116716
Ni 7.9378796501868205 3.7689057424891432 8.0942345921107 -0.49231637598491984 -0.009989507112544087 0.4211698377470811
Ni 3.125570963581086 8.344592715093183 12.543556366025738 0.43248063477421 -0.2181611885589017 -1.2568608975764741
Ni 0.3705177990149024 4.968233292168231 9.998100515220777 -0.6398925552364076 -0.08548583767864633 1.0333991227402655
Ni 8.5003274663786 2.1417008963491146 5.74950714812333 0.19243190211359762 0.7244484249016169 0.521920572004598
Ni 3.457617053515531 2.4576184134115535 11.28870457691239 0.8506736492811543 0.3097590526725568 0.8242267679435353
Ni 1.2234390428683486 3.3019998310683087 12.487162413188853 -1.070911774973743 0.37855020330434164 0.4746783511881825
Ni 3.001894463082741 8.428607753041364 7.959718316459029 0.9263854382921723 -0.008684929368507623 0.7442788293639827
Ni 5.657784026525669 8.013459733824698 3.559777640012706 -0.5937325117405775 -0.7790013204468325 -0.08862952551395059
Ni 3.2387512347608216 8.448958323408453 3.5228211488769503 -0.6724851444604483 -0.7596080035218853 0.4404873071287704
Ni 3.432031929508929 4.323623777399775 9.246644629583194 -0.39689682413232935 0.8465742824008 -0.437807189193446
Ni 7.357522247190421 6.0719285302777655 11.459662024947743 -0.24031741294096678 -0.36792331971811476 -0.4381566021130648
Ni 0.5915217385567363 9.262176517584376 0.29591049253006757 -0.12530451233748097 -0.5989410525247104 0.6475246178603687
Ni 4.655715070733525 0.2927706644143457 1.6458955476846393 -0.2318255734198717 0.27451282787575304 -0.5033448658849395
Ni 6.171457374867406 5.49470824319313 0.44832641023851383 -0.6260286527701219 0.4660641271566102 0.19472069814777432
Ni 8.089419526016737 8.610343499606987 11.562195991523177 -0.8947469854512847 0.2352520826029174 -0.21482029711112682
Ni 9.202236810106012 4.697699988007963 5.757405990117878 -0.5761739340315237 0.05838975279280267 0.11952415821027804
Ni 7.96909711774682 8.840700022465017 2.385627479678489 -0.030814671388011444 0.12967821592514442 0.35084810940338285
P 8.515280750868676 1.6876508316906083 3.5758022450663107 -0.19924558260132136 -0.22143985931017346 0.034421414902663296
P 1.7314529256171052 3.292615605372601 1.5705930129184942 0.07538063092384437 -0.34014974914927226 -0.19713702089875082
P 4.8500716063850895 0.9926485673769929 8.16764491258194 -0.4012265618559348 -0.5152752987739384 0.9064267357820582
P 8.305536978093706 1.6431887681342587 12.249542608130504 0.881048919138902 0.04026913193269194 0.5433422322134835
P 6.344749126442864 7.715406600167576 1.3435191609179915 0.09865219985727526 0.12600770905209266 0.32105879395609227
P 1.9078094676654394 3.270140475238179 5.89533602648506 -0.1023353051358173 -0.35783251114101594 0.717524444088274
P 7.062081870013125 3.896135230172857 6.108052374798324 -1.1332713110475707 1.2377565726468553 -1.3052580579329391
P 2.4640553774725786 8.706292234971675 10.214310182232328 0.36711085111914843 -0.67204471448892 -0.6742982864097871
