# total energy = -381180.3697094904 ev
CRYSTAL
PRIMVEC
9.09692281466580 0.00000000000000 0.00000000000000
0.00000000000000 9.09692281466580 0.00000000000000
0.00000000000000 0.00000000000000 13.31426607032224
PRIMCOORD
 96 1
Ni 2.04802664723843 5.614884644026797 4.530618761063729 -0.5800550142534848 0.027527258885991304 -0.8617605032229353
Ni 6.052373861643819 4.7481298271227415 12.609568725673729 3.1820520369047585 1.4051724123320897 -0.9387046219791576
Ni 0.9392118080526783 2.2432284195004706 13.032416445832657 0.05949969802752979 1.1898772324670732 -0.6209067581625243
Ni 2.979124000036297 4.768306802184593 10.429064499477574 -0.257487239852034 0.07742568637833118 0.14481455734595058
Ni 5.827024886787109 4.155246971991497 3.179180800066827 -1.6153606099878441 0.4026527527795001 0.20831669166465414
Ni 5.693609415075156 1.0648857983500075 8.2824190204321 -0.08593192407712942 0.17197800513461994 1.2235118898023831
Ni 1.787881942169105 1.0313909281165827 5.324961161741525 -1.1234687231348524 0.31877771123139936 0.5128900863712135
Ni 3.946063229183891 4.76984418216 8.196035549967792 -1.4043442600038394 -1.2194793716042225 -1.9906768797359202
Ni 1.5783889039818306 4.103976714350112 8.574826872369938 0.5332385681205783 -0.858610644740044 0.2788461651437843
Ni 6.206057277646937 0.5590413921341323 0.9031043015533545 -0.7195327327675544 0.08811581910232566 2.540779827712005
Ni 8.875703959556912 2.6001370937911266 8.918641435793132 -1.0951187112372494 0.795841531932623 0.6002988521041854
Ni 4.401819068047169 4.900639740067708 5.085783044644497 -0.033943961045612515 -1.6163656542135902 0.3653581300940998
Ni 1.9721310192217367 7.384199766492909 2.6937826378315726 0.7072634284818979 -1.1684213765861426 -0.9678601604971911
Ni 6.290776920907091 0.9114207084972429 12.018388814515244 1.0835081235815147 1.1512723756106817 -0.3297182694033031
Ni 5.461747043399563 8.420002702231221 3.1526587212603223 1.053118969766696 0.08258074821670938 -0.7450175073022202
Ni 1.1118895991365656 5.124069264185891 1.6669065125658453 -1.9193940730305332 -0.7022929718505002 1.7963307913187452
Ni 1.3860526624431821 0.4256286494990588 1.2009402874043604 1.2643304664806418 -1.4183626857701184 -0.21077363784557895
Ni 8.065959558663957 3.913105077403419 3.292218254720145 1.5177193678935863 0.007105500696529699 0.4802728145568245
Ni 6.725546158567623 3.0659268386477425 1.3257173211006532 0.7958543874484293 1.1356878909088635 -2.9556247516823224
Ni 5.707800614848145 5.558847598769355 6.993278607054031 1.420858969829411 0.4907120076122775 -0.16092380420298738
Ni 6.2470207216070435 3.547754458632421 8.366339044166583 -0.15342209650930352 -0.40257639101560994 0.15856713104535272
Ni 1.9468051857807114 2.0326073628697023 10.276416313304049 0.45157596084276425 -0.6330138258387034 -0.35448750592818307
Ni 2.063245799302667 7.970532837113542 6.926454430584532 -1.1499366875183938 0.8561205313283385 1.7132095972175334
Ni 4.504905398705826 4.057354984326673 0.5786297962823219 -1.701255767289767 -0.4443686444610476 2.405849876469618
P 0.7000537041860997 8.15903927409807 12.474961557057764 -1.6147322323752256 1.1724711211754841 0.3024846304983307
Ni 8.427071011348922 0.5680946498354643 0.30478603497059764 -0.46355961556720165 -0.36791612062926315 -1.2540609662338338
P 7.28836368341058 6.239106398656723 8.72246902185431 -0.7964760801928283 -0.431090953515535 0.11446859806424159
Ni 1.7111857849344483 1.6382102691787352 7.8649766918790105 -0.8110038414953581 -2.2549975975700196 -0.11566467525487177
P 3.0022847658196485 5.734973123644245 1.3413985968498054 2.777045182070785 0.3471899438255053 0.011356819773715925
P 9.111568977322321 0.41085797573534016 6.727872241761182 0.38606322385193514 0.31478735912508365 -0.621070280323582
P 3.4756249567093285 0.29960806643804316 8.888550634120639 -0.2824559939822297 -0.9440872264473095 0.963825071195869
Ni 4.339650696733963 1.1595847660659104 10.814885923921109 0.575558411934712 0.5178209480139275 -1.977718262692723
Ni 6.61275341114116 8.63665501876551 10.270212211864832 -2.073310335567436 0.3530168349199275 -0.8831068301091952
Ni 2.7120110520015177 3.349195921808693 6.344634343430167 -0.2863231902471198 0.18037188562527 0.7551947049455381
Ni 2.505847487607137 7.589071567831031 0.1793549325155369 0.45163381066389313 -0.6715616042049144 0.3282031183103573
Ni 6.224578612735273 6.165339450605978 4.225601664250673 0.6352995365490866 1.0444011302777239 -0.06653500760775638
Ni 3.371719902986846 3.0505712327395345 12.045882444690823 -1.1901528547259632 -0.7668178910067632 0.1568627467597363
Ni 9.056578078201992 1.974987453022197 2.214269275040643 -0.41291788215093406 0.35917436988089113 -1.1392267573000574
Ni 0.4935999479502071 5.957865929309475 9.56345134640141 0.30388948126565735 -1.7627010190794419 -1.5181441141358307
Ni 7.063233034704225 7.5769362726405385 13.212425447106964 -0.35701644299762386 -0.11831214018004785 -0.9219214889835478
Ni 5.142736150041131 7.672444866497337 8.14300503773918 -0.24074241629352733 0.2469174347559877 -0.04284640574156492
Ni 7.095781824952784 3.990938350004501 5.420610757903759 -0.8481002321270231 0.6406309760643291 0.17120204620054386
Ni 5.359879700413714 3.344365455732118 10.871365079633014 -0.008549175121591729 0.12925115569005483 -0.9896793132548118
Ni 8.401081102533904 4.800591781668141 7.453406427078142 0.01805531483981407 -0.320368452757287 1.5912601173952143
Ni 7.630362501016667 5.480459413869458 1.5678210086124202 -1.1205734038649282 -0.7983419297569735 -0.11559345569730414
Ni 3.640825077143603 2.450265288496266 8.577902542013044 1.6844140131420795 1.2710014507429144 0.2891406050912569
Ni 8.906569819063161 7.404949847699438 7.852155488699491 0.5235678778000338 0.17563488516091685 0.14627802926535452
Ni 9.031097597071133 7.395116074010592 1.2234906496590148 1.4402947099565195 0.9452082274256303 0.17191501310716845
Ni 1.2963206146478252 3.099649131954452 3.7875093206433 -0.3109942106312386 -0.008850251301778305 1.0912078062186175
Ni 5.1673797142623 5.670148450835068 9.720931818036096 1.5259664383937268 0.7242170256171012 1.08771367702243
Ni 8.157056144899025 0.3795063405445537 8.809716699997102 0.34939749299978534 0.7585767340438936 0.05782488142826816
Ni 1.784061234537916 5.480050052337545 6.7537284258091095 -0.42199696163406675 1.0208359413632744 0.9290907530384773
Ni 7.420969528981638 8.370297115334036 4.47697511622954 0.9938786960481399 -0.07114319580372909 -0.0767523144603904
Ni 7.850726362106968 6.498186763743074 6.0218027424405465 -0.867702836849299 -0.5593920865874947 -1.2245740125183104
Ni 7.672808743414592 2.873090266347866 12.168906501338233 0.6035736662007154 0.4862835395272786 1.2147565122072563
Ni 3.175426499973037 4.053652536693591 3.171111829426673 1.2110538665446886 2.0576487177707787 -2.6040577618350444
P 0.15541728951384365 4.645871316450843 5.33384157790716 -0.12419122466864417 0.8163972445967874 -1.014939373373181
Ni 3.553831203150598 8.916940311204959 4.344764986805997 -0.32640026077366363 -0.47743971598340357 0.3941609132584051
P 4.756126022379444 1.973586526890761 13.271980272461978 -0.020371621677816528 -0.6636791161330441 0.7377525982096907
Ni 8.46143008926083 1.7187180371216497 4.511245953989013 -0.9717291565342941 -0.678872793154347 0.45223133503857604
P 6.892238174362647 1.7097848588030125 2.8230107959182007 0.8064311345230112 -1.4412601591935823 2.1712734797774864
P 7.1140666400449035 7.4962738570077905 2.170198322207169 -0.351816129743607 0.10115208346099352 0.748656389606388
P 5.403071890492014 8.149669443478725 5.5157409197666105 0.39578893578013125 -0.06893538951913289 -0.18016465471047036
Ni 1.1139727944878568 8.613521543750952 9.580479876436703 1.3988937784122297 0.11187281231260733 0.009126130670984283
Ni 5.696256619648194 1.2430672278073933 4.756055976072872 1.6488664550547731 -0.4822021703690534 0.48915957552349304
Ni 6.988201614366015 8.718709263606764 6.923671681859816 -0.25581113770119174 -0.5598510285017843 -0.9646462815455837
Ni 3.670308204364279 0.42357729337802746 6.7954150751422615 2.0009479226446247 0.7766621307906947 -0.9087191313606607
Ni 8.955811462890845 1.057490000006777 11.162308326978897 -0.12339495401959395 -0.8476322913516692 -0.3001935204713088
Ni 7.514249376720243 4.593727754208042 10.523609729195936 -0.0034684181645746716 0.8148535542587515 -0.9975659150917401
Ni 3.9231025957050303 2.563876758986555 4.586219154020462 -1.0164262423313528 -1.252185860698308 -0.028703281471963465
Ni 2.6997029152753296 2.3409839533213246 1.3629546654280575 0.003075810711846316 0.8359355717400313 -0.6318555438645441
Ni 8.619334477504118 5.838068551225832 12.664822525866777 0.9544783398736464 -1.2985320520630153 -0.4567811591927875
Ni 8.158338811032351 7.130013545943653 10.784116491797931 0.02516492930140182 0.5951977834321943 0.44258918396312164
Ni 7.277665702043251 2.0094829847780766 6.671911610656366 -0.5373456483104164 -0.6372170652867736 0.5424009513461369
Ni 3.798647593080509 7.862561458840723 10.492720217690065 1.1305307721879563 -0.12598354068237658 0.06485196347837863
Ni 2.620250390392458 0.36692529613042363 11.85997590828009 -2.1971482906617195 -0.6816251590885035 1.862034818384774
Ni 3.8511641291634975 0.004240075778326829 1.672604825090076 -0.908165572850036 -0.0368657626780978 -0.4715243789402331
Ni 4.0793604408977355 5.919395042232573 12.372561134388134 -0.9577806647740021 0.6726823480729189 -0.5346588455068728
Ni 0.7083309943613831 3.774731782693851 10.847465643707633 -0.44618872838892193 0.9106330605539221 1.026358156733084
Ni 4.786236837282387 2.1764479082610424 2.454165139356958 -0.08022304661781024 -0.8393849637412125 -0.3818877523180068
Ni 1.9557929456369372 4.803366343162218 12.821092197059292 -0.1609556858821873 -0.18696753656491671 -0.5895835225692104
Ni 0.5477502913916752 8.815746140516037 3.334145062818687 -1.4255756585787902 2.2090494129746796 0.49684254599004757
Ni 4.8124268784018955 8.307619316336671 12.800375774467609 -1.064447764515954 -0.13449054971212324 -0.2601542451612358
Ni 3.9097301189958684 6.592076105318081 3.4474226762373936 0.9774748007688197 -0.7121950614555604 -0.6834354728243649
Ni 5.291479936892498 6.315111189748593 1.2392010355615475 -0.5510791958464251 0.5747878523172746 0.578375569668533
Ni 2.8203554041145242 6.6799250900666385 8.778002097581354 -1.014781250528762 -0.1109209899222993 -0.3794215501657014
Ni 3.7080877252983946 6.862727756373176 5.92514156844834 0.9134458474123688 0.40362128734035646 0.31666220755029334
Ni 0.6344239536974944 7.621756811923561 5.316812138179574 -0.2266193466285839 0.2968058349459985 -0.2976080191323197
P 5.844700208042824 6.886789117526737 11.3892892898095 0.2389858386137368 -0.10265206504528773 0.9816857535263739
Ni 0.34610971707878785 2.90644868273732 6.591654008094064 0.041006781429664865 -0.14161816189583998 -1.3381964605321728
P 2.393072934026537 1.159284567609174 3.1567195876569003 -0.634208874588069 0.4230603699015746 -0.6185356868271864
Ni 9.001669051388046 6.244864750872301 3.4720944409196512 -0.9514230979870905 0.2207297206170263 0.7227422408437876
P 4.93942901944721 3.0921805582277706 6.385229362011552 1.2407675915590373 0.36340254902962577 1.5368712582316888
P 8.784443628709079 3.9148152989145224 0.5346552708319209 0.2438727343923929 -0.9427379115082666 -0.581324882104844
P 7.080398928275782 2.149348174848394 10.179755139311844 -0.18163018351240334 -0.4882429772464946 -1.0768312257819712
Ni 1.6965488359378211 6.8965683096779955 11.146903597686858 0.9085982895120803 -0.6225661481428182 0.9985298216669061
