# total energy = -340866.7179141268 ev
CRYSTAL
PRIMVEC
9.32560897080297 0.00000000000000 0.00000000000000
0.00000000000000 9.32560897080297 0.00000000000000
0.00000000000000 0.00000000000000 13.64897137577413
PRIMCOORD
 96 1
Ni 3.627307519573724 4.4607744964361995 5.116112083635597 -2.290976843878106 -0.7219205162734406 0.40494823368189614
Ni 9.028812147345425 6.716499424249432 12.659694172840686 -1.2923621758068775 0.5227109291163772 1.876184884632911
Ni 2.660726800149263 2.523034183578734 6.320715916388847 -0.5998311684391476 -0.5485692849403778 0.589098869623308
Ni 5.186773155428117 3.4009843152696155 6.949059595838496 -0.31503032837382516 -1.1937943081332925 0.021786242637156027
Ni 4.684934159457249 5.979338011310007 7.771669698727966 -0.7656500959509072 -1.7408880369694084 -1.2621565987577745
Ni 8.73336752929118 0.5004075149926375 8.585380372969063 -0.3809642120624729 -0.3128094094631064 1.2218807819568636
Ni 3.6832425222279763 3.310330070387658 0.0509625879468084 1.3896120959999874 -1.466284706262378 0.3675530808628896
Ni 7.721818723371419 2.6802452997416855 10.540172561844082 0.7187829990857234 -0.4599808970770078 0.6063491720633235
Ni 5.493828156660846 8.354878363281598 13.265899789135794 0.4423906947990704 0.10653211682598428 -0.787290042818186
Ni 6.8112849139089535 0.3694591788355056 0.9312226729817145 0.6345675434790684 1.624130899981306 0.8118029403578859
Ni 4.32524542114873 8.422237236934759 4.032575171765648 0.8221277193226615 -0.25782379725584625 0.818745690224306
Ni 7.8966645661130945 5.243015903178667 1.3230483923917378 0.5363190068181152 -0.8849407979941404 -0.5556806991741785
Ni 6.103219400983079 3.526908013309023 8.997538717635349 0.046157472392668895 -0.15604102218938934 -0.01029341150620808
Ni 2.844320064112961 7.589059353950624 7.739772385777216 1.880604610967161 3.142190167712814 0.3229714375977728
Ni 7.178359534528606 1.5674576827491404 7.292181389796353 -1.1174965647118174 -0.04360488117414426 -0.9978767614639397
Ni 0.4478306641316158 0.486779070031163 6.222552691157238 0.9471913192939299 -0.3229146162179084 0.6151755121057018
Ni 1.7693011634841576 4.603922594259269 13.090933646038293 -0.6898501181014571 -0.24522924842028734 0.1740567420405196
Ni 2.065249364423252 0.09529280278796425 9.767353750413696 0.8349909484385749 1.7650054988429023 -0.7415575737780777
Ni 6.720500110501295 0.757995755958741 11.512730064062994 1.24759926976889 -1.4318663766835082 1.2728883833529818
Ni 5.934090156545348 4.9545561662494695 11.23651578428373 -1.2286774931637228 -0.7297582671503046 -0.6285922997322401
Ni 3.3746487955137625 7.715104284906754 13.637301492321564 -1.4830791521118973 0.5207648611335999 -0.19028554519455615
Ni 6.626973578053896 6.609991644103681 3.075918765416321 -0.4914290882839601 2.4712394576190215 -1.7256853610870408
Ni 3.1670607396478654 5.310393428049785 1.381863143098613 0.08560102310027193 1.1906709320129625 -0.8990846935946902
Ni 1.8690665283383068 5.742411589597115 8.290426281947097 -0.4394874051093463 -0.595811248646477 0.24733189658558696
P 6.660247350889903 4.639630351038717 3.5121399789303513 0.09282093788747885 -2.399230314270571 -0.0011243434124303218
P 1.7352906675388327 7.444857462312961 9.666542984793034 -0.04815933331404609 -2.723391401301071 0.9259007853462699
P 4.5371325827538085 7.483334924959084 11.389015602790643 -0.9167299174802792 -0.8097373160781086 -0.32842191918938274
P 3.4684271194035854 6.676977493397694 5.10164433386604 0.7161375910430764 0.05802054237884201 -0.36823365186968193
P 2.3762304470360136 0.48991247464800675 7.376668609460696 0.21518847908382296 -0.037440404234645196 0.15504240572154587
P 0.301073555633789 1.1407644439286497 10.931133797301781 -0.9988545519961763 -0.28896834117945075 0.1555694818696095
P 3.3069262231104317 3.728984634268508 11.524877602318652 0.715938844768709 1.4187581214363243 -0.9777655925363612
P 6.400799583493447 0.167634349318446 4.987621045444354 -0.8017802660145611 0.7223581180314914 -0.08912626264471103
Ni 4.586782124956415 9.704974751955161 10.473674441899657 -1.7425602824655086 -1.6779188923360393 1.1948703148062905
Ni 1.7933985370851224 2.2572729789036963 12.090599817476319 -0.21770173242397992 0.05611715470854207 0.20013209897133274
Ni 6.046351837430958 1.572251045764193 2.9292334641076305 -0.7376189008453039 -0.2607116603266026 0.23734161814209448
Ni 1.4934403242851861 3.0316901997130334 4.253155666060673 -0.3853407438636138 0.21522318897650033 -0.09816908957326964
Ni 6.614570518112223 5.918404482243171 9.10173467931528 -1.7324676741161968 -1.4899277996026146 -0.6878713971085315
Ni 1.98137483726881 5.511621418592208 3.3945533753179027 1.3298084935787937 1.5815948263913084 2.6454358105611986
Ni 5.1348947926796 7.760314837235499 9.002247217608694 0.11648974225932843 1.1732725340308567 1.8195388540040924
Ni 7.718741272408447 8.880451034103261 3.206279588207795 -0.9399058413761103 -0.26870804826851785 0.9889275226904517
Ni 6.6475738482878475 2.8203719002556555 4.903516175748138 -0.1373465311036796 0.14472791116941527 0.27970568493060216
Ni 4.480470182599217 5.721746040100312 3.2678640447813443 -0.6985239917263711 0.8376582108580929 1.186963144144072
Ni 8.88965541016524 3.6228312272639474 13.26620007374491 -0.31968479642670106 2.3083492737182825 -0.5755260160348797
Ni 2.531473859704459 1.100188719262319 0.6107014923837412 -0.02631395530418049 -0.8407607610428166 0.9205333503867695
Ni 0.8605849152116414 4.403449978044121 1.917107402992088 -0.9573134953295964 -0.7239666001691919 -0.9604165597349524
Ni 8.923964325597883 1.411720012804824 13.395715063802013 -0.9065473205203225 -2.561276147893144 -2.0879437692098946
Ni 6.630302820459293 2.785969728733225 12.92332354330319 2.612637275973939 2.1726130245245163 -3.5150721169877848
Ni 5.625608337138877 4.8839519806717195 1.431286073003038 -0.20930656638174924 -1.3509802425604023 -0.9994834438294271
Ni 8.80742219019105 5.633385895027114 8.146252367136372 -0.4798524391899542 -0.2311645427971051 -0.6245404982603696
Ni -0.1607996104979556 6.769907186870456 2.845619121443694 1.933252061959548 -0.06473754938770142 1.7984321539324641
Ni 1.0094878463354675 3.8451817221431295 7.468484825221399 -0.6616132347429509 -1.0692981506297197 -1.0966300056754534
Ni 1.515625948045517 9.102773552155506 12.150232424090625 1.1438141195604237 0.4673813033061369 0.9071710701472506
Ni 4.079403717252198 5.550229439764033 12.840870238957104 0.40924274729219196 0.0685263270061723 -1.493783425903279
Ni 7.958073701237845 7.541088421364183 1.242052680729021 -1.4117690917130008 0.7945726925225284 -1.7557081327013764
Ni 1.442811593139815 4.72105224303176 10.58666072260291 -0.037011801337658835 -1.2333083070675146 -0.26020155345940343
Ni 7.678137570915181 4.0102450010661475 6.839485555460548 -0.1305696173911622 -0.12312190286386536 0.13655951642600997
P 0.45007720333458506 8.85330418636626 3.97388445165819 -1.2952556953045886 -0.628440090425092 -0.6718220569551526
P 3.3800296718944733 4.309699630981234 7.488371686368481 -1.7225658416214529 -0.8218407842098622 0.45372797418876054
P 7.7128195107069715 8.546500976575958 12.99332902478451 0.5795675330941051 0.243071064426704 -0.860656471525479
P 7.898511036690878 7.429526161151976 9.25574990928123 0.6257646004754578 1.6232281856613784 -0.23921955189109773
P 6.667987606342225 6.24154615896416 6.843280145753981 1.6311962914685199 0.8838395945101617 0.9026325588469486
P 5.651281738657243 2.2809040720557263 0.7685663337360994 -2.6815150727822594 -1.152500848701144 5.026542418647866
P 0.08818482362439789 4.755473065772148 4.184774705663445 0.3207759726083508 0.5681549203817893 -0.9608988986880095
P 7.503599473269802 5.273436039667191 12.462138607114076 0.30254942229799503 -1.147349900627824 2.214005214318058
Ni 2.4765926508648 8.021944797132972 2.2149281862141064 -0.7748700718872784 -0.7630221714097569 1.5618598098562262
Ni 4.482409909266788 0.5366934595287653 8.102234560196 -0.3974863780872122 0.6893508098675354 0.14615281654139992
Ni 8.654239737106897 1.6350496966267696 4.23246400485873 -0.2721304436865055 -0.9257249218900379 -1.002015209112345
Ni 4.557191967666995 1.3468790535759119 5.911383231243107 1.6087071092270684 -1.3098500481789959 -1.6256925880414712
Ni 8.461218282465731 5.513309353817353 10.576219770790356 0.43550013832682416 -0.021967248299710553 0.1582079479337211
Ni 1.620408490530208 7.385863659913695 5.825258434642104 -1.548322951712056 0.03481325102444327 -1.1570578719442075
Ni 0.2579500745944772 7.769845609611733 7.918723361591316 1.0849942212087378 0.8271825081377496 -0.16927294749863106
Ni 5.198197026427027 2.5386732298360166 10.99391845975089 -0.7855036403417245 1.2221569184363854 0.6440245751269101
Ni 5.700912629641893 5.027911406475937 5.482682188809502 1.1612094322187356 0.8145905304053519 -1.3113824256631221
Ni -0.02236281033092639 0.8115536608843221 1.981994057704996 0.8152726440740411 -0.16318457521270607 1.7781929440674538
Ni 3.170007632085135 2.8153920250610285 9.382426183965217 1.207511657719385 0.5905916521187506 -0.3115603675473537
Ni 7.957644723224825 8.416306149624305 6.040311640495452 -0.7826738842024134 -0.44695903089604316 0.38516513751769793
Ni 3.4829377669744455 3.470012472929965 2.6446382595392066 0.04618806852028819 -1.3547381669409377 0.6108403750654576
Ni 5.278602427041392 7.977834666663714 6.559408608442306 0.006326970659292329 0.5065916549570114 -1.1803793202789672
Ni 7.857851381543739 6.319349714673467 4.933079288771519 1.117432030022469 -1.2029659473302314 0.9329034419163481
Ni 4.4060145205132635 -0.1671662037477152 1.8493130233996213 1.1916672344879606 0.9180139263990253 -0.8275324352780007
Ni 0.9758223979223547 2.195024538970863 9.203733527519827 -0.15470739097963032 -0.2968109771523211 0.14171509248502043
Ni 2.2530578036453233 0.25846671333189725 4.576554729589473 1.0242233697782683 0.39050634722495325 0.6074930558597795
Ni 6.666644718649293 7.449119265616227 11.244759622620903 1.179895438664013 -0.2513219915815865 -0.202362016743116
Ni 1.7512281332834339 6.682134555162915 11.994224311485926 2.126798537293563 0.5236858914351368 -2.0302417865127356
Ni 3.5712699352207062 5.720067430484146 9.99791264631593 1.098642665230108 0.4820065094184796 1.0790272049920255
Ni 9.16860302593616 8.230978322390568 10.709310199329895 0.12561895825410624 0.44613293545032195 0.4254790066453963
Ni 8.135213643788282 2.735760649991896 1.923685687565664 -1.3436960501941635 1.1761313436358904 0.0391859261708422
Ni 0.7508187672887323 8.544990227921408 0.7565838587593656 0.11774289794013916 -1.4748274536260666 -1.8524533453439258
P 4.983670717480975 6.971927854176068 1.366507595354283 -0.24173254812093853 0.3690702888383644 0.2503269746581689
P 6.271099013817665 1.1661767283956113 9.432162454331328 0.7352262322434112 1.1783391499204867 -1.6713970320571212
P -0.21319274686209683 2.4768164654802893 6.049551453871549 -0.05987739308192268 1.7673950821210012 1.3308197084521274
P 3.7454723109428523 1.5773428282665642 3.8098096872869145 0.7484491586915883 0.36593508564349236 -0.6365390653831424
P 1.5553623679037645 6.51116816575638 0.6222344730077013 -0.9370732570233217 0.03521305756602323 0.16913436503823773
P 3.67610843135927 0.724936472129244 12.562581943740977 0.2608227319831702 -0.5823191276973133 -1.0890041136990793
P 0.9857261946577358 2.481413990706789 0.9452362655940093 0.10072682299811685 1.0957308908999517 0.4011124048755737
P -0.37303368475704196 3.784257518685272 9.256418555445002 0.06513221372295878 1.6965588760347297 -0.6434378493855047
