# total energy = -340873.221911342 ev
CRYSTAL
PRIMVEC
9.22032072786356 0.00000000000000 0.00000000000000

0.00000000000000 9.22032072786356 0.00000000000000

0.00000000000000 0.00000000000000 13.49487138953018

PRIMCOORD
 96 1
Ni 7.4441734473337915 1.039213126482344 4.5070707134116255 0.04420806197578193 -0.06099736561897882 0.5946989894189048
Ni 3.730053080757108 5.317275968416271 9.557647983367131 0.22896753514578633 -0.791832667883546 -1.318228244940362
Ni 2.4522272747173495 7.2980405844602085 6.739487386555776 -0.816056316317601 0.036117828768479736 0.9201006337247251
Ni 1.2579467945970524 3.787892152547504 4.024602679943216 -1.8628444587702626 -0.18277303886759488 1.243706105362071
Ni 1.5684410943805032 1.2541480224660715 10.557375086424898 1.1088463452359871 -0.055952346995903644 -1.1134157097742243
Ni 4.56658511747435 8.767741264397326 8.108568550689574 -0.5706481191172882 -1.0746843546422977 -0.28216545932500436
Ni 3.3978541460311114 2.4963649499382368 5.3278424559456505 0.09605127189931845 -0.4207738878602431 -0.5156938743685957
Ni 2.511430953972273 7.450056011944387 9.331515007885645 -0.05790458562626802 -0.2679554863732095 -0.3169000345927123
Ni 6.611873537820724 0.2988195297051788 6.730000598581101 -1.262113147114349 0.30063703576663064 -1.7489618151164783
Ni 7.173732220698353 0.06768821836882756 8.813797688357187 0.8651978110392584 0.15539593240622268 2.0349479337391534
Ni 1.599624219009089 5.4896775249820005 7.962459660649826 -0.48833579407061706 -0.8853835419585139 0.33452057588795286
Ni 4.855347121353136 5.23022692062843 2.0662130161571706 0.9664380833386839 0.09289292877599485 0.2256783228715533
Ni 4.032728548581646 7.353878846657344 3.391666388805137 -0.6931313599558901 0.6404499704017744 -0.9437079887310198
Ni 5.915757765139181 0.09055276965622179 1.1551992287747253 -0.1758313174424391 -0.212667255323866 0.38627842518653477
Ni 0.7071174593482574 0.8305655671882185 0.8645276964776724 -1.497358544849047 1.3399041872518989 0.3184794632646902
Ni 2.0374788087081686 8.530944988019046 2.050950619292091 0.6461979286291452 -1.3194420627428052 0.4882722878225333
Ni 1.5626691736183815 6.10470057705195 2.879252597746922 -0.4609532882926061 0.3493116181541984 0.09949449325291253
Ni 8.885798250720335 3.311681028710365 0.9051468973170491 0.08785253813860999 0.5258872699618298 0.3214675993587367
Ni 1.9921609324368794 3.607533459212268 9.605797420127315 -0.6789491549182372 0.6594267686145934 1.3036948272108773
Ni 3.384171190103015 4.252365808125568 0.5044492780321441 -0.8551823357847852 1.6171536973325247 -0.36956856863102155
Ni 3.0536964553490895 5.744195257757721 4.8807841421175775 -0.11311619780140518 -0.5894056022304495 0.8327034379559788
Ni 6.436318631573451 3.004349298929163 5.6403707584769025 -0.3266038921440375 -0.836099093901089 -0.5271887623820727
Ni 6.976666306243365 2.237338480337154 13.050647540798254 0.17499956556976312 0.2485626836688945 1.4333126222117316
Ni 4.780791608122283 7.776132653721425 5.6792224238368885 0.3370191739400905 0.2711040593045202 0.5720419141410212
P 0.1187503544401193 1.4701801366138443 3.590026836287284 0.7875222134336501 0.5280696223251293 -0.08376679810501057
P 7.928941028786343 8.930323179410884 1.8732363139354118 -0.6868059319584946 0.09579159048002858 0.5079227150636091
P 8.095423139458651 1.8177493459571836 6.888484081040724 1.061298934474327 -0.5067009268413661 -1.2475635314349482
P 0.07129520782911816 6.990026550946742 12.426374662995782 -0.16853195556754846 -1.5088886569758335 -0.6791694984591593
P 4.16030090587352 7.204675616988575 1.1689541032043307 0.261524128925569 -0.8152219933417638 0.24016880317824443
P 7.744211903436337 5.448527233669943 5.262433500855411 -1.2364399107179609 -0.42675478803402633 -0.44430308133043483
P 4.603503281582232 3.2140378324310257 9.144772164493393 0.04638758612560398 -0.3060255537720536 -0.2219715634439274
P 2.504856865308706 5.153486191390192 11.298054513143958 -1.1304472113352144 0.21819435578968227 0.5279040432815425
Ni 8.064405980602778 3.341195275291117 3.656975584935469 0.41185755920721967 1.0556990717890464 0.9640965796897009
Ni 7.406637521738589 7.148717490622257 10.148129307813216 0.21707515458357454 -0.20811743116965445 -0.1449431125040149
Ni 8.62460500575328 1.6897805148749414 10.48141255225427 -2.4055955943669667 1.15208870086439 -0.16776062461916266
Ni 0.048269300929364295 8.489877679593345 10.137077831414688 1.1744529274922033 -0.10492543446049672 -0.24609545307532454
Ni 4.58149437605638 0.5681589280162187 3.047871056726872 -0.6148114438980637 0.8622883507019472 -0.8329399794468172
Ni 0.8692641752244804 4.662882146930574 12.685057214634522 0.6225329809120376 1.8463300060550074 0.3471680894486343
Ni 6.30306655672652 7.270840638376728 7.802343259393123 -0.45256532133922706 -0.5209934322046382 -0.20239158442947078
Ni 7.742976380461698 5.637995603862969 0.20244043939466858 0.6014460783347514 -0.6582142363637309 -0.9050352547511703
Ni 6.407108655576007 6.84477883886096 1.5747164446531867 -1.084386926642042 1.2407902172668566 -0.3746004746279742
Ni 3.8667443352274766 4.072228402487283 7.071191190059846 0.3657610219594733 1.4591398676874805 0.7616119213257916
Ni 0.39380727362111373 1.1141651135035666 8.296889912986739 -0.02320883401629551 -0.8387884678077941 0.09671924450062053
Ni 3.0081941726636754 0.18742145899623464 6.20175736093437 -0.6341708222612821 1.6238077123139323 -0.15868334490824285
Ni 4.4384318799779825 5.796465255841534 12.233788902371968 -0.06612105999878937 -1.1433011844797472 0.44547010505534246
Ni 2.1151968919412703 2.7554375211428517 12.849559722451195 -1.124018424990735 -2.3581224884866683 0.4756042054365616
Ni 5.60548475305268 2.9072501015714933 3.14769209275703 0.10318788294409971 0.1545652089748112 0.20965520797041956
Ni 4.778421985700772 1.7864832384422416 7.308808997013054 -0.5190861878795964 0.3712536696429284 0.14385347898426193
Ni 9.208703102174416 8.364591961836625 3.8355796512403026 -0.6296382244982511 0.38278223910781817 -1.339318747062074
Ni 6.23571211396726 4.927809621783667 9.463130475807215 -0.1270451491776715 -0.49443239388665816 1.0969462513642916
Ni 0.40780740858150544 6.218617639377846 5.836626206741809 0.44001730947088735 -0.05728726375724328 -0.14167832570981406
Ni 1.0071356307452506 1.982415053450358 5.65290670650914 -1.4407184277574994 -0.1499027705021354 0.3468001645862543
Ni 3.7240137706945045 2.6276530964747344 11.169475296830962 -0.1840123105913347 0.4091085357071728 -0.9348621083046158
Ni 6.742119788117414 2.7831445848651755 8.266984724808042 0.4543699786481336 -0.029658703406697306 0.9422380890537129
Ni 2.400953071269814 0.9925859646707655 3.7971327579593224 -1.4749058722724857 -0.06503451180282993 -0.28873359946082533
Ni 8.716162790366484 3.926326047631356 6.617102381693246 0.23572079470921983 -0.21848026246121727 -0.31619683787810055
P 6.5879652462293805 9.011959898944149 11.10993599790233 0.2326994913843928 0.6672853454270637 -0.30053599141239207
P 8.879353246546655 7.617506256290854 8.035696668019684 0.1767844253843278 1.1786371407768799 0.4332193127124475
P 4.643159880939875 4.0434056799595 4.618255794712256 1.0064657886845312 1.6821655834275353 1.3235211179081852
P 9.09538536069443 2.060769338812192 12.558826414005411 0.8108639734833841 -0.557085292831189 0.11870731873593748
P 8.412832679771801 3.786463002838033 9.365224500387749 0.22553716930799866 0.10409548236003362 0.9109655041926763
P 4.145944866533866 6.4547869339481 7.534011642135278 1.7855128747676348 -0.6933154509422381 1.111463214033544
P 2.556970117940512 0.1961106892298181 8.537732988122999 -0.9123315313022675 1.2123810699965443 -0.37094847969768374
P 5.025056344272636 3.619658180941005 12.593966900281124 0.5726731199671169 -0.6409852740799541 0.8044945796219307
Ni 0.1535579871383377 5.608130985095379 10.304872915755567 0.6527190175771146 0.16817560066939424 0.32584850203525173
Ni 8.09530327528947 3.979444315220145 11.860804801033883 -1.0188924444836582 -0.00478482298315305 -1.6081594642537143
Ni 3.181969557014639 4.066308956593861 3.036009114138263 2.2050626604127896 -1.117607636368385 -0.3558519903758775
Ni 8.085566616623655 6.215325984885709 2.9076991311898888 0.522684446753816 -1.302705980935047 1.8404915449963593
Ni 4.662411910574555 2.4018197814162026 1.0443184180574026 0.07238066775525599 -0.8540623632477292 -0.09922247053844847
Ni 2.2483475432604334 2.4377421508878085 7.688662237277307 0.5305720770320088 -1.0282677150509711 -0.03842925051047575
Ni 7.346290522716089 7.681541383595859 5.504125767528718 0.578915501332403 -1.0627366953621182 0.023591671277010985
Ni 1.1579431962169098 8.768681737109366 12.447790701900223 0.4043134283113746 0.7620053001094683 -0.24639987168962083
Ni 5.0953151880543714 0.9743297296723622 9.831998625982026 -0.45981017582709843 -0.5870566423822986 0.174023574809739
Ni 7.969012542575768 5.748538028810372 8.125302510739372 2.1585866283384374 -1.2741492523432765 -0.009292995266151736
Ni 9.165229290044381 7.4586954524461575 1.1011312681531915 0.8687837286183037 -0.4742656891307961 0.6650117189015385
Ni 0.3527934430555088 8.738669593210474 6.185549881196899 -0.3699717176067112 0.5863022807147773 1.050547352384778
Ni 5.121122865711205 7.049396195974378 10.19299999853025 -0.6590850690044585 1.2755008812751647 -0.09162537491748092
Ni 2.0027274199662584 6.584959421679139 0.40358173560182453 1.309240953840087 -0.30289986365887833 -0.3380447869911275
Ni 3.5243938274038826 8.972561468566282 0.11115373221022813 -1.2251532820605482 -1.0874938477021399 1.9506630583471436
Ni 5.675227258874864 6.03776104872447 4.4377477321815775 1.1517598567700615 -1.2955169193857752 -0.04468628716378111
Ni 5.151042806403032 0.8909900169046511 12.657622150373033 0.570081962201173 1.1094014464085087 -3.118559929888384
Ni 5.857393135068528 7.779728578796869 12.855092836907025 -0.5528581421237188 -1.0183219166921689 -0.4561175574668596
Ni 6.121536882661588 4.784986854043633 7.034849295996105 -0.11228367459778082 1.8807298236911156 -0.9942211669892234
Ni 6.145482055535757 2.644351097273779 10.920845660858262 0.5079473976539575 1.2106494320174184 -0.5953983294787747
Ni 2.993340236005883 7.478721989020163 11.662105967781816 -0.009641379744505976 0.340339239452259 -0.09121451263230743
Ni 8.012679981440636 8.886683401508137 13.089269620172654 -0.699041297682422 0.8664031442012692 -1.0514883761418083
Ni 7.293660932124733 1.8081602124226688 1.9794544084715766 0.6422039769784037 -0.23521145917296912 0.09015238991638022
Ni 6.383624498737151 8.407862926911125 3.439275514771933 0.36814006371461117 -0.6420165435579459 0.056435714390225385
P 1.7731137734181581 7.749375283031846 4.790584510744406 1.4794924632019038 -0.06885337132828788 -1.6540186886796737
P 2.685529049547956 1.371098570304328 1.4742739590074256 1.231667171919666 0.06286655761723366 0.7004518048767032
P 4.974648850971489 0.7281766718413651 5.123328366424143 0.313288405982054 0.216062397048344 0.6364423919042781
P 6.526207538138823 5.9137200742630975 11.708083096983604 0.5365169817615341 -0.7923844266219578 0.2643651979187899
P 6.996038200047226 4.3603634245580425 2.065053099812322 0.012372919743056111 0.561572124957949 -0.8679774306669246
P 1.5104452771381005 4.1355443447772 1.8148172839725918 -1.3785116152114516 1.21502390693603 -1.4558192879546796
P 1.8982888473264026 4.1295142550353034 6.205656634561049 -1.7142256971868737 0.05027509410546826 -0.28888426610607665
P 3.1083176352129995 0.6052135528705538 11.764248680565812 0.7071443864055305 -0.6380871265965526 -0.7532123844081867
