# total energy = -340862.823538013 ev
CRYSTAL
PRIMVEC
9.29587810844115 0.00000000000000 0.00000000000000
0.00000000000000 9.29587810844115 0.00000000000000
0.00000000000000 0.00000000000000 13.60545725346541
PRIMCOORD
 96 1
Ni 0.2981020817936531 3.6171935394996515 9.938052356143768 -0.6198904010828679 0.45422136888541126 -0.3541098108737901
Ni 6.07707812879117 6.472441125179051 4.68799132868208 -1.0848191290834543 0.28949207489340467 1.0507399280115581
Ni 0.2648451478895059 1.4442634148456324 8.753656146403184 1.504478700833596 -0.2593453761066953 0.6156172276288107
Ni 6.712414221314885 8.771218849115925 3.962426653434241 -2.1089815637168 1.158679209597714 0.7152402760397876
Ni 1.7299629359240256 4.135494525288904 3.674235836994066 -1.0512148107654475 -2.2162125063820217 1.2522156854949789
Ni 0.25817163691852335 4.404210476867388 1.3795529474111654 0.20341822592177228 2.0543255669348173 1.025822338834272
Ni 4.326171579247387 6.421964506468318 2.8920304461907262 0.9311664046205835 -1.2044193919473063 1.230729747707061
Ni 5.717402008872995 5.979062388885834 6.963994150990724 -0.8455859503456017 0.6377482551998952 1.2510689734850453
Ni 1.753518691322368 9.02580506580669 4.420589814283283 0.18855262166384948 0.27455422263664975 -0.3471606332494666
Ni 8.303273635620604 2.3786943889564274 1.475797822516428 1.3059270589755057 0.6518024193001162 -1.4370417502368606
Ni 2.4174024258462055 -0.16610339989553172 7.309749693281031 -0.29185748980178766 0.7675997634781103 0.10323262013910607
Ni 5.55134973630765 3.4126842187563486 5.938591853486378 -1.7564444966467685 -1.3334977695049228 0.44335254449170736
Ni 3.273060127957967 4.718922433856683 7.0865658827904 0.8902884354592989 -1.9989949126833122 -0.13129621114454162
Ni 4.987322325575836 9.053832138626738 7.998431112532815 1.0176398030234797 0.04381699718495034 1.4353080553752056
Ni 3.7235848656772466 2.0146863897897807 7.3957365667753745 0.11655633383120573 -0.035031023462204186 -1.1231987573029172
Ni 0.622766206000575 8.495893528126148 2.382927731895814 -1.3587742846835245 0.44541456922705874 -0.909197613658976
Ni 2.2393491745045138 1.4104450098972627 12.284653655148642 -0.9122235449694934 1.1989753381135997 -0.9132792399275176
Ni 7.253527292245232 1.9606308579660396 10.018418941668957 0.07670886281696467 0.5998005723115283 -0.7432992390595328
Ni 3.939453749600018 0.3979119261946003 13.405456762016273 1.4200698982692124 -0.578027699410811 -0.24069767909852094
Ni 7.9226446062044555 2.301631558549065 7.518389172715526 -0.909679438391401 0.1072725945364346 -0.8019797836198769
Ni 2.8554056156090657 7.100191781078834 11.976666336460514 -0.5061694798179283 1.5864400702987516 0.8865377101676151
Ni 5.639056347271879 3.8706642508045435 13.340817872844065 -1.4203882008405795 -0.03942143922041599 0.37338511416363435
Ni 0.1270300349918807 5.395783214369505 5.05599190754233 0.6406168349969418 -1.1540712785120577 0.1898284030524795
Ni 4.64016775361408 1.101524385036289 4.3485765049226375 1.6160671491365652 -0.18010114846238662 0.8684407434565883
P 3.1252463684516374 3.5775466189100973 11.65076121251181 0.391061705507791 -0.6587497971522268 -0.1424591697398966
P 3.7806243744081964 4.71725847165609 4.53218218432251 -0.41444666009063463 0.01963165818799845 -0.2959208612378839
P 5.745252460006946 8.907719524833864 12.314598467644567 -0.9333580129552634 -0.3893202973366521 0.4864845997944912
P 1.0404969445508443 7.275316830782609 5.334142245921831 0.6661216641362657 0.15317424216455555 2.7020954680367724
P 1.611431192796851 3.053872615512225 7.105164146336361 2.4946390674898846 -1.0285199402710932 0.30626415214542096
P 1.1237973092408777 6.518455722346294 1.5767092284859245 1.0063138364876991 -1.0612760516561914 0.7363408054638286
P 4.659307966860011 4.993271687633824 8.990500249931646 -1.3550909222946663 1.590457676098577 -0.39641217118642696
P 5.353561335514228 1.3003074447987788 9.286650197300022 -1.0536200777728306 1.712723144499418 0.744513313972292
Ni 7.339625716278162 4.661631936413912 6.009639321100423 1.4506215458038243 -0.41808605661543485 -0.7741979855209182
Ni 8.283306089213484 3.490555790568469 3.6723989714586622 1.454158098202173 1.7853406108558287 0.37305267052488006
Ni 9.45911383707067 0.7538845682316786 0.00847133381788052 0.1223523716876925 -0.4824991327841819 -0.11769353275944246
Ni 2.7123513457491253 4.822432037787441 13.388232429270579 -0.4788653926863366 0.2854636704603019 -0.3194953061237143
Ni 0.970461798074479 1.8456315485607946 3.0778950239969904 -3.01142411804013 -0.17399606400591325 -1.4137771232819651
Ni 8.446272130211248 6.460542401063077 7.0582394826918105 -0.3978535316186438 1.9299633639059475 0.05362884106904957
Ni 0.6724452383604094 2.1714613758959533 5.261080361498464 0.9246861962128785 1.4996311429333078 1.8776444998975728
Ni 0.6308322395282552 6.8742089816574845 13.158803647794704 -0.4662785571602615 -0.5442464891953079 0.31113227887099965
Ni 7.549182698892539 0.6406003483572125 11.983142774813327 -0.7128589202918045 -0.9587947078608133 0.9187893711124692
Ni 5.271422955601146 3.395347405884246 3.7082624696144655 -1.1768846768621473 0.43170261895760487 -1.2042715535155324
Ni 7.47932417410227 8.147716409560676 0.25076468115632955 -0.2799185722723566 1.5398005160633417 0.05213682990455537
Ni 3.1426668442276804 4.416490331990202 2.041689056830469 0.7176589127836093 1.0726035608538689 0.3916358328437061
Ni 2.9485224276947775 2.4306118687905793 9.553955964153198 -0.09455334719755329 0.15470199166299164 1.534132519144287
Ni 3.654386348240285 2.7326070643809284 0.670732937593095 -0.266239017902735 -0.9927193856327161 -0.820639050592277
Ni 6.6711312261593845 7.102357720703069 2.4287917358359645 0.8554235052613137 -1.0312363107609916 -1.3615898997554485
Ni 8.537278777942019 0.5748171365766646 4.524045502120391 0.029086375842995064 1.0601149414685547 -1.0148961788400714
Ni 4.980266754010192 1.9636984977771892 11.721129151428293 -0.1097889332003851 0.15365426712476762 -0.6601147958205535
Ni 2.1791676589366893 4.890524345716745 9.082309131952423 0.6501849383013512 0.0027559654785823504 -0.031213192378010762
Ni 4.55199634873907 5.627994252195309 11.822801889823648 -0.17568784988603936 -1.4623491186533977 -0.09649015920894996
Ni 6.5378283325476145 4.573599969712136 2.085295091952049 0.3855700862656005 -0.18663843536027214 -0.03482533520930132
Ni 9.111717572275309 6.074484578769017 9.371221308542129 0.3124216871063845 -0.2603249664111452 0.1463631327799931
Ni 6.093727046675317 4.122591846325645 10.415140995451958 0.2643171182896738 0.20583094912832295 2.844943388574655
Ni 7.5644651226789925 5.865252951892186 0.345206155887765 1.1883751940002503 -1.0684442872698567 -1.149481088038214
Ni 6.270609017361843 8.644302223838276 10.07518143322908 2.556519864155081 0.8470113699382187 -0.6461706749356356
P 4.632414991182267 8.26715914875298 3.8599089197090883 -0.4754178004573683 -0.6168829817151118 0.2635234187437849
P 6.701417197385825 8.003518746680216 6.823531571977294 -0.0795473607070243 -1.172629244019903 0.3253119128054914
P 2.3247411117930583 0.32357650645569613 9.355561472100122 -0.025846014528826455 0.36462947945819135 0.7688326074439469
P 7.736522532571619 5.655221879488815 3.7092422551783897 -0.5245384692434193 -2.2622661062069747 -0.7779916482353957
P 7.532821953233074 2.434069935486785 5.40157082814654 -0.4971819316073373 -0.43038441436681363 -0.26480048568399556
P 2.242779353566072 6.948390089818009 9.940990783247718 -0.8929469561280687 0.2770523064681551 -0.11595572413272934
P 7.69627137989805 4.3202222171894 8.876213934385538 0.46192927905263026 0.18343998302763248 0.26806038738218996
P 8.555015313577393 5.725954216831352 11.40918271820814 -0.07389016242124695 0.5714140507490353 1.6272740735959783
Ni 6.510684368158049 1.5428740909567666 13.877022720076573 -1.102641501976856 -0.1773456972044365 0.41253453066958634
Ni 6.537856220182261 6.356772512542283 9.400771975801714 -0.12386418034652863 -0.49622548123133897 -1.7980824839025291
Ni 4.138524981587191 8.526820914949464 6.117517058204694 1.1454274867941305 -0.17436501730955775 -3.7138901251333847
Ni 3.025185535338869 1.64639299076574 2.8683027170453954 0.8468110810019545 2.801734457287349 0.5389158210110138
Ni 5.086509346136338 8.574666800125181 1.5072123133582425 1.7287192628173582 -0.06365202963300651 0.3352507691857581
Ni -0.06420941959864601 1.7885920398298443 11.245536218924993 2.3346714565525795 0.10030850451377564 0.7050731056987987
Ni 0.05522402371544256 3.9348058104922154 12.64459935553507 -0.396440196210885 -0.2831033977582415 -0.0451709401096835
Ni 1.806867736401723 6.817764409132333 7.478375994524277 -1.5033237612935464 -1.487141237996413 -1.0157734392387021
Ni 8.563697663830768 7.487597505714158 4.176467038112003 0.7693882228371007 0.5627124092099793 0.08201613396249102
Ni 3.3272550979549425 6.450781728936692 5.744278251969951 0.40469240891734815 0.6994164216336535 -1.4336044424205376
Ni 0.2615832242236502 0.06937885747434376 6.479939180547759 -0.6298935350421668 -0.6886560977933559 0.46225323805095236
Ni 3.8413729385471727 7.198477101452421 8.435220260600717 0.5108607146460105 -1.9009757184243454 0.5920291558962255
Ni 6.477228502460088 6.896333171810624 11.54614911742468 0.9860571431211922 -0.2900520611619327 2.489188071677642
Ni 4.177418936041281 8.804739785961395 10.579698490800235 -2.6166913914386547 0.574084912712979 0.5800159334854333
Ni 1.5045192974391817 5.251055686430757 11.305223193771747 -0.026513472909496277 0.3324166421710727 -0.11176868263457526
Ni 6.224854704784637 0.7093573115789322 6.263190906545791 0.9602430102715657 1.1408293259004867 -0.878955269834667
Ni 0.6443317138729563 8.358072837701593 11.33812130677677 2.327143780716966 -0.11168692155404636 0.6350876776485965
Ni 0.5603527500731837 8.270124533903758 8.654512816470296 -0.6080355586268109 0.873401172785657 1.740625784446957
Ni 2.0700247528072753 6.33598692885219 3.6439359219503022 -0.6018911362919699 1.3935319998796838 -0.9783502613952376
Ni 0.04966137019122474 4.2378979197120055 7.508729825661692 -0.3341616498866374 1.4339302011910724 -0.10853474907830984
Ni 3.4976764332816224 6.948101917593325 0.9369380724655438 -1.2707795645400952 -0.8649368440683879 -2.209923073828884
Ni 2.8800861722714957 8.945814033761414 2.0852541900879005 0.027802624034565022 -1.5963133635484057 0.04849691915912293
Ni 6.911002067634848 1.885259877393917 3.0121257560337655 -2.95495549352944 -1.9348307193005776 0.9727750813003053
Ni 5.859201335173828 3.3908017214368154 8.307383343379723 -0.8107176777135071 -1.5741915919487017 -1.777337538045694
P 7.313271901536924 3.2861673162419693 12.355959548177081 0.8564429476647637 -1.8318824631711095 -1.1354737180155283
P 4.884686534197346 1.391723111171035 1.9683427185337052 0.83634077759825 0.8009377155086076 -0.8052916216019292
P 5.472427730257166 5.948302327870398 0.21145891929728838 -0.8420020896490854 1.0969076848168722 0.7856658769512017
P 1.9871427026369441 8.800389314956494 13.686545527499726 -0.5820933848397523 -0.7422587136101603 -0.8693138900901609
P 2.783743690444969 1.2899146529537326 5.395298899114472 0.0140500503351629 0.7455972910650901 1.0283384203879065
P 1.1280641173418402 2.5751813667996633 0.943259269652155 1.9521175314054835 -0.9996729341324139 -0.5126293765106591
P 8.444933523748203 -0.23841231818343409 10.238147474226844 -1.5093208594172458 1.2714915030054554 -2.6740316199210206
P 7.808342487665381 9.358904269906452 2.166410925261415 0.7318904830019589 -0.522764408062132 -0.8741583626666558
