# total energy = -381170.7510001333 ev
CRYSTAL
PRIMVEC
9.27051426327181 0.00000000000000 0.00000000000000

0.00000000000000 9.27051426327181 0.00000000000000

0.00000000000000 0.00000000000000 13.56833470223678

PRIMCOORD
 96 1
Ni 9.219340984321034 2.8737667039354005 11.960432723956387 -0.8823018177093965 2.140410985870675 -0.5564384032758094
Ni 6.671043493720785 4.456901688282484 1.7414688779130816 -1.349384101717876 1.2503511214824143 1.0656764947167323
Ni 5.50753833567015 1.434584264440438 12.715157338505554 0.7965668401344217 -0.243129171358149 -1.0191007038397222
Ni 4.0733341623128485 3.3958079008514632 1.733938439209876 0.23547988234300737 0.5252666056586953 -0.6696687580575758
Ni 7.530160587778986 7.593607987120041 6.818766356707332 -1.6062889867038788 -0.3520261888718841 -0.4507159268353141
Ni 5.659407899668569 3.6467236388066087 6.829715761055917 -0.6855545760498968 -0.23701508804061117 0.10432662453423323
Ni 7.280199712788791 4.013836002030719 13.053782338574326 0.3580680241905898 -0.7717657219303418 -1.290133800696991
Ni 0.8755935789864377 9.178124278086326 1.6252694714898501 -0.6578172580356284 0.6000805654457924 1.945599527781307
Ni 2.414143879281659 8.186716946068326 10.078287500917533 0.32050626388673187 -1.2645446393739768 1.1102275418542298
Ni 0.4023514418879354 8.074460289344065 11.945629566845371 -1.6481509170449875 -1.5878935149158266 -0.9557932020303281
Ni 2.422468801053762 2.373177476930969 5.758184301661411 -0.5571359435634663 -0.842769306832413 -0.9215903308963741
Ni 8.874635453973506 5.12974634006134 10.464767822455983 -0.8535363155409301 -1.0065367511317824 0.6718274562717914
Ni 2.327529464897749 1.9458253122869027 2.4668319198156974 -0.637390100529528 -1.3885070358612668 -0.26293720722301167
Ni 7.822580417909746 3.995063210729486 4.177459651012264 1.8995999211227417 -1.5612900533956853 -0.6980339394638301
Ni 4.863923615235881 8.268112060944784 7.2495884748250035 0.37562685900995957 -0.4152113061708011 0.6584577198331046
Ni 5.8862388416727995 5.858983529857675 13.04433939278695 -0.21775701114194757 2.0847026365647774 -0.3794434045425723
Ni 6.424392192308143 5.560917956565212 8.127432007613322 -0.11265956987996081 0.3213372444284595 -0.26926006411724596
Ni 3.524714401119929 1.1688635152714315 0.13699409687646372 -1.1888264226050558 0.46695141485757 0.5368373412154303
Ni 6.966049797319715 2.6608044512085254 11.044569885288816 0.04234092686005611 0.7848909464583902 -0.4704689410925253
Ni 5.758778541623095 7.921969600892718 2.6443872975713134 -0.3055774104910415 -0.5723095659801111 -2.5909281664316217
Ni 6.388506031751564 7.679007964140761 8.976661171201451 -1.4346619371507743 1.126561503127563 -0.7932118076192598
Ni 5.013642419934603 8.041151331741434 0.027054141656487885 0.3029525712736847 1.0730069669398745 -0.03439313276788915
Ni 0.5076440883280061 7.799367050295777 6.653476796319944 0.5497998149133693 0.7476019801999447 0.38931412668906495
Ni 7.982626575452701 2.9086980015270276 7.039957117858392 -1.121840700613126 -0.691783330568428 -0.43845176475598036
P 7.976619282236307 9.081979775081345 8.497400616269486 0.6648710795586162 0.6826314888658308 0.024442449313080483
Ni 8.435871286321134 8.771964508955651 4.796745760971558 -0.6780631527688581 1.2140944531432252 -1.204140684364623
P 3.8633755561941707 2.9798399276730336 11.501348516178991 0.2209624054531227 -0.7920465836665649 -0.5563070199042677
Ni 1.1371583566293493 6.862340554708905 0.7231789087517168 -1.3059239736517123 -0.5219185151220689 -0.3365293787878656
P 0.9671927488679646 5.760743890638335 7.123321289955778 0.13032176304641427 0.40240849797917794 0.3032775587132712
P 6.266478253036437 2.4560280625404105 0.8609841756226781 0.44840219110047286 -0.7421905793763862 0.3067657743721878
P 7.364431605017435 1.7142385964863598 4.974911138563037 0.5177970367545276 0.26142179901974977 -0.638017706811198
Ni 3.364510644835186 6.1499478892554515 13.473491891293088 0.179970022201161 -1.0765843998784879 -1.2534462154679702
Ni 0.5125889806144641 3.953067781300061 6.026023363330336 -1.234039014585952 0.13263498456062317 -1.0378255339427354
Ni 4.853281064908072 0.7360695587785634 2.088139757275849 -0.6899791874801536 0.3386554239919329 0.05383632909416535
Ni 0.12126574244600855 4.1977073811263494 8.443995037934602 -0.30604997925208577 0.3328838116154783 -0.5097528262938125
Ni 3.8370843778582215 6.707541508216072 3.46485098257742 1.6243610137142412 0.26655757758441834 2.3483242714493238
Ni 7.744587581753068 0.49415363603094226 2.1666053896578914 -0.9481374852572834 0.6790306588884499 0.32512807892945944
Ni 5.683158957107462 4.543497561637948 4.462381489239599 -1.6700376898157496 0.4854492165514414 -0.038977923925094166
Ni 4.961365990232059 3.8942278275277524 13.23680639266999 -1.411779633235962 -1.4879812173992053 -1.2779706829718958
Ni 8.44099788068636 2.878281444361919 1.7157561796646374 -0.1520025904539576 -1.6742293592995938 1.0568064459206121
Ni 4.667657558624325 0.13760038850663686 9.467359686581544 0.22464756761419372 -0.8742154411568364 -0.04424508586130444
Ni 7.631533660805643 0.46184867511864286 10.711141935493362 -0.16036150394161414 -0.6964388270625682 -0.3483819072510774
Ni 2.466513014126432 7.409291623341715 7.9004481021244155 0.7056647165362104 1.2280799687890398 -1.5966689471156115
Ni 0.9039557901997671 0.19897860907315676 9.079726113073775 -0.055221896587782315 -0.7464786652287789 -1.1636044148134734
Ni 4.0009407167467606 3.7859018688339714 9.21691581780034 1.3305011487704441 0.9799600290845188 0.510389688546863
Ni 1.82842352016897 8.90464410851281 13.31999349794572 2.242636504901505 -0.031245588277842958 -1.858012327488942
Ni 3.2727881771144953 7.776561585307612 1.475623903853489 -0.5456006892303572 2.149424759333511 0.6485219487766315
Ni 8.818595195496492 6.510357670696455 4.948032209625361 2.7093210392509337 -0.28076626498463264 -1.090866620829115
Ni 1.5443100707818667 9.060731756482616 4.869607367505899 -0.3832262686237723 0.7265749843263164 -0.2145639581259466
Ni 1.376365435121059 7.320813835599014 3.2565768288930306 -0.4390220354371535 -0.11939226061810405 -0.39023663850333434
Ni 4.2106397484672 5.847274870394241 6.517061179530984 1.491985967683224 0.9606847257946746 0.7929734663562086
Ni 0.3194535766559578 1.0057024649496047 6.490223040855888 -0.08854519333026041 0.5510154324880252 1.176382283304432
Ni 4.276145201965723 7.075135938179768 11.492718594488958 0.24095350386306894 0.6685822098616163 -0.48292362191611016
Ni 5.924971050095787 9.110236302432535 4.465841245147559 0.0997343771778605 1.6104765424226652 0.8267135389211311
Ni 2.651580289556809 5.509244110287152 2.0444088875839106 -1.606597261972917 -2.230657221052442 -0.4951307055052634
Ni 7.253398656170587 8.334155204268232 12.79184581331108 0.07478902008643248 -0.27441769705878544 0.17370630067963633
P 8.55318037329684 7.882199094876772 2.4274563377056446 0.2622864610128902 -1.7466809895021014 0.5586043005788766
Ni 8.968490139965446 2.0593612999739146 9.097473585501962 -1.951319203873904 -0.18678807356425897 0.5846937985770769
P 5.888769692055632 7.092777726745816 5.302138968446261 -0.4048441040038641 -0.5013239788001689 0.4077494505761171
Ni 6.061108551458061 1.8494026938552368 8.583464362108561 0.04346501316217031 0.2594873010011982 0.4189139518333689
P 5.491426181950871 8.85401783034193 11.489720510189295 0.4544419695366496 0.2369955476565854 -0.3532806301042754
P 6.534711311559832 3.8304466896746745 9.251311279669888 0.22223407307669468 -1.138354124887117 -0.3889868252566333
P 3.6552710529200585 4.239174391245073 5.315381898013576 -0.791660918192372 -0.9681841194955132 -0.3152992657644957
Ni 1.6731516774507726 4.126556184466121 4.019062717949551 0.9022975441050332 -0.43221118316290724 -0.39790083991681147
Ni 5.866817114375968 5.23627381899589 10.689826242140807 -0.2962026541443608 -0.052842083501696085 -0.025210952047988837
Ni 7.455625653427424 7.214666447747599 10.712119047692449 0.864703387901343 -0.4799092605698187 1.954900493467259
Ni 6.339001485801645 2.476664227200432 3.013432563010884 -0.39520272425935804 -0.7603052866992261 1.4198413271981742
Ni 1.3735935513684325 5.809330655680193 11.896064762553003 -2.149258408958976 0.9777725345148969 1.3727718845141972
Ni 1.7854732277745937 5.728278549829981 9.269424937409878 0.09371156802254829 -0.8075354233307834 1.0416125117889932
Ni 0.0009604252734852979 5.227216526600184 2.7143184945598176 -0.3170239617650863 0.7723681314010311 -0.6251917586911232
Ni 6.692560357231976 0.6232325678639529 6.701671418610175 1.5787285605871069 -0.13538889315667652 0.29529196940463337
Ni 0.7644744143573177 0.9754249654978386 11.439788593533704 0.8548907726862954 -0.9893370994240445 -1.091060739117792
Ni 4.170053437199645 6.46793579761278 9.175992986866497 0.5135446892360768 -0.20056918650875136 -0.10631357305727497
Ni 8.361206564770454 1.0232330073449782 13.39164808352825 -1.9165746013038671 -0.01565776114191497 -0.4460714860847673
Ni 7.5115639362479865 5.209324434150121 6.021817331027437 -1.558378021955213 -0.42488508181513923 1.8174184652269798
Ni 7.084647485772393 6.326597537771498 3.469803291275256 0.1313311781475351 -0.641159080653657 0.17856928519889245
Ni 3.1748359238360617 5.0454032016620225 11.169900748221536 2.2713526418892753 -1.1162097275795937 -1.0361849130155185
Ni 3.9751037936077305 2.646008710508887 3.8149677120768137 1.1755006520304272 -0.16007816837324046 2.277391648994504
Ni 2.4316929627054784 3.538332786513268 13.007840451240243 -0.09154464227821653 0.7756018078469803 0.2737594946494963
Ni 0.16982469594519764 1.87056727782596 4.172384971526687 -0.1082141325140975 0.21886747059730693 -0.2250761705111801
Ni 1.043007014182277 1.828812881766329 0.13378742600678645 1.645603210922469 0.6907286640516686 1.7890036615297125
Ni 2.2733247682368556 6.3285072637014 5.319872535103114 -1.194359436608143 -0.3986968534555456 0.17373509703504272
Ni 1.5591243525099505 2.9677697181549076 10.093362284095278 0.30316057351943276 1.2891467541933734 0.9253220300246645
Ni 3.660304942143056 8.460354714383632 5.363372568990904 0.24238329433106 -0.3918669750179058 -1.0530464646575477
Ni 0.06284203476230492 4.333186675978803 0.3054504649223715 1.4173730681633396 2.6458325317789853 -1.8637751981146482
Ni 2.3759864427404866 3.9782928505003845 7.356764889755153 1.3128700659522423 0.9824365156494693 1.3110967761019032
Ni 7.494534001620646 6.546651733878838 0.9352641708331121 1.5784858484486815 0.6819594024994707 0.5978290504074543
Ni 3.2079502006400147 0.7736828161348558 11.172370413210498 0.4082973526597871 1.2398178260512585 1.0236862663278756
P 2.6021777192633415 0.5957056299821005 7.071571425461091 -0.25971587207223656 -1.159190602016494 -0.6297552096920896
Ni 2.9760668283843414 1.851080656929569 8.765931258299434 0.20576204356360048 -1.653946440680842 -0.7182199274934018
P 1.3166818645544727 3.653908287329303 1.7818614354333788 0.9938992648734303 0.16833680883760688 0.7447172024529819
Ni 8.767681531384705 6.784153037753547 8.784343426597399 0.7247515579643324 0.4854808411203252 -0.9278496815425246
P 8.294208558482053 6.066059006053053 12.305529470004117 0.12686722883891052 0.07597018487872721 1.8235369194198916
P 2.9388920663507885 9.137259851392088 3.164949847468835 0.21594335497197648 -0.07654559776622301 0.19252446182740393
P 4.822020890948685 5.889900694790818 1.6150932280274486 0.8134559025802764 -0.005909166395583371 -0.2262226254107975
Ni 4.597887668583298 1.2708391717225733 6.080174291008737 -0.7774329475184482 0.6343883375887267 0.5551129995961666
