# total energy = -340862.91441736824 ev
CRYSTAL
PRIMVEC
9.35648158146246 0.00000000000000 0.00000000000000
0.00000000000000 9.35648158146246 0.00000000000000
0.00000000000000 0.00000000000000 13.69415656212583
PRIMCOORD
 96 1
Ni 6.291691271490044 8.517055593459427 8.583073057082132 -0.1541600031165926 -0.22140386386591543 0.321354213709324
Ni 2.207942553032411 1.2640419655461168 5.178048199834125 0.12414571614268943 2.846767843377904 0.4897159622475952
Ni 0.53314542669447 6.2886129890086995 1.750318904077819 -1.9886909596541427 0.062201927450041265 -0.3280977030807446
Ni 1.4821415541179683 9.247590972117212 6.91238623315773 0.5345387749892407 -0.9240490768495118 -3.1200668534512137
Ni 4.280655875964909 2.5312277089455217 9.52733948300314 0.4903998756884973 0.1641106865714012 1.6557942925228581
Ni 8.508653472887246 2.5094364630517494 1.0606713504761878 0.2812892273676381 -0.6364863577683362 -0.4583140508975462
Ni 6.519259619548585 5.739565286006348 13.592258282027014 -1.3207769795041446 0.8715371229937249 -1.0155942333483607
Ni 6.493931623569863 3.542990858246987 12.201479964825715 -0.17428814132503534 0.8271781372623753 0.06595033874887997
Ni 7.008294848887278 2.2137248587268514 10.29754073020625 -0.8149733676660673 -0.5696993820507736 -1.027805687812888
Ni 1.5531478937864276 8.961170354126585 8.994267036865976 0.9490219447447656 -0.41329866252912045 4.090353106891394
Ni 4.056016106680414 8.04230771168612 10.527561412119988 -0.7040240956089939 0.6397848260139497 0.9880440916442339
Ni 5.347959100674462 6.570037245768209 3.664336940791219 0.39558864684386713 -0.03469960826471444 0.3593857145607488
Ni 2.4058227846371336 1.7268322636988804 0.3605127253257955 -0.20881111480256942 1.0535879389833145 -0.05931355015865269
Ni 7.492679906817984 0.6432843154509991 13.440294048747369 -0.8274457891014653 0.9299129918294565 -1.1467292363246895
Ni 3.974034613970566 0.2612030284960387 13.017802117303269 0.44833457108733105 0.4223854553217371 1.4682600848211937
Ni 9.089756482215087 3.2344421610211636 9.841113775261883 1.1784005992860414 0.11433592914111922 -0.15790430065037322
Ni 2.2639691654892213 1.1454766293649714 11.070287876081624 0.71892003888422 0.3854947529429748 0.5302260065464998
Ni 0.4915062761573052 7.877128383644616 11.243532491353884 0.1934338610155507 -1.0903927665164899 0.3251756443379432
Ni 0.3388805396210285 5.185801916224065 11.183730538528614 -1.0565007417547352 0.08498935765820202 0.2560595062665719
Ni 3.3668270206823876 7.523575009411903 8.34234294620746 1.0240817019940816 0.15378205095188355 -2.1537017894423105
Ni 1.3472678703228917 3.6018618411424863 1.7067298627530794 0.6711885371362117 -0.08486671603740868 -0.9909208989713968
Ni 8.408726248264879 4.400325276987388 2.5289269500939637 1.5361300091902899 -2.2035418528928887 1.6563884744634312
Ni 3.7601735116116295 0.4336551497677833 8.311120366753823 -0.014092473537324115 0.7354907987587075 -0.21157402225968724
Ni 3.4290476240287115 3.6292108371697505 5.397292086118647 -1.1247049095347985 0.40079410230420653 -0.6710234723132573
P 2.4262947666103307 8.567589951154687 12.162397005090689 -1.2566073868047714 -1.2614248627980729 -1.0499768245932886
P 2.646115947816125 8.74743088602983 4.62822765144284 0.7356175541445589 -1.1710801543652283 -0.5690643195699361
P 9.29542130659938 6.447626395605809 13.12886168385969 -1.4133235806843143 0.4871271184744966 -0.037160668210697294
P 8.293613453833327 8.496555542041111 9.862244453547197 -1.0421113058022828 -1.275293393250049 -0.7683821501700896
P 7.520347023223259 1.8036957609154296 4.0657402981176824 2.453728445318452 -0.6118045387509399 -1.0008276165621472
P 7.159954060863304 7.847421554227386 3.5921694617430195 -0.42588241273140204 0.2082660409323768 -0.7047841137034702
P 2.4820219716525416 6.1019605354514335 1.2183336811149195 2.269315042633956 -0.8349824637981427 -1.0410530397410975
P 6.670132887061287 4.007923790710474 1.2513321207963954 0.13443912764889748 0.2799936484846662 0.11274235940175421
Ni 3.9241552099947383 5.480184900146679 6.972776708682319 -1.749822877565193 -0.7888144498825124 -0.45028835237959225
Ni 9.213159119438345 2.90080873634098 6.943910091322307 0.5199328521506078 -0.2350214546493501 -0.34796615986989754
Ni 5.1915935784002105 6.133351531575782 9.393068356629943 -0.2978831271705773 0.5883121120559546 1.1807174203446762
Ni 2.4593044340698538 6.228179473668262 9.99459843681879 -0.787655653687721 -1.0391643073588166 1.060835107464031
Ni 3.246540091867298 0.25590351725763905 1.9524030029131438 0.5072264603275329 -0.3722651416265782 0.6691182848707444
Ni 2.8711954717408124 7.305335073614458 2.98143728179611 0.45250747151809806 0.5056604013919936 -1.0861170219592715
Ni 1.6317891225271572 8.135535695406839 0.5474084474074228 0.757100149498367 -0.39109975783457807 0.7005119686906773
Ni 4.123532478672455 1.7410821853374445 3.867435282243498 0.31098829709396764 0.7210681955754743 0.16395333505793055
Ni 3.6036021467398425 5.076097168218704 3.4504075361158275 -0.7826587146937618 -0.2501606242836337 0.34905810738249565
Ni 3.91873780708684 7.302621693919656 13.311404770651587 -0.8219521129767458 -1.7073348836043112 -1.567701356238668
Ni 8.992879470628946 0.8877878953977868 10.802977871975937 0.8566298668645893 0.4638488646728463 -0.2490709907638807
Ni 1.4213618489544013 5.013539731530956 3.5146875010856893 -1.7520880194502857 0.5970330368687202 0.8975780271421768
Ni 5.819319936070117 4.3490424007556285 8.058888332917704 0.8593400667069008 -1.813739730823812 0.12374025317415466
Ni 2.3336655977188103 6.700672443350371 5.086900161996699 -0.616519427728106 -0.8884976621074634 1.9441931343520842
Ni 8.682917944665483 1.1338839485309722 5.652947656611071 -0.5866987448222477 0.7793805581631222 1.153482238777807
Ni 6.396147033258219 8.532428292902736 11.056880973444787 0.6946220855688037 0.3058049531208153 0.6689694179977059
Ni 5.4055482455762105 1.5682492552602572 11.963351891513543 0.7451005539343296 0.1941388575023753 -0.21080680507635952
Ni 9.011891841455972 0.3073613596973049 8.161908810392145 -2.8361584432931735 1.6462092199375842 0.013103370151177433
Ni 7.696052393184254 7.891471870100243 0.7047161673894892 0.7849896768197836 -0.4279328675025275 -1.679396248212514
Ni 7.4199426180338754 6.1791515095277 2.046837972773963 -1.8290869027038432 1.2207178719970138 1.4757024000318522
Ni 8.328849963938929 4.366183475241413 13.263530460705399 1.623896672483313 1.1647395568591812 0.47320330930455273
Ni 8.941184909202113 6.824804886146713 4.204557738951928 0.5043763924732475 -0.9265134792296044 -0.7590359330684991
Ni 0.4614055388602437 9.056840379572625 4.440960477037476 0.9327736012067032 -1.519610928489344 -1.589214033499463
Ni 0.66895756560468 0.4155157386839459 12.903976774754492 -0.9025708523710778 1.0018234048165136 0.4021105071227849
P 3.7131478345561972 4.56968695235157 9.013658345202106 -0.01361064880489914 0.3485734544365932 -0.4478059522773707
P 5.540880396974891 0.1981815103156628 1.0608987129816487 0.49512196375451506 -1.0037651019239164 0.15760425291145114
P 5.024776866060119 0.6513692512933387 10.118790761098053 1.2471236156840522 -1.1762287884457032 -1.1460892887478458
P 4.493440982927631 0.7296193790987486 6.188649274107679 -1.6215240584860784 0.9744835793509796 0.19765252708258865
P 1.799663117300051 1.9529316441295448 9.09637057913321 -0.6671207948247414 -0.9691143446192663 -1.3583716499284668
P 7.660872021968889 2.910473981943499 8.243621772077024 -1.5871273261737635 0.32220987684139996 1.2131765693146463
P 3.53865880721701 2.709683884528144 2.094726317442708 -0.9094557524163692 0.8094010157846125 -0.5909135542345436
P 8.376128266000428 2.3846584230176777 12.259405943068888 -0.13049222718600753 -0.4953178818154049 0.02010319850777828
Ni 9.318634737712497 5.651240098699686 8.990884668729182 0.7359330285024487 -0.18053952155138586 0.3210500522053439
Ni 1.5560764725604725 4.113464904356569 7.657293167716262 1.910247887754891 0.8202222747698326 0.16505479565222542
Ni 5.099095400252579 9.00082312359752 3.6734305053614893 0.12147151174463595 -0.4199164249559542 -1.8482637327426104
Ni 8.454273601210728 4.466204264680842 5.205080946779718 -0.7210304003590033 0.4282701962372883 -0.5017651801026456
Ni 7.779063098881785 0.38245086798235584 2.0694750446139776 1.9683908146442097 -1.4592712510590222 1.5157864125369314
Ni 6.19294296356266 1.394686519609985 7.600873583027791 1.0585720224614672 0.26667070612351496 1.6530079880269728
Ni 0.9835814264023482 3.2492441150803946 12.686020340352744 0.7822200844944464 -0.5988906589027492 -0.5262084007466744
Ni 4.5746646006192755 7.845540901404437 5.660370153548611 -1.0274022817268822 -0.369653415035344 0.6370517433535028
Ni 1.8959693835021134 5.646898691188003 12.697510099887976 1.6030139154970326 0.159599428964609 1.2219093212019536
Ni 9.257415277908738 6.421213047749166 6.596858536227241 0.8495999566010013 -0.2472565632629613 -0.21662392597876887
Ni 2.2944712958514795 3.6481015737345968 10.288584705917062 -0.9382366812038034 0.4962555631383259 1.8904946163873637
Ni 4.414855893077139 4.715638710486805 12.310868463749406 -0.6091989828072928 0.14732318270041725 0.3034832469661741
Ni 6.352339985909723 0.08698533912633154 5.655194147868733 2.783048707952388 -1.594014797322216 -0.5960472759166832
Ni 7.354989922029337 6.190557060727576 8.018531020374288 0.29951603478830996 0.14609522383058712 0.8715322378977183
Ni 6.060314835377074 2.458481063679707 5.267307164015067 -1.4560226622147376 1.6125550222182488 1.2295393269433856
Ni 4.311560335040535 2.6360670864636515 7.273857062210242 -1.1341187466495306 0.679648752088423 -1.1733455533606372
Ni 5.599264842821667 4.144809118072386 3.3898102823455316 1.8321755689314962 -0.6320586610142856 0.2327984788561023
Ni 6.929691046073374 6.636271779766497 5.648086028716522 0.3708924296487677 0.7955178300446171 -0.6352152043653964
Ni 5.295254039223358 2.416451747855393 0.6765681278245146 -2.589242808309399 0.907867839103959 -3.5227000658466885
Ni 4.398921804731456 4.951309771702926 1.3058326910869225 0.06027642829255425 -0.6622061311319434 -1.0621111459629773
Ni 7.204191506370283 5.981963657569238 10.833036505105321 1.6772074680913116 -0.15081294102123058 -0.60415910639054
Ni 0.625628634471373 1.9549994265866182 3.4070926397050796 -0.94753533289691 0.5875616070431752 -0.030558589513147376
Ni 6.279050664704949 1.9259101249619983 2.451650832034171 -0.8976916699019055 0.4288121847836873 2.0911972431501855
Ni 5.151276498728134 7.2801474248613305 1.4344899284363906 1.006101463366577 1.591385330119169 1.0048850744609725
P 8.593179928621185 8.46440667089856 6.359183316629649 -0.15747184109864493 -0.5444254379753333 -0.0009091420778306923
P 5.49867330799816 6.7630521068856995 7.299190672077987 -0.10106826549793561 1.9851564641383228 0.40078690321535493
P 0.8086638722010163 0.226434342475747 2.0082480996248533 -0.2686129174515503 0.330491657234218 -0.3131223127178349
P 5.408196129899068 6.582705921998422 11.650427167793724 -0.9560904215557726 0.2817594821358373 0.8546773711239086
P 1.6754371096866463 6.387950755283574 7.86751179174697 -0.26366534363828786 -0.03499837045205585 -0.6075907577799085
P 1.1316103234763621 3.8658362595199054 5.244820731530522 1.6641503777970372 -1.291677491035027 0.9121291854834744
P 6.382654986637858 4.587623327782382 5.987989231788039 -0.6558035700397093 -0.9471147004197238 -1.0836811588242692
P 3.564576261543223 2.664903763082203 12.268553775233054 -1.0111097152144457 0.49410303557169744 0.22772543520856908
