# total energy = -381173.6829534101 ev
CRYSTAL
PRIMVEC
9.21842930364165 0.00000000000000 0.00000000000000

0.00000000000000 9.21842930364165 0.00000000000000

0.00000000000000 0.00000000000000 13.49210309899318

PRIMCOORD
 96 1
Ni 4.916160758089037 7.935509822006394 6.181123784323597 0.6658367859059953 -0.45429644509772077 0.8326926393227014
Ni 5.278131607966543 4.482479745699508 1.1316073824588249 1.1132581011504377 0.38481006817112434 -0.5047350613642468
Ni 5.594028747568294 3.4202216859764722 7.949290452156699 -0.505433115872536 -0.23138771455150473 -0.38009337942174537
Ni 6.3573331409762615 7.52711496153491 8.426911108409652 -1.5354175565042976 0.7366416245336991 0.2664241373303476
Ni 0.7549690895201443 3.908411271567389 13.120827516973861 2.254064287122473 -0.356866804793637 0.6011064356071453
Ni 2.0850151493517126 5.801526375538874 11.170368250909268 0.7665448398510346 0.6418517358453075 1.7870717346143223
Ni 3.7542238209726975 5.372353175139109 2.7085128420709856 -0.7880112372549268 0.4509460405682492 0.36869105112207473
Ni 2.5513201834831176 7.137175396776125 6.617971327221273 -0.9939468302819139 1.355714414811278 -0.42248624256565953
Ni 7.94220240177034 3.964238080176827 7.30791638109274 0.7333115317192016 -0.9205750022579823 0.2725456768470532
Ni 1.634943769441117 3.052747433731094 1.9412168687211617 0.9300034946607338 1.9247519949083367 -0.20095845152737002
Ni 0.5770819787117798 7.729782132485783 11.04977644451805 -1.160926353760678 -0.6498414389190035 1.0753888369084899
Ni 7.771873481249108 0.49692404747292523 13.172691322772668 -0.7301017665326522 0.10663110429769376 -1.0999837526390344
Ni 1.4375771954107244 0.18043324101608021 7.147765528501773 0.9844545745207626 -1.3551027493692083 0.4616418297191985
Ni 2.5113306366291313 2.271854276976561 12.449932347513128 -0.7655711630838558 0.6061938774323818 1.1197437088747813
Ni 8.054989885808727 3.146305273984922 12.74391174930943 -2.88864982832367 -2.047236264188203 -1.1133799714402828
Ni 4.773063078094932 7.497127410609135 1.7051457968988961 0.8489528099353058 -1.0946350867326116 -0.9821770913404956
Ni 5.675086397519216 8.112337735273606 12.53398875255663 1.0835052953680373 -1.3911406168293718 -0.6310009091737326
Ni 6.120751368163744 0.6185464742740734 3.0480008644191723 -0.9285654766626266 -0.18574549123235753 -0.8076269546033252
Ni 9.027930582814317 1.7124523240626743 7.166169201009679 -0.4175908621465712 2.1163385183025034 0.7895356443192532
Ni 7.594842762534505 8.852946355432492 10.462100646708851 -0.0957594516905125 0.21316862044031676 0.6526812223606436
Ni 7.75198011054581 1.9849122242047705 3.5057069475811447 1.7874183193204638 0.17706647540112086 0.0006252922888247296
Ni 6.837143174218106 6.605631537590396 10.597818052103763 0.10419601249363991 0.3298005447044643 0.7052631102224176
Ni 3.791106757109811 1.7404579126616622 7.621541177840755 0.5269054268136989 -0.809126164856671 0.4334653672849825
Ni 6.583848388854579 2.411762380388951 1.0571860798523438 -1.3930571171257946 -0.6433149506543953 0.2526376250692165
P 7.0885942736962475 5.6820002195894075 2.51376798936961 -1.4718843118373426 -0.8632262891351843 -0.984125216205802
Ni 3.836083474283762 2.14204035378665 1.1279071048868585 0.985556806446006 1.1329563509103133 0.8114787242492476
P 1.6825016468546057 2.174452351651707 8.477156158001087 -0.26527716821009795 0.21281972174133024 -0.4185537402804727
Ni 4.896986424881041 3.38806780413537 5.596928865466003 -0.8583720463666766 0.9036478874853404 0.13834900422626495
P 4.606486058350458 5.983627230438284 13.049022404638741 -0.10116005388079351 -0.3184506669092838 -0.379910573986978
P 3.316864655241827 4.702947703873766 4.714896632096942 0.4226772755305431 -0.14323050068828236 0.8660763569894697
P 1.5695021389394 5.621647162131351 2.2434126566656793 0.7620243262728618 -0.057634619794333 -1.5378845299875514
Ni 1.2612562957619937 1.1274876663479336 2.9624473864367404 -1.1228858540481887 -1.9360010854595946 -0.24680096378278138
Ni 0.7683772951216018 6.161625884242714 13.498040118065841 0.18994410269473738 0.2381445736593641 0.47739035080270686
Ni 2.8227937116765336 7.318142384856024 13.140674795530025 0.5068132840495143 -0.07201042890003082 -0.4576409360899215
Ni 0.5828103107576689 1.610809921201436 0.5018236427133341 0.08559253845983968 -0.6462190116750677 -0.7871823135957282
Ni -0.18946269263975 0.7396425287549444 5.05207728155957 1.0865733927703995 -0.658194438869389 -0.32863480653113725
Ni 5.36420408352571 0.30360067658918044 0.7155603037200542 -0.01007281085496975 1.5742306727167532 0.2284977945982194
Ni 8.792952816722085 5.06025402846125 11.478825196120551 -0.09756230922720617 0.8404982514100492 -0.5761330534912593
Ni 2.9526813823018596 1.6130223442638971 10.140637419419125 0.4108178050887957 0.7876978197795659 -0.2689150220730014
Ni 4.016893749063403 5.480522226034608 7.106762876253767 0.18021427700148318 -0.9886606421823101 -0.4312763300534637
Ni 3.0651923134574384 6.458911014831512 9.081237994661377 -0.7627887152427122 -1.1123317326814264 -0.4916250063448501
Ni 7.112847961518479 1.727432271881422 8.741264161082393 0.12587066925359613 -0.5400537912701989 -0.2762974305800016
Ni 5.281321184548258 2.587576266419201 10.088585557660013 0.3181143666157876 -0.2384114541675055 0.786608186259813
Ni 8.33887142001078 6.350013708011285 8.24474111528954 0.018968827793018946 -0.292497951599264 -0.4252051841587193
Ni 1.6262876642092374 5.103718923209185 7.096509217202203 -0.32104799532281486 -0.08912806241692392 1.0638111593732196
Ni 7.240431024787075 7.821745184448754 1.1683594168980762 0.4652472876822697 -0.22843557390171626 -1.044475435159085
Ni 2.9390196698911617 4.341990881233222 0.45976087108123326 0.4683027866791419 1.1841626985807994 -0.6343160895898947
Ni 2.5282648914863866 7.707713212437733 2.1027984215591875 -1.2368461450174442 -0.9392504671802985 1.436488705946868
Ni 9.423262928787853 8.127981410011092 3.2163551973571574 -0.8437386127242179 -0.2035735205527139 1.1671077999810415
Ni 4.548723379561367 0.8770127985461027 5.182384390723821 0.8221809411581001 0.5544015753514386 0.31678819160519633
Ni 3.943920661719891 0.607758146315747 12.199978320973917 1.1934078713281513 -1.8836428835728527 -1.2932358366610825
Ni 9.060831157439 3.2066859867312587 9.610236645482335 -0.4764832656074052 -0.6146998580208639 -1.5965997844405728
Ni 1.3608798625787362 3.7431524872309643 4.229315862033844 -0.9168031939203759 1.2854975874765602 0.19822511175660698
Ni 7.057408326944972 4.4429326834580145 9.755923782302462 0.2501626811661627 -0.7406517741343567 -1.0400040296512927
Ni 6.670049922425724 2.121381853440919 5.864315863894465 1.541854313268577 -0.3464538369904291 0.9042153299530363
Ni 5.111490059216081 5.974445674729069 4.941563984060806 1.0709236020482849 -1.5584273871359096 -0.07529604162983805
P 5.170792215719467 5.475507400426363 9.317579166465853 -0.6404880227285614 -0.0808370260527253 -0.016874150047519326
Ni 7.699656305118604 5.287359255822891 0.3799818172918252 -0.24316902345714894 -0.282872512694358 0.9356673778147305
P 8.26459853411807 0.6343275036100205 1.841469774950099 -0.21223865242687961 -0.22526026149752817 0.3045829077882561
Ni 8.228508382911672 8.727640244232346 7.756057421881338 -0.0009541363831531957 -0.18027701191861856 -0.8174022888225342
P 7.186623052222133 1.6998322941772184 11.11978672864375 -0.7418727910256514 0.29770546394213243 -0.14100906755693135
P 5.510500558530957 0.26002792621694987 7.635450866003037 1.1111981332976153 1.0451058696542324 0.008806028327404188
P 8.019720174821323 6.972045670451678 12.596875034421203 -0.21542450635402896 1.1705512784449517 -0.8212687137564759
Ni 7.4054777852466795 7.199104805666185 6.074954210770796 -0.3482867764341098 -0.5406122348768302 -0.16802673379635577
Ni 2.436771979424189 9.097557380275857 4.983268158788199 -1.1356495814717604 -0.308579687652475 -0.3595924312549162
Ni 6.307111137458392 4.603831150675505 11.963785565883217 -0.17391250315317147 0.8631859228155522 0.9506389115228984
Ni 1.7069673585536558 3.586844797868081 10.814163528638302 -0.13798827845273656 0.28371300631778235 0.108017186011943
Ni 3.1539750072681207 4.07080312435204 8.976147899194471 0.26299300016161153 -0.9388622306029445 -0.6969972706691996
Ni 6.270495535774659 5.493022416337514 7.282727022683677 0.16403123948371748 0.5324448685746894 -0.6534463826614424
Ni 1.7282066199532833 6.503887732005461 4.401610151708895 0.5880400893414905 -0.193650347901731 -0.06796042720037328
Ni 6.840406498235237 9.136975384505375 5.136740259259361 -0.31948605015233367 0.41372058055788746 0.2737602659804447
Ni 4.184595417197962 7.8279584058825 4.0533922766934145 -0.43394256403171716 0.4813033127038678 -1.2393920513677494
Ni 2.667149749232388 3.2501600999086215 6.355630497061108 -0.919932483577977 -0.19367580182302774 -0.13300548052616448
Ni 6.854215705516765 3.9166064553279223 4.133279186107117 0.8136034839017343 2.3114754780520905 0.3800908083185841
Ni 0.47816638727502503 8.350071811764488 0.9392012453030589 0.5327292325843277 0.5018520833894969 -1.4228513176690913
Ni 9.032714947686891 5.522816380245325 5.853238999095075 -0.258498968946 -0.31250344818691345 -0.9270379842745066
Ni 6.694958118737266 7.588352988217952 3.3431675999256623 -0.2645186927775186 -1.0935611369421425 2.004436652524174
Ni 4.894211677623537 3.2348021964833698 3.2181094644771 -0.636841941335542 -0.6544385713713826 -0.6371810698425155
Ni 8.996707762345334 5.393214480932233 3.326720999985091 -0.408755009022496 -0.24521587868384861 0.43767040650526556
Ni 4.0974351669664175 4.325370052976482 11.260644330287112 -1.1822634246755575 1.3285321979695313 -0.3634436866802063
Ni 2.7423076043500805 8.572798285148343 10.219917756176537 -1.3042046769677602 0.030205062828470564 0.9739793860210518
Ni 4.292349638769249 7.070074448977563 10.920751618887083 1.3908565099300498 -0.9910044598241384 0.7580419445863461
Ni 4.999615199690959 2.6812539462555787 12.477820862058394 0.8894561693659907 -0.8834906958111752 1.4364457685240746
Ni 8.54321634511735 3.3244514226601827 1.598962395701956 0.89957217475407 1.0164534960248623 0.973912280228542
Ni 2.835072659673193 2.111020338765059 4.176885122825285 1.9958468539726337 -0.3033924870245807 -0.3148606355651803
Ni 2.716569749390115 0.2714403418474789 0.6635711272810441 -0.7805815204497589 0.09317626434436856 0.6399357497695173
Ni 3.776882720504071 8.368029312288131 8.198462755880506 0.058610353444040995 1.5134127700984323 -0.43469332615481265
Ni 0.25004160161876565 0.4447034884552994 9.397547198058513 1.7169348685879204 0.357942554356319 -1.065663639200926
P 4.07343959516814 0.2640840351647954 2.604421102511014 -1.3721211383040757 0.6351236730928546 -0.19366680296196323
Ni 5.362185247481214 9.309784062542448 9.954581858295565 -0.8842818242539029 0.1137188643824106 0.3414319582958055
P 0.2764616203563231 7.817633764924348 5.699023893212104 0.5646088549017438 0.3267589296646631 -0.5578640799787424
Ni 0.8602518501620738 5.420851332354144 9.339584479350856 -0.20231650821716127 -0.837612445221822 -0.08211280744135536
P 8.848493854019289 3.0828548242394205 5.330177016825057 -1.2916119279044145 0.3249110778226469 0.6767791438501117
P 1.7123048291918435 9.18073526899497 12.219325960655143 0.13993717464899125 1.096189061483293 0.028535388435531498
P 1.0413414433533508 7.559434775105698 8.878937717201696 0.32191317153658755 0.8905589155118663 -0.7243334965903074
Ni 0.19287351152771098 1.6369994792033202 11.304682611345402 0.6432627572602212 -0.5097129741948125 2.0279558186920363
