# total energy = -340875.1353338131 ev
CRYSTAL
PRIMVEC
9.20151410906279 0.00000000000000 0.00000000000000
0.00000000000000 9.20151410906279 0.00000000000000
0.00000000000000 0.00000000000000 13.46734600191152
PRIMCOORD
 96 1
Ni 3.868114168928665 2.363813808792945 12.289761465010885 -0.004340536356882847 1.2070974530001017 0.3290351272933495
Ni 1.3479758340760095 6.205510430231032 11.339087694255472 0.247657912466438 0.09440782275862451 0.17250688105489645
Ni 1.803745239266992 3.335263678635429 4.694488363915629 0.14394192493301014 -1.7109154018667176 0.917227168831672
Ni 1.957640565557454 4.162847872749879 1.3994997132726281 0.5196621149877244 0.756128272503401 0.06695178343020082
Ni 1.8006903365268763 0.7525035182161146 4.804112444562965 -0.040716246772439554 -1.3095597706320865 -0.849323305900847
Ni 5.289619303595831 5.374797721262247 8.281044477316971 -0.7632643693275499 0.25097617820639356 -0.5858076004665459
Ni 8.520887467867446 8.702221709733283 4.84514751763471 0.1416191903371045 -0.5388913955309815 -0.8460510629074784
Ni 6.256146363299876 1.8852062451653155 12.09414831328929 -0.1223703694098215 0.1338809411525823 -0.5958081633226835
Ni 2.212908974642656 3.834942709958434 11.283279590011269 0.1748740957354924 0.49566960872786897 -0.1261138956126538
Ni 6.716010442344326 7.8574398854342675 8.380379424699255 -0.9316549142212278 -0.48756163490875387 -1.1750658784858536
Ni 8.857598479822416 5.4937364948126515 12.993457391045087 -2.1362787088698565 -0.02254626073163214 -0.1372755686564281
Ni 6.309036667366697 3.117767485659187 3.9816341707210756 -0.22751151942555015 0.08569898213071692 0.8290506716947399
Ni 4.824206711442074 0.4931864428488317 13.327474199619617 -0.8534175305748786 -1.508257451149738 1.677422669425911
Ni 4.05966209164248 0.3370560687403753 9.23579819950301 1.3009139220316304 -0.8378003928629121 -0.034596764138263
Ni 2.6656510816363546 8.481689017045479 1.4105967394912409 -0.688548368570898 1.49507309124898 0.5480815466706819
Ni 3.739099737244446 8.76933755487305 6.151250940839725 -0.524943932211954 0.1661544564743074 0.4688296057168893
Ni 4.338532384849358 4.5891632307387225 0.9224610078293052 0.6664229974267684 -0.14190818233243302 -0.4774114338486294
Ni 6.405781388479875 6.121215357935252 10.153234260385396 2.811257052065803 -1.9286544152865366 0.8228275736031636
Ni 6.767134055669875 1.3039281852298248 8.548034695440226 1.1112917214526863 -1.6102333160636075 1.1292943286776937
Ni 8.275041409402359 7.985202911176752 12.769858753800035 0.24043979745144398 -0.11259966317630286 0.1014762995696317
Ni 8.008013465070567 4.3175437307824795 5.361377312688576 0.06479359943661744 0.6526102599133922 0.5046296461346341
Ni 8.49178307820785 8.90797677049149 7.115727903162754 -0.06692504395732346 1.0555250081050274 2.1002202725844024
Ni 0.7826716029261839 4.295009222316988 7.072511151055823 0.8085037007813237 1.8750016629580868 -0.6769550073063437
Ni 1.388683333239478 2.281929533237858 13.130352919707947 2.8367042884943143 -1.9239757788639447 -1.264546696256506
P 5.841434114814906 3.9360029412677404 11.772157883875394 -0.45725655616730926 0.8576822193885034 -1.693066289500439
P 3.0951133575080885 5.3767760468319 12.828172430381988 -0.5405965511475465 0.3755954915513918 -0.16856923656338713
P 6.275037072111495 7.954663085289874 0.36256266631748507 0.7638330973468265 -0.1769582319580307 -0.298354410380041
P 8.38121768264993 0.857495556576178 9.89767784390331 0.9398184238686267 0.7354005530377464 -0.33910331016262885
P 1.3980688778024837 8.69336985299837 12.856790980087736 -0.9317875831443501 0.07833045758078769 -0.4083055801899032
P 8.368390771747157 6.830900549612649 9.61064856798661 0.33075699508046263 0.05736979616872055 0.6343932226847333
P 8.588122932692821 5.9772852716072755 1.619555767520859 0.19307159258012557 -0.768903055670566 -0.9346155395114485
P 0.131877942927364 3.71383237903855 12.0171555627241 -0.2577708325307238 -1.3100228263114342 -1.8694501370122385
Ni 0.48478454016208605 8.364388113036464 10.461448182623084 -0.5715919710877962 -0.5945112988881309 1.4513782214641908
Ni 9.16846243817201 2.4739375316655456 8.128337986671156 -1.392612059168576 -1.3121815245256498 0.6729669691928732
Ni 4.903726197827854 1.5848872221776857 7.417140986197973 -2.346104638090185 1.004673986891431 -1.3354620923201452
Ni 1.9931952167255464 1.9513375282773961 6.882042565966754 0.5824517966204357 -0.22358133113320847 0.22792829524799454
Ni 4.301487088368318 4.070869536032422 3.2262643808075335 -0.23865288075435026 1.001289129579598 0.37419963964512976
Ni 4.774030854087104 7.274606769585886 10.71021664202269 -1.418855309135821 3.7431698479341082 0.2642073321846869
Ni 5.235634019329993 3.137946406469649 9.612992193673081 -1.4930362633246095 -0.45323457949210977 0.6130250414216023
Ni 9.13094786446282 1.9291802818972807 3.6804906920541858 -1.0018884537264938 0.42181749863340906 1.7839190479179536
Ni 9.00374613109126 3.254566398422134 0.6880735950939355 -1.9674186805389278 0.4305867601856068 2.085646231424969
Ni 8.4005776686897 1.2957388375228884 12.122537745289527 1.3674903244002836 0.019294329453237734 -0.0936748012473419
Ni 7.635379741376406 8.003826776074325 2.1738586682005576 0.6735536949342787 0.8591775729871074 -1.0847180847292157
Ni 0.05540139731313865 0.4485222925460572 0.909755556914993 2.1652097900819096 -0.3173831448767179 0.6001584698715793
Ni 1.5327146362245065 1.9459178363679743 2.212724944357107 1.5737398491232637 -0.4725371364754636 -1.198806673746219
Ni 6.441317636619413 5.842713125299472 2.2021671268751533 -1.6442058163543103 -0.6579653535777185 -0.8910944763003621
Ni 6.853205020221204 8.740159553099236 10.573160086859975 0.21024013393961213 -0.3331537774474133 0.9568470972161391
Ni 1.0234200224815593 1.935133661634795 10.414433965573847 -0.5596142299006298 1.6531833372625722 0.796107641109816
Ni 5.39750705849901 4.376415019129648 6.027727972876292 0.5434887850936768 -2.384812339073028 1.732346060936668
Ni 8.208956133861665 6.354814200897043 3.664626361288423 -0.48133930814812587 0.18753986412861898 3.362952541339989
Ni 5.423436925732883 2.4075578076679736 1.5156016599712927 -1.715300675418607 -0.557769206272091 0.28250535916292635
Ni 4.2248476759513816 5.117394560864675 10.764166960534274 -0.7025896771553126 -0.9630907641330059 0.23146587608760782
Ni 1.3577846482957785 6.5915599617417255 0.44341637227349656 1.227420223717854 0.7303912727486132 -1.257426283161641
Ni 3.252431647109764 7.644802091996522 12.526894609606648 -0.14551312607487196 -0.47074456335141507 -0.8951491059857101
Ni 7.700489656403689 5.3929891149887785 8.053877492835122 0.8550992891526757 -0.4728520966127212 -0.34308903428325427
Ni 6.2062373498589505 7.853234793409469 4.0457659647806645 -0.6642162195834368 0.0007008827217665348 0.8878921673129806
P 2.3186803812620203 4.961888969575658 3.5117183574799316 -0.5080301871757509 1.1630423716624163 -1.2190564251341909
P 0.11788520016563568 6.195554391782824 5.819253864649096 1.5415797194509515 -1.0524258003544134 -0.555097830087515
P 6.110541601373402 5.3032651492693 4.365548030767971 0.8939059776072281 2.1338778127378473 -1.6838015763690615
P 9.120172891243918 2.4794400372034646 5.900394657850565 1.0044112201483475 0.09870953545777193 -0.19168062576986988
P 3.4074771626849087 1.7690555304409803 1.0292758661677326 -1.3942974172907987 0.33711044810231616 -0.14172871933177525
P 6.5968508324512625 8.888285529937734 6.16310249122909 -0.6563465870273729 -0.3164292656038808 -0.023946997733900695
P 4.523620844540399 7.61640621893629 8.102211207031747 0.10027713705520795 0.3366157678540848 0.36309015999552946
P 4.963398017917161 0.3775942600411382 11.271226526459227 -0.6997221257995304 -0.7067839177423182 -1.521827733635005
Ni 6.942487313255366 2.2289656170568177 6.389245347171858 1.4040840643639174 0.13780830123144652 -0.9087181029193964
Ni 2.301307922306182 7.186253829493747 5.030660167133941 -2.096482402808525 1.0208002030293322 0.8902475549190346
Ni 3.385347520847626 3.857946495652076 7.4136398100154 -0.1452094787915241 -0.509030089195175 1.6771858708247567
Ni 1.1534650237648538 6.649051022947274 2.698479324124037 0.8814052740370562 0.8789773813218539 1.2026165344106126
Ni 5.189598843399877 8.965090569611665 2.1612130271290493 0.25138369805745736 0.6170349339119438 0.3235964727762814
Ni 3.053531714488262 6.275644372053807 7.418123707922805 -0.9093997023674533 -0.11073304228120931 0.627552545613816
Ni 3.918124399026642 1.6785678390364718 3.285264490354585 -1.0204150517757715 0.779258173652645 -0.048021522184601165
Ni 1.5604019926853736 0.3794704488023116 8.879088616417416 0.2442643134038567 -0.5603487940738092 -2.294057796796275
Ni 7.34973713366132 6.708566417293865 6.094472076839252 -0.1696755822536884 1.0271423431972762 0.034485435371379325
Ni 5.086256636549762 6.645444029350511 5.905969855351275 -1.6184811578946965 1.3362043698028083 0.32455857957923456
Ni 6.676913208179413 3.7367165450465847 0.23330531465634072 0.9835678010404352 1.0261033604098007 0.3851435402511431
Ni 7.68015430985051 3.018685579919534 10.08463145053839 -0.14466671891417665 -0.02394056997599748 1.5556745069811209
Ni 2.6878727386164125 7.472135676580048 9.508283561952762 -0.15288653572080765 -0.6045797388677264 0.5744734064006494
Ni 0.15912822746005179 4.645697334459416 9.721498290335704 -0.44763060304177105 0.17940926460168458 0.4908783579868126
Ni 0.6108949739403402 6.9567864664425345 7.874317302921978 0.1780488939190482 -0.23539657860058172 0.2758572577187894
Ni 3.659791885687047 6.83024724209895 3.1701056988693597 0.9812031574630005 -1.1095667683417794 -0.4845511302172043
Ni 9.215592594301144 4.318795136724214 3.28298895587377 0.8138960754414887 -0.7066353079795958 -1.7770889123699976
Ni 2.7275864742379157 0.46211752989099936 11.18549325748188 -0.6171989702936339 -0.6891466642765293 0.9049946313212219
Ni 7.095839750203458 0.7741638828252475 0.7682592711134036 -0.9001676422462238 0.850170998613123 -0.17620721272461912
Ni 3.2158740308854292 5.180121283694097 5.495337558296929 0.20260318621964463 -1.371928305566979 -1.5540765663663816
Ni 4.445104323210861 7.079589875989471 0.9300485765024958 0.3192572219709792 -1.7508109525100752 -0.11431741719835795
Ni 6.094761004387564 5.905228213300512 12.828549692467364 -0.09737436158611618 0.6632697965097675 -0.46642999513646116
Ni 5.394332536073287 1.0450435810335823 5.023858407780045 -1.0089013947092171 -0.5269689330617827 0.20646549738852826
Ni 7.111767571417736 0.9842491762024265 3.4873426260075213 -0.5010429572246403 -1.1805145603052507 -1.5014273156017819
P 2.1324877398576847 5.132006565537276 9.378767647740421 1.9025602893026463 1.2794778636450415 -0.998487141354429
P 1.3714396954835242 8.795433049363918 6.815419921992257 1.7576649993174311 0.46812949432607115 -1.2104468290883088
P 6.685194571029124 3.488266458040978 8.12499783698844 0.03553007458580977 0.5284540022477415 -0.4384831322145481
P 2.9818243137240423 2.176277746304101 9.03225242232282 -0.3992180160663383 0.7792095798028967 -0.16434465695907827
P 3.727901494368781 8.846022974861375 3.749456961715151 -0.5829781014375508 -0.6080386439506045 1.7637698266635882
P 7.350684889631897 2.844151257104736 2.1898711433461875 2.487353846682381 -0.18161424267280335 -0.10582866300105646
P 0.4577753353034676 8.93467956492467 3.0732892059448167 0.7603677645060453 0.4712492709019755 -1.3011656330311203
P 3.9176919278556013 2.808964666507742 5.423057823344652 -0.27717366253736775 -0.6889857132186328 0.23454888588830575
