# total energy = -381172.24367392843 ev
CRYSTAL
PRIMVEC
9.21156079027339 0.00000000000000 0.00000000000000

0.00000000000000 9.21156079027339 0.00000000000000

0.00000000000000 0.00000000000000 13.48205033539416

PRIMCOORD
 96 1
Ni 4.285494387604663 5.025532751664126 7.043049698814163 1.9203991172562798 -0.34544776432341795 0.3811699003153758
Ni 3.0134147002443177 2.729781534522556 1.8839281303124324 -0.11238420473138709 0.4384237397315223 -0.6636323220555088
Ni 1.244629236454209 4.145073356190856 0.7502300348254181 0.07097607409824551 1.3511725610768666 1.0693341460739778
Ni 8.422765551876896 3.6838781462856423 12.682874720485877 -0.00598604238010582 1.0962291706926088 0.020700208661828867
Ni 8.772998301508512 0.5536000599789783 9.054153557400156 -1.9469131043864083 -0.5731567444717549 0.2196259460298863
Ni 5.23209278895245 2.8457182375778025 5.905542622974905 0.14975081830530337 1.0978746767158318 0.42751763434197987
Ni 2.402632956022073 8.327831207233055 9.294511732077643 2.199096415527025 1.0046428765431794 1.5628815662525213
Ni 4.669515141908665 -0.022383171361349378 10.284687263660887 -1.6733556984453892 3.306542537981376 -1.6242738533170735
Ni 2.7090739460537656 5.937458838511676 5.754435259985188 1.9928898282268388 0.7865657630576518 -1.2771600141451425
Ni 5.426254065529478 3.54500465707057 11.527449316759835 0.46947726660321726 1.3064667335290596 0.6073210490582897
Ni 3.935326118897994 1.8453519563846748 13.025116441204382 0.6772756238705562 0.6122634806652294 1.113327263825476
Ni 8.276071447621787 2.756218713750949 3.1611902417263997 -0.08058737193576444 0.7199168555798505 -1.0148483563212716
Ni 3.474453313617517 4.213524463802769 13.443370118562907 1.1606808134087752 -0.651338335179504 -0.6572305322942229
Ni 3.9087139200161727 5.611332743249644 10.622601393159357 -1.7449827758640721 -0.9132378451666208 -0.09797111462985063
Ni 6.458731847346361 1.554321907415387 12.222880698096825 -1.529181860007231 1.303322788583439 1.8414891330229384
Ni 9.074317663787248 2.8178164201970346 8.397834462824058 0.6732922137427758 -0.21120172652193303 -0.2125343292904275
Ni 9.010186778146805 0.924241943512486 4.194359811752361 0.40746354390458217 -1.570988511630372 1.908990618309022
Ni 6.9283648468589645 3.247673900577861 7.756789978211904 -0.7976173928861231 -0.019614431796817832 0.3704846526873877
Ni 5.416627984590916 2.575773451066282 2.0004534520968407 0.12779719685234764 -1.324568842446409 0.09382366812038034
Ni 0.2376757681996792 3.316557951542991 10.727640819898507 -1.1143328222718552 2.301284139341385 -2.581729530651489
Ni 3.4551827286189805 8.920116137556132 0.5898945303196724 -1.2628564530382769 0.3546661975978924 0.8555114369894299
Ni 1.3735726632273966 1.8096571586459904 0.4131292861373547 0.817851460544811 0.15277494984360787 -1.1199776792624583
Ni 0.07189346784802811 5.47630047484929 2.797876154735117 -0.19043184096443333 1.3005915056952053 -0.0928034543859821
Ni 8.283367003701539 6.5840459192010865 6.855770379241152 0.0029238585150143195 1.3748567920676837 0.8270452112289368
P 0.4063919506364325 4.211175515822546 4.541643940801745 -0.5282778816811935 1.0962222287140735 0.6837530040647837
Ni 2.533722676439935 1.374309588083937 5.88645166341015 2.01829721255635 -0.5451201500495128 -1.4225193882509695
P 3.677770881537062 8.601976465426858 7.5608821897248735 -0.5330547342445464 -0.5250421483527151 -2.0160050740880635
Ni 2.3821925028137785 4.765379854183887 3.3381019497239546 0.9714316798985335 0.052386998242148486 0.18670965491783975
P 6.1140352456995055 1.274069384473005 8.336679832447967 0.3412584088324187 -0.730920919999838 0.29173536240162656
P 7.522252588745016 7.307466627745558 3.0578236344115943 0.20848612736298286 0.6313148408697257 -1.9400490302767237
P 5.514169200914768 0.6598554127314229 0.677060765819504 0.7462380099728826 0.5084073680095115 1.6507649576290668
Ni 2.551252276464894 0.5520396215952537 3.018253533083577 -0.21168715079878384 -0.061010221134785256 -0.7434010547447197
Ni 0.3507900490543752 8.196207216294201 2.8148770111755086 0.34174691843306304 -0.763380326080124 -1.2682866229149123
Ni 6.784553961105071 8.206220182782447 7.962228968562215 -0.37738060847627264 1.4289204066813068 -0.3120311365361852
Ni 7.467351686932743 6.055504988968771 4.675480548622361 2.003559649235859 -1.5970888082618493 0.41876894161507233
Ni 0.1338614790345253 8.58441001915907 11.230911675643977 0.2410347507229655 -0.8040204681989895 0.5935309372527326
Ni 5.20507528139953 8.664458481700791 12.458937995080328 0.054716674816589636 -0.3872700996758427 0.3525257542161219
Ni 8.87231734904877 1.5064402148616627 11.855710651793695 0.4044851780025486 -1.0710827533339682 1.1013392382256646
Ni 6.747864314810058 4.491299076915033 2.931227313306488 -0.8343947096154727 0.7703338745798217 -0.30616824999750497
Ni 2.449418472851693 0.4760654323541321 11.812635551616756 -0.016234973801623656 -0.9766857292086212 0.14903682295741427
Ni 4.100323594277429 3.774114594969036 9.066867353487622 1.4452983338186978 -0.15187634928873842 0.049691196577540224
Ni 1.0255138419225749 8.748891647138928 0.05511461002066982 -0.3706877698371293 -0.9199132003042673 0.6936476374706763
Ni 0.4336609337966459 7.6062159645871095 9.22645487926398 -1.960778549514591 -1.57023286441127 -2.228581826580652
Ni 0.8791918847200192 4.878571512148521 6.9428785819085315 -0.30991717551697595 0.2184828335643786 0.665600244415157
Ni 1.7572894360280755 8.395941487098819 4.668928365491645 -0.3102120810495754 0.37538774641595996 1.1658978388333403
Ni 4.559962050423201 5.299558259568739 1.4497789837983284 0.7225797471239943 0.2221065463598949 1.8684494636618663
Ni 1.709730148099088 7.536945028072294 7.116311083427144 -0.19874267482297384 0.49215388226512663 -0.08564473185401379
Ni 1.0672698466063055 5.842229723925221 10.525140317413653 -0.48329360366101926 0.09024983472619297 1.6231806202528947
Ni 1.879563692849571 3.368188749304365 12.19894998453674 0.5054194890257812 -0.8766237934880128 -0.7825450719340329
Ni 7.082741392743509 6.628740411750273 12.16356008945745 2.430393884357569 1.492671938006655 0.569499864445458
Ni 8.428964932232544 5.147668835075018 8.750982671419361 0.3349939159799456 -0.017644966775272837 0.8022551487684506
Ni 6.32130457316225 3.9313743593547956 0.4238487793318081 -0.411050232814576 1.3082389949381341 -0.8081242059547179
Ni 7.558048713651475 3.5433005183398203 5.420701336735444 0.1577952858763347 0.2532024964337511 -0.5364480761968117
Ni 7.670429754273913 1.9617676605966723 0.6667207889261692 0.8222020242040226 0.41234915413165757 1.0443211689694079
Ni 7.499730322816996 7.189033591738781 9.95351415428762 1.0240019977960817 -1.0897998701274973 -0.7519438021084083
Ni 3.8107121256569823 1.3179901059228236 8.338904424358649 0.4956526394470045 0.6456947637404815 0.454772613403191
P 0.24496579734300689 1.0332791875983713 1.893755944430472 -0.524511986880858 -0.5202660671203104 1.4330002331776353
Ni 5.216313385461774 7.528083506672394 1.1778785829487635 1.350523871749274 0.32579707997202606 0.2751882566762229
P 7.299765762994709 4.821809875073483 11.150059965008628 0.9658796397320528 -0.8284382349217216 -0.14403756997060999
Ni 6.048614741560116 4.760571419494961 9.45525807219091 0.20508378654965323 1.4281663021241016 0.043728037015569855
P -0.16974787723591012 8.803516202129998 6.197348285355702 0.5288916040057924 -0.7027634837290155 -0.22666974025054512
P 6.602662483389443 5.353547216871044 7.421895398313109 -0.2511705536053868 -0.0656268939711902 0.1821875986777701
P 8.411665621225254 4.171123649869566 1.320993995869297 -1.782728370043962 -0.2940025611692485 0.1364913821922359
Ni 0.4712284418270139 6.249822862077814 13.0009563597827 -1.0579716698733068 0.1105047283204871 -0.18156539171273892
Ni 7.872706415833596 8.939865723711419 13.368760161462456 -0.7415064088251682 -1.0385464712691599 -0.40407997214432995
Ni 1.3869294262521947 1.504846614859394 9.995552032728977 1.1068863932961386 -0.1886397820610171 -0.5331825180716624
Ni 3.9983792519357473 2.4454206555049605 3.9617135556985708 0.2119902838614994 0.14545167670931727 0.26673832613665677
Ni 2.2914954760950472 3.076734968542567 8.119322003699182 -2.3243628755377195 -0.382550068492354 -0.7356450649483847
Ni 5.517826190515351 6.586173789724348 3.55052514540213 -1.2615649879203628 0.14650968566018638 -0.37500722314808965
Ni 1.3128776897305734 0.7152132079547512 7.535037313849925 -0.9046524174904549 -0.24551926885688044 1.1332322302795192
Ni 4.030647349091518 8.12034080231335 5.042677308451541 -0.31973236183518483 -0.6122336558685585 -0.2389197612624918
Ni 2.868986639923071 6.5559875052883045 13.412846691004995 2.0941527262340833 -0.2018511385449685 -1.4260202023153765
Ni 1.5549390819827398 2.5404194810737475 3.892793579646684 0.6021834707214081 -0.22055822803616854 -0.45724550042371576
Ni 7.456896565530574 6.280267070213647 0.9705945169888884 0.0066722698138530255 -0.18822789133457907 1.075041737981716
Ni 5.1294023101935196 0.5052283123956548 6.226172179963215 0.4265892089904395 0.2936585475662684 1.399356834091577
Ni 5.07963224769491 5.961943166870237 12.549793460643214 -1.015236850008942 -1.0022630634570933 2.058000187572927
Ni 4.48017151158127 6.935734095424371 8.523055497915644 0.8622729240829794 -0.44948539686232264 -0.2070961889939917
Ni 7.722134244520941 1.3462880204139818 6.537311065955353 -0.32787813087077083 -0.8975201773210478 0.10355169404142166
Ni 2.810520864117283 3.6742981231506144 5.920170581377234 0.18544184394900967 -0.5790206594516996 -1.4078445598476141
Ni 2.3995378716246027 5.655419272792185 8.612563312147135 0.0015560316332102237 0.22299177717832566 -0.8247127064410185
Ni 3.708666456147526 2.2936878275432555 10.777793162166448 -0.9059055731712656 -0.762890530927899 -0.6005245949617464
Ni 7.039235191525495 9.33038983987439 10.77519181742286 0.4594381371996604 -2.05735509778976 -1.3127289123886876
Ni 4.975946920379651 0.17891982823162828 3.072573185415254 0.11397623180885531 -0.099877330513628 -0.42167300263574475
Ni 5.388486666631773 7.287311732919173 10.68569782053243 1.1760089591254133 -2.1515163517552174 -0.6605495693651269
Ni 5.832483892697471 6.709240240766625 6.005012740110752 -1.7861602785436466 0.5561252429107648 1.2515412851357735
Ni 0.6678427570202521 6.478140605755499 5.2969624417615755 -1.4938207068991176 -0.3511828670349823 -2.613868577277879
Ni 7.445612403664796 0.28926879856215576 2.364293519204479 -1.2068390571323926 -0.9400539369182004 0.41264637365710227
Ni 7.298522202299297 2.359836044978479 10.186188045023531 -0.68760451660039 0.9222030247797086 -1.3971577695577293
P 4.610257171882096 4.739025579001854 4.472185088448512 -0.752161060325537 -0.35410466866746754 0.34566733653339177
Ni 3.3912084395105517 7.174709614839774 2.795570501090216 -1.6554011708494973 0.41654236627739877 -0.2789824336113324
P 1.4842219304369644 6.8936556861159035 1.317233836788799 -1.3806086069497965 0.369869387700892 2.473833443598443
Ni 6.834756966956897 8.537504752040265 4.88135156116982 0.7220619269473113 0.6448115898045798 -0.5760834312002465
P 2.2425360309386324 4.072559950307263 10.160935472502025 0.2180310907389406 -0.6759772167741068 -0.23182043121354912
P 3.102223357018164 7.572566133325325 11.406636934622501 0.24224805430477633 0.4466055042113663 -0.1499786180453933
P 6.206215333692025 1.4879157662803741 4.427194904800639 0.46482177010907694 0.3406428867356069 -0.25421473974834924
Ni 0.592588911826399 2.76786212648429 6.141478327357078 -0.5000170870632872 -1.3678595348142444 -0.051390695767150205
