# total energy = -381172.0197962133 ev
CRYSTAL
PRIMVEC
9.23028204826087 0.00000000000000 0.00000000000000

0.00000000000000 9.23028204826087 0.00000000000000

0.00000000000000 0.00000000000000 13.50945078883592

PRIMCOORD
 96 1
Ni 8.375714745365324 3.0927721084132958 8.266365441301817 -0.4275729130599475 0.6420453399133523 -1.1919688248887794
Ni 1.5897499187515334 6.037582797359901 6.182167779693659 0.2775076488380188 -0.4698660174012037 -0.36538101291223524
Ni 6.774657731239697 5.119003599450598 1.429245469159248 1.0128413531935718 0.2422639951443763 0.8764474158111486
Ni 0.39651906663504893 0.72110746915519 8.365038078247599 -0.18128951234353294 0.25642306025357775 -0.7010760687242635
Ni 7.7179833150248704 3.4614111084545125 5.361941850975081 -0.369403503808067 -0.6126997968716996 0.2613032711640145
Ni 6.37883555089097 3.162054604640182 3.407637331939912 0.9391237117944471 -0.30784692325150853 -0.33543563150305455
Ni 8.594537039270303 6.832236229969156 3.1915268948683257 -0.3029435724126202 0.1069820598792093 0.9259457796515924
Ni 7.824685374228547 5.948842866807639 9.022016317581908 2.016044669076747 0.6573279771040357 0.5938700657597062
Ni 3.186034877115195 1.19447232503715 5.255986521580191 -2.3346750560970047 1.0757125387964956 -0.06549396793775172
Ni 6.253839072886108 5.848029727480427 11.25841117503812 0.36588314935963434 0.07279332981264237 0.7438916212278931
Ni 1.555736329809877 8.347488543198814 0.23780806082332337 -0.5926361933526051 0.13161297105401204 1.370124933809653
Ni 2.864516466367644 0.36452229429685284 8.089688614725901 0.5157602088301569 1.2950538637064277 -1.929621407185496
Ni 6.92594205220408 7.979532584021012 9.817006655481899 0.08773246762097793 1.3594471423808328 0.2802227337763367
Ni 5.444011056770726 3.6243901966343848 5.726750284012013 -1.909839596572879 0.7875672077389727 -1.6639863414153468
Ni 2.0471657704727644 8.647048113215781 9.859899775647945 -2.0932860073584143 -0.13462296152492945 0.6675576252518438
Ni 2.067583154119696 6.4732336442712475 1.5980193283398185 -0.3673425075139803 -0.4737805219642614 0.002425064501724856
Ni 4.02726431238377 5.04362911714461 1.180183848597073 -0.12954528989170594 -0.5757106212418602 0.981227840053349
Ni 0.553969215934039 1.3081155562582292 5.6903700507814445 0.04652385459315213 0.050257353493655385 -0.3388384865370164
Ni 1.2972884355449148 2.2624620966774156 2.3897809136178862 0.2561592650692298 -0.5677628271496932 -1.8923576377380313
Ni 6.023709683607036 3.0570786081589176 9.070852816287854 -0.6422119473982038 0.5105167010430305 -0.4710096440873437
Ni 1.7036054464571873 8.573796595755539 6.25783393890889 0.7264965656798972 0.22902641340817975 -0.16987535696932035
Ni 8.61224995030939 6.749532903804368 0.9326286100471852 -0.8924270790688565 0.5856705606680495 -2.0000729762388394
Ni 0.2764866342564625 -0.1375219705947739 11.967792494019232 0.1456941317374265 0.9149111191039856 -0.7182217272656147
Ni 7.450609738125829 0.5416800185617401 5.867896986323853 0.44623783645930243 0.005689079964977298 -0.8562020352985512
P 3.2355184185849972 0.8887653872494522 10.89847909994905 1.40616460104203 -0.4659754240975459 -0.005430684097268067
Ni 2.111630059527996 3.966122924826231 0.45227181559716406 -0.9753014472665849 0.31280760969089355 -0.25486034375214817
P 5.041349237505915 6.894328336566312 7.071184230611826 -0.2581099610376974 -0.907419952933263 0.1565156478329627
Ni 6.983797459391679 9.273479657504359 11.832063044176824 2.8490448123375387 0.9088415158711379 0.17057701102203526
P 9.021059137344933 8.466993003450543 9.895794496048572 -0.11917963038666571 0.027187873268701562 0.12803733788761174
P 6.5242678731066395 2.2817626162098454 6.900640926383734 0.6771511824775499 0.10592687914181757 0.32380087547760367
P 2.7390584742658812 8.610920789710315 2.146867583854636 0.25725301235404086 -1.005003602316708 -0.6774941676392655
Ni 3.842630982777269 9.12573976480418 0.11985613399356992 -0.7653310220485916 -0.437487343960182 1.543629660001445
Ni 0.3020877442397946 2.7005497380204018 11.897435592974759 0.8281569562358769 -0.07016154861675014 2.477919183632042
Ni 3.801187016875495 8.235922125413792 5.272184743353247 -0.7107626998844081 1.0368870812888658 -0.1094084099325148
Ni 4.143270495780986 2.910104828859596 3.653738801084559 -1.174696925182209 -0.13580104099343063 -0.4423917232403349
Ni 4.451894202661103 0.4806170884006738 2.705186108637877 0.34593164593837195 -1.0173271568790674 0.11511651606088562
Ni 3.425394548332302 2.7153735708128854 9.609785902944834 0.07811602757713643 -0.28987516926443624 -0.4170789555071591
Ni 8.002312919844082 4.482603350668943 12.780440361266683 1.0231113676610122 1.2204869869331303 0.3948170587851652
Ni 6.056255657720545 7.773318855243386 4.8383014954330354 0.2535459958160988 1.4490572866404978 -0.8231710729855113
Ni 4.296059352701269 8.308241384398292 9.444497398224065 0.7328425625025831 -0.3681331217360757 -0.9116581593843267
Ni 1.3390185401867682 0.07484189503816399 3.5274528526929547 -0.8668302044363587 0.5952034398591491 0.9847109135059428
Ni 4.74891544514511 6.873947874047132 0.12542753217136748 0.12221044679318951 0.09676552435752367 -0.47955676232640637
Ni 8.896293416388522 7.749264740512868 5.555127036797171 -0.1993383994254438 0.04637935859548787 -1.54659928415273
Ni 0.962053825837445 6.465794037029191 9.73391011930655 -0.40087689182599995 1.1041180865223823 2.0651077451519853
Ni 7.312017054826243 7.637679862163971 7.331633250000953 -1.908724766242145 0.28099509316598703 -0.09592991583010575
Ni 6.450554841549496 4.816527260341212 7.409298688283963 -0.7444261535751244 -0.2675597935966876 -0.2155281218114288
Ni 5.3074305749336315 -0.22283562049163785 6.930307975560771 -0.5466322158186651 0.4067220377528673 0.6331374959007612
Ni 8.64705734349772 2.8650795135658647 1.0531834763834644 -0.3807281847922669 -0.5493182472912604 -0.4499132284283607
Ni 1.2260398892652276 4.630334013087183 8.477936425716278 -0.15871574080807505 -0.4423025059606382 -1.5086305182184405
Ni 8.638805471445115 4.817810269530599 10.611038890116724 0.7309479165830315 -2.0600940939874777 0.7192339705802129
Ni 0.5814726870248 3.6003268516219293 6.091195043940586 1.5256964725617919 0.4870060195155999 0.49004146390781406
Ni 1.893684642407129 4.614771757739658 10.779204473717577 0.581494832023805 -0.6852540140903425 1.3108504644190522
Ni 4.06464695423281 7.027899746491607 3.211723674776939 -1.2668560611159732 2.30641349014815 -1.7919028374543786
Ni 0.3257237271985193 7.564068363708147 7.8261594502540515 -0.16713790343349927 0.6658265014933501 0.5986926839593303
Ni -0.050652095163157336 4.059090324506113 3.367609291287432 0.20902785879906582 0.41962820429157405 -0.7787861191122329
Ni 5.08509154361026 8.43537005753084 11.746277726872925 -2.3366211240797825 -1.422854402992885 -0.8706706612283713
P 6.637108069799109 7.845628883945947 13.36924927637583 1.2597667583693595 -0.45644768711276873 0.9849266290611747
Ni 0.9034479967282835 6.171698793919541 12.580973045557567 1.7455332490509032 -1.3243258731976675 0.5307672237619504
P 5.410431291080157 3.4378646592305864 1.486998420217335 -0.4007313673870711 -1.7377590044221234 0.6895315584197738
Ni 3.511051564717261 2.024662343107836 1.3541331268602994 0.4000713652055691 1.2733079873889037 -1.189338329244468
P 9.096848982338132 5.51771485804593 4.942716290772467 0.39242027641821453 0.33524177032469354 -0.7113126588506072
P 0.6343871242909696 1.0817336614459985 0.36449737253562015 -0.2474116007835868 0.9370022945760701 -0.45898485171232567
P 1.876267100390058 2.460608559041199 7.921523031125047 0.6144093233636386 0.05731785988486258 -1.6000522617655475
Ni 0.9291294101644765 2.6729511950256795 9.780477814712128 0.6102310236162328 -0.2591116628293344 0.24696885681921338
Ni 8.229534770312673 1.7762939167192078 3.0664021159445256 -0.033394773410361844 -1.134937128785768 1.410941710715699
Ni 6.972130383022003 5.825858590265269 5.175362777936042 -0.1524183378351375 -1.3697138144141634 0.01189392322410855
Ni 5.314500970898165 5.3339030235319145 3.4572980948229244 1.1983577591342587 -1.9667563643645805 -0.2857009832820886
Ni 2.925140958136654 3.903320086519845 5.777262078889713 0.8357247412808059 -0.650716385324789 0.46560904189706265
Ni 8.068254054009397 1.8415058586114204 10.286149580405404 -1.1903536578828597 -0.7069412692557889 0.14812356711452554
Ni 7.342596978886951 2.1472589478088087 12.637658976023616 -0.513061064731439 0.4003973810864201 0.06437656650385687
Ni 4.406444294398222 4.248477249310702 11.23263561272616 -0.4383700036754515 -1.45082903382894 -0.5328904407525403
Ni 4.3300267902332354 2.0357571419973537 7.195944413399074 0.08884061308349216 0.7764317599474434 0.6043362553983528
Ni 6.315358902003108 1.3199764685486033 1.249062058475073 -0.22916782408205047 0.586695402388138 0.09584018432977687
Ni 5.774399768460728 4.284798408736867 13.019895104387752 -1.1442365518098228 -0.8853727433252364 0.7661380913309193
Ni 5.574490322246779 0.9580478834763381 9.924880037463511 -0.8129403963964388 -0.010804032594039458 1.2259079008383855
Ni 4.009902152058328 6.078500637191207 5.270252845343617 0.2386636793876277 -2.1246958891282635 1.6246700603142277
Ni 2.6565951354314823 4.950707868874418 3.434277771669467 0.21711037869688415 -1.0910581680146305 -0.125790450834964
Ni 2.6845351988579123 7.818731842378515 11.8028556630403 0.30988966471315016 0.1749841389507954 0.7925158099934997
Ni 5.28931153148927 0.9560818334235368 4.697911676240114 1.9701718178040328 0.7601955005942391 0.8411484833995385
Ni 3.511919211219436 5.0454197918405885 7.786496005738124 1.7902056522576135 -1.0783756874509558 0.02315638351180528
Ni 8.474100320542831 8.95881011595483 1.6299967170859448 -0.1682948998560779 0.6976793843378887 -0.41732115342495224
Ni 7.148964124390866 0.7236310282370485 8.242237484315796 0.42855610290882323 -0.11727675693699802 0.204699406627041
Ni 8.522116247184487 5.618611069910584 7.00740575150459 1.7283410535423331 -1.3763045802578038 -1.1297866949330801
Ni 6.166751362800754 7.34391690920409 2.2056201744466124 1.1127796188521222 0.898878234010839 -0.518851703271287
Ni 1.8430842368228244 7.018835609628458 3.9629975513620126 -0.9278208851871182 0.652099895935877 0.7131862217242363
Ni 3.7539925853263254 6.188017932385986 10.38309338554419 -0.5981185566234151 1.0046786148771212 -1.8146270185247717
Ni 4.973635889208495 1.493708835186286 12.57342175190406 0.6668040349152711 1.1320760051878889 -0.7833071469110381
Ni 2.8362810339191973 2.4934775930225395 12.232186535908676 -0.5479380791142822 0.2013484878769371 -0.2798087861673697
P 0.15808703875271443 4.846451834384319 0.9600554697978606 0.7396971235305712 0.04006730033453099 0.669483381519647
Ni 2.5264389298232603 6.9642938736566125 8.079151324865443 1.4894907120651961 1.8715517567362736 0.5322702906700382
P 3.203184740956063 5.8138499934638865 12.390206193603241 -0.3883031689260474 -1.3335803019164 1.4098986141631655
Ni 8.264591381113327 7.013131295390753 11.801396355465897 -1.257222651791267 0.8472548534075924 -0.38879013586479494
P 6.57784042947499 3.5418622458264197 11.056174774747593 0.6816734958279356 0.12199884500301571 0.497601278532943
P 7.926255396674677 8.900797793974284 3.7325127962283253 -0.4506403364023723 -0.2737574377669672 0.9319971280519949
P 1.8546036286814913 2.952462592673236 4.203965137692725 0.12691479424739432 -0.41418980688482215 1.5666392335227406
Ni 5.7739197937999505 6.221976139636014 9.104910710582812 -4.378486610874375 -0.13294994469788068 -1.5527177383456419
