# total energy = -381173.29363401857 ev
CRYSTAL
PRIMVEC
9.13621397788295 0.00000000000000 0.00000000000000

0.00000000000000 9.13621397788295 0.00000000000000

0.00000000000000 0.00000000000000 13.37177265929293

PRIMCOORD
 96 1
Ni 1.492199529150829 8.085786763361098 1.9854271678945634 -0.16265055708610698 0.28435603921841995 -0.5137642614460507
Ni 5.845760725224776 7.354551618654465 0.6433575585542879 0.18965562492004112 -1.2414003400470297 1.1903114917910145
Ni 7.9356970428913085 5.520063839114017 5.080417353501472 -1.1117030979584916 -0.10007273435388572 0.382304013919819
Ni 2.762215474657586 1.0273306980731665 1.6826365970481014 -3.5289861559657156 -0.20246871752430937 -1.518734696531978
Ni 4.382102728016217 7.851461151563608 2.5736385398920185 -0.7016882483869658 0.18788336351096674 1.211117115682456
Ni 8.38897201864415 0.9749893291559868 5.457515492128366 -0.5831727339468601 1.0159508453568311 -0.27484681417640405
Ni 5.768696761737883 0.16767053670426843 12.65822788816544 0.47999847784951527 1.5213793332436767 1.094441996885199
Ni 1.4501364007698385 1.6393382525600062 12.292563721121693 -1.20509456363746 -0.19570620198949523 -0.4136807284588875
Ni 3.4920162337960567 8.377944608575547 0.324200374288689 0.3344755815826304 -0.8164826052217422 0.3227276970180829
Ni 4.9297913372810385 0.6524316461103261 1.69701151585667 3.0955336441965398 1.0976293934742452 -0.5934993126838488
Ni 5.983827188320676 8.459476180615502 10.61282787195825 1.856422357294003 -0.26266801272202506 -1.4865650537779687
Ni 2.327075883317487 6.315553975545999 10.742013021609504 -0.7107498443686018 1.8840863988681749 0.29571774408814233
Ni 3.170997089155991 3.169690610581169 4.7477678086813455 0.7756306042023868 -1.5799626901045243 -0.7132839236443651
Ni 7.8578930460858105 7.642662121151107 12.600408445447817 -0.7569150300707544 0.2272999176353763 -0.8035820951099901
Ni 5.158461632730172 4.171622634262685 5.199666870634409 1.5277716099232654 0.9045017508452035 1.9727061541901123
Ni 0.6705103859974467 5.816661884240098 8.956934799974622 -0.04631096725139766 2.468902581955729 -0.5743852175622173
Ni 1.3668141308231325 9.239818474550592 9.550574910217946 0.08671893875479904 -0.868830008475207 0.3119432048080692
Ni 4.4452979189396125 7.422634683966182 7.127622685557508 0.8240545040317292 1.9637731133665404 -0.4221571413610149
Ni 8.07180835623188 7.8787327497862965 5.800113460166144 0.4117475159919167 -2.9315209166555833 -2.0009633492635923
Ni 4.754650118544378 3.1492437640745097 9.452800063645288 0.5969782723713848 -0.4089666108126699 -0.8107899257123391
Ni 0.9875516231446622 -0.09275541070547481 4.084126941847597 0.23988495338923846 0.3281797212715897 -0.29020889845477116
Ni 3.0147861054335374 8.907433879930956 11.497892189447084 -0.44481061709447267 -0.2994347879284133 -1.0893668963551368
Ni 6.531881246137896 5.123771428893808 9.97565004842501 0.4151233744426851 0.6389186213589125 -0.38488925814849195
Ni 0.604220759456623 6.151193489105074 6.338981968618843 1.7837658101695406 0.704702095512625 0.43372119204953047
P 5.984448450859753 6.175559771336199 6.271294501365097 0.4130482370812112 -0.7956762099993522 -0.44902696916866536
Ni 8.768015257191182 8.439431327516482 7.924326111183451 0.5370623127420429 -0.6981131294411977 1.1424141538891035
P 4.034022118071092 2.4714920150113 2.495493762311409 0.036957293950639576 1.2765295796499951 1.2347730645384993
Ni 6.7863978904553655 1.7352502251368171 3.152930226346823 1.8047835500717886 -1.3424066419587783 -0.5567327945877767
P 0.3104713857964834 2.02474029591876 10.282732812519384 0.05640511826260609 0.26379878389235856 0.1624538676942686
P 7.910956175893976 6.9749510710650275 9.921039243997441 -0.6217500799994259 1.7372185585376212 -1.9745990003374507
P 0.09389652381033706 2.4096946648008264 4.1098280249163555 0.6208190835447244 -0.6773324452504206 -1.148643422628267
Ni 0.6274203471842184 9.104757825798165 0.1449231915602654 -0.4745258847707183 -0.5435183527800317 -0.25331691052442823
Ni 0.31506324685736214 2.9411939031944243 0.9005246184980235 -0.919782331153358 0.7529082229042066 -2.4703660538751326
Ni 1.3984437030331651 1.9392436070852872 5.676370753081476 1.3692756984354806 -0.4749647720803498 0.8906586743145243
Ni -0.1418187061076458 1.0583390077441224 1.9571862173866397 -0.46439136743987763 -0.34033718256973 1.548512956235675
Ni 2.7421706215585644 4.783310421266178 8.955504068891985 0.15988276453298272 -1.0875871787468947 -0.6734151124738854
Ni 6.1559900013552955 2.766975442052568 12.379800858685963 -3.6500504049696043 -1.7540641693400503 -1.7710378210799111
Ni 6.989103066256634 2.4598890234726687 0.9728889136010802 0.6179075663248843 -0.3663014678439756 0.9432870991435175
Ni 8.509697947928773 3.839411627705436 2.798056841434003 -1.505088566503453 0.7347762891901861 -0.6883370238910403
Ni 1.72974108820942 5.215316291269465 1.5455495360726264 0.13765146393860808 -0.17353352254719792 1.068537104093979
Ni 7.771199513243235 5.72694426462643 7.421681776865805 -0.44326589831517205 0.4349825752604573 1.2965456177606058
Ni 5.698896088229897 3.837218936391049 3.002697980941598 -0.16581969884270797 -0.0952773698477714 -0.8675989642815832
Ni 2.447290184628754 7.423904617685764 8.015976040017922 -3.150613615889819 -0.15544041249091295 -0.7142570861909119
Ni 2.6300966867519597 2.1458499461834015 10.41723889309355 0.5283452445840191 -1.1366579681316165 -1.8370832906457586
Ni 1.5710450543306613 4.12709272815301 11.016775515729812 -0.7093023132887978 -0.5311942839970399 0.6585070850138014
Ni 4.087797872556433 5.879007407279167 1.7349076171189441 0.4258567016997891 -1.4937291756265758 -0.7983018205476574
Ni 6.669198539701381 6.075892814883501 3.2137180249312975 -0.48288402692742644 0.6590038221445619 -0.5848984583887152
Ni 8.821635696041753 3.9596533376581333 9.332373802173631 -0.25812975853203934 -1.6132561620503312 0.38204973181716784
Ni 8.227745253540037 8.07206417021856 2.8559968821739172 -1.2357066320963623 -0.050291549165700486 0.010856997319161945
Ni 0.6149220066922126 8.19337481718702 11.412994836239543 1.0489494117700389 -0.8122279437104464 0.09435768624697943
Ni 8.826733703347704 3.5468791977247816 6.872703134211019 1.6699482154257368 1.144366649629784 -0.9073237936750309
Ni 5.31907627150902 1.4484553374288083 4.748971961661496 -1.1074849461120861 1.4504449110166437 -0.2037838367913071
Ni 4.106746379998261 3.4093517712436667 11.565018693172899 -0.37118862073294784 1.7034165223865114 0.891080335232975
Ni 8.448594949967857 5.889495780732986 0.9333071808908711 -0.1940640384003819 0.08598977389825835 0.389682051551445
Ni 7.453314089939981 3.2978077368380387 4.94548278449962 -1.0681956615941604 -0.48768196253670204 0.26420424686089333
Ni 0.26065343913361094 5.8744575728018145 3.3752088266145184 -0.4204846387545984 2.4598936935888993 -1.0405120796359628
P 7.402251790956193 -0.22905858453605632 0.8534731173768025 0.5389433318148396 1.22057800398504 0.8437087879275469
Ni 5.8814559125802335 5.063746504162464 12.203574257748679 -0.5647304680812726 1.04130989294691 0.964364745749423
P 4.263487264121691 5.598041423981905 10.333852669650174 1.7494816921756904 -0.6867334268493464 0.48088627977110737
Ni 4.825474047999077 7.227823196896708 11.89883127801103 -1.7826676920093558 -1.7686250978733604 0.6308245314968685
P 6.3432549758177545 8.818547655773992 4.272842747063075 3.2446473431384764 0.506035011122593 -1.6084461422561978
P 6.146899468614399 2.3072685717775245 6.504364797385101 0.59975994888158 0.1669792663684479 1.3266470651316766
P 1.8862078859185518 3.7823377000347045 7.154753586087524 -0.13760158453727916 0.005834604403906081 -0.8203937673506903
Ni 1.7065807862012072 6.895922821608996 13.178416493862326 -1.0637674506194776 2.4243227384628248 -0.3405441563742135
Ni 6.817881283244439 3.6987687523151305 8.062577125798311 -1.488306719059424 -0.9176400879993745 -0.40038144024682015
Ni 3.904973098005607 0.7304457758334533 6.327482216296263 -0.8745124035719649 -0.9270968625369 -0.43600767409086205
Ni 4.905443327477533 5.372614484435302 8.038896059602934 0.6365974294249036 -0.7787544945433492 0.5409387649783135
Ni 8.005378945619766 1.5995957224867419 12.158645099095509 1.9820747398892056 -1.0096922660416288 1.1309385491493362
Ni 1.2302368705782527 4.425207384771541 4.692261655300401 -0.16609814931507524 -0.9148458130836891 1.3881511951837449
Ni 8.18682415188529 1.616927120084209 7.877337649937518 -1.1920415871082437 -0.40909079509536 0.8398696166871148
Ni 3.3432329919010892 5.452528946630898 12.78356121007442 1.0784175964324847 -0.8970144413292229 -0.13447203776936195
Ni 4.118340235323082 3.011542749531007 7.123397186670408 -0.46414171332291676 0.19647804715851325 0.20545428251519457
Ni 3.32290491617396 0.5752297257949031 3.8388488369347433 0.03941424013156438 -0.0582740531505448 1.1160323214614651
Ni 7.093603079814794 2.6062968497770505 10.22508695786415 -0.08471167851678314 -0.1730666102131084 -0.25665445953809346
Ni 2.440511113981774 3.2706731818224997 0.15922593427973553 -0.06402303981918005 1.1309586037539943 0.060857754717320994
Ni 3.974993040645032 7.744019277158646 9.532643263373165 1.2738949702406255 -0.763324533141524 1.155815000676042
Ni 6.055208426817783 0.7812942874140877 8.813335445795419 -0.8999853510320888 1.5007698845234412 -0.38262051671897335
Ni 8.15800853352872 0.20666024275959316 10.299487715025444 -0.7028933244386604 -0.28428610521243297 -1.5063849167173733
Ni 8.899083380508666 5.880880331110207 11.290242494731874 0.5158028891426342 -1.515465795972719 0.8547228796498634
Ni 1.3702219385742425 1.8291887755306802 8.101382280334676 0.6298421129789411 1.3288805824478855 -0.03468469586637898
Ni 3.7514938422123274 1.49536065912907 12.919378337330313 1.1356873766882314 0.22184943604376633 -0.32788944372468043
Ni 6.554986730863249 0.11576405156444235 6.516987390384922 -2.739150463907541 1.138724106632026 0.86877601530882
Ni 2.7201249376351653 7.569005965415324 5.46691574251742 -1.9037090581951084 1.322417600431361 -0.9915271650968278
Ni 3.028262020803208 5.536353708337151 6.390223337393305 0.054825432480312034 -1.9544482364211888 1.0884029897799705
Ni 6.487954330139676 7.696602327485027 8.307802240671068 0.1492507387404333 -1.3612204322311716 0.7145489063997177
Ni 1.7423033821980956 3.025311023742595 2.613165455319368 1.0066966737484146 -0.28595655093632044 1.487169005910555
Ni 3.3325436217434525 0.4979090346999506 8.427987306098142 0.8519093214604682 0.9988944040951764 0.8889321785417207
Ni 4.684895126105441 3.695973070889287 0.6076897798402594 0.49935657066115285 -0.0540669570477327 1.1300841715688408
P 0.9078902340716017 5.007686696224637 12.964815469471317 -0.581110966321825 -2.12038929133311 -0.45901904738437077
Ni 7.880998530811164 3.9558618089270055 12.65455056210694 2.7352626988173605 1.6735773275378922 0.23546188462087833
P 6.425142860196299 5.104649333389591 1.259681060444946 -0.6218302984180581 -0.2842336547079427 -0.5660394167006831
Ni 3.5726707293102584 5.405760668137786 4.110670383829632 0.5897431880755263 0.4923958230726036 -0.6908294512955909
P 0.9122609987582798 8.78348286717142 6.221684860377092 1.0647403560557083 -0.31736566137522115 0.6402507099067748
P 2.2697552778738865 6.692870469682951 3.204893356012271 0.4886499828769261 0.07177003075445058 0.9054425174919181
P 4.706018052434036 1.0532501366519826 10.639638091383537 -0.5556357048688559 1.0588016219737701 -0.11538596767218838
Ni 4.935355291491296 7.547444500823852 4.839391242495768 -0.5279248692171489 -1.4127723361665347 0.21004010211366406
