# total energy = -340861.508216589 ev
CRYSTAL
PRIMVEC
9.30622709079197 0.00000000000000 0.00000000000000

0.00000000000000 9.30622709079197 0.00000000000000

0.00000000000000 0.00000000000000 13.62060403522356

PRIMCOORD
 96 1
Ni 1.0318372032412937 2.970566208638726 7.724761985495874 2.381202253124267 1.7317786184689723 -1.5128792661924655
Ni 2.6866332288153933 8.78875406359412 1.668946143431241 -1.0849512837859445 4.4476629127597205 -0.3129508201369771
Ni 2.4337085967066243 1.7221358827357396 0.7893932437604183 -1.1363455790975205 0.2661480008508255 -0.14410673264564858
Ni 2.6342205594491195 4.360907187092549 1.506656715422616 -2.441475081872395 0.5302296060909255 -0.8700379127403791
Ni 4.528503025625437 5.407978683613777 13.34305674179131 -0.09263170469480822 0.5043581376408024 -0.682416030420915
Ni 3.626999528789445 2.0282362948087997 2.7804688443138086 0.38784011324669976 0.6117096650442884 -0.3277308066596291
Ni 8.798088209079625 7.938918737979994 10.105588879005248 -0.6632368863893029 0.11791207652815178 -1.4165847679340895
Ni 3.8786492078259167 7.679395991066414 11.997041321610137 -0.24584528473773146 0.43828310038859997 0.30437490554250807
Ni 2.177080086329429 1.3945473929697239 4.485442183575599 -0.7512084666042805 -0.07165895909788304 0.2947175849584021
Ni 8.753399707961577 5.14917251616419 6.187635752890709 0.48546927115609934 0.03560540790843546 0.6272815513406165
Ni 4.693260464982772 1.4031742652180432 5.436214706363104 -1.3370047542169168 1.3239751747264683 0.21013857536474131
Ni 2.402970129569408 4.502073341498977 4.249696846149028 -0.8839694352198066 -0.23947769064849078 -0.12676747003625266
Ni 1.7978978751559873 6.320770633564343 6.155396191369831 0.0026788323837437737 -0.3295961420031421 -1.3302628075073928
Ni 7.771648617385284 2.6428939628314647 3.2339128841465166 1.7767780659977979 -0.22527748788870877 1.6876826565910223
Ni 1.1523900652744452 5.125478862718428 13.007772002457484 -1.0212203212858866 0.39328468130103883 1.659069363729704
Ni 1.918767148900512 7.699906914944837 10.563323089395102 0.8116247629088087 0.39776457144926336 -0.38995921647223164
Ni 6.908458856305854 0.6130672338616745 7.540761130350972 -0.6294754736681417 -0.016936113633706316 0.43677154884008
Ni 6.193089201798492 5.085406250095706 3.7504605866991882 1.2377951391942748 0.6972492387790056 1.4846261848840432
Ni 5.090859699003489 3.949050813606432 9.055944210772411 0.5231549586323313 -4.258420207007383 1.3117863459697603
Ni 4.497904151890296 3.8822972487335123 5.897871491351305 0.17438764301737708 1.8354930633405036 1.4166235915918246
Ni 6.500213298820112 6.366445594723731 1.2482674669338973 -5.292825659524975 -0.47686070355148197 -1.212380555775912
Ni 8.507985200884516 0.18307488557779591 3.9581746383661436 0.2595281815414627 0.7112566088016913 -0.39331476320802583
Ni 8.657964352075366 4.8807064852909186 3.9156507656029595 1.210576412687638 0.07366827621842796 -1.4759875353724385
Ni 6.926596692348976 2.1672713232768626 9.753087620082002 -0.6163386791758676 3.0507357711555585 -3.221080868672446
P 2.782924757567672 5.732505424760918 11.655422764312764 1.2817933991520956 0.17190395736357492 0.10713272652446065
P 5.213115600541972 7.5468660151351115 7.082891049049762 0.8806262297791866 1.7326738765897323 0.002018058871293299
P 7.151481663094006 3.6771321725884714 5.130349741828213 0.37520211276771515 0.2766949231287364 0.6367712359986066
P 1.9950782087022598 9.033777709145365 12.34312686777395 0.7802745307323014 0.25620040271981037 0.2887793650970962
P 2.459896318936151 8.883975376263813 8.475216115058428 -0.3719604659019658 0.5637223385317324 0.9021049684782528
P 7.0486571631245525 5.26588190652684 9.869734658725058 -0.40601986947952007 -0.30591782454959576 -0.5382851294055504
P 8.624769041061606 0.6513130341625579 6.417252009343446 -0.03250208639276338 -0.443125773192882 -2.637206737783187
P 6.55199314476364 4.575881026290156 13.113181772233391 0.4922726672311781 0.35319989746501107 0.026512444468231762
Ni 3.250506817162675 6.944166848556988 2.480530085008399 0.2533554770718475 -3.5952599394922857 1.936369267432291
Ni 5.035580711781246 0.7885826714056948 8.883888828354525 -1.7551088085544806 0.1309012896989681 -0.24192795196119626
Ni 2.7072837460958903 3.5394744656875625 12.525547525607351 1.3569205193042373 -0.32641671583389587 -0.2786620741574362
Ni 4.751284789112515 5.742193206865017 8.025219101634328 -0.7960652179076548 0.8859543268603193 -0.965198554504628
Ni 5.896062360860396 7.538909191216757 11.011577046538612 2.733144366922777 1.051015807380764 -0.6843790676845568
Ni 4.579519760970946 4.953201992102579 2.267013600928469 0.5778978587011661 0.8610598776114848 -1.0880229807327324
Ni 1.880127695205773 6.67747830700349 8.535841529580196 0.6762209573537967 -0.5191126702421576 0.09827219081003721
Ni 8.443158024960251 2.815747819509229 0.8964195051323698 3.5006245741038873 -1.8206074044779226 -1.37913202240427
Ni 8.271867614385743 2.796604910971156 6.839463421395588 -0.18346338006640014 -0.9442198953704319 -0.4365609754911708
Ni 7.987385567180909 6.096341667932764 11.663540585954845 -2.042837363789559 0.4741828996090027 -1.5832840411682734
Ni 2.700238932404437 4.441210618193681 9.583129861185983 0.5611831170496464 -0.1910784734094967 1.1313329563742776
Ni 5.742286269133068 0.9982789493821347 11.129749375755022 -1.527282328991673 -1.26363061220014 0.43872507302202507
Ni 0.8553380975239752 5.450005603865568 10.740813308267164 -0.7364889010059187 1.0241398089255265 -1.0183807949545622
Ni 7.506514215708235 0.287299972681415 1.366623128818367 1.1882728640944311 -0.16392865246758218 -0.7028930673283442
Ni 0.9519711648000008 8.614066880235752 6.732296635998879 0.46577873470570746 -0.4995763999814428 -0.49275757728739655
Ni 4.321923403006021 7.593536742562644 9.376846176578969 -1.0408465801572462 1.017508676762254 -0.8160953970856526
Ni 4.9395962885135365 0.766514815782782 0.9706645825833875 -0.7956206741710684 -0.2271068277879637 2.172753920977755
Ni 0.3900974845931331 1.0147044396931209 13.282649092976781 -0.8143244212281588 -2.3721861656685856 0.27275522175469796
Ni 8.469001416797989 1.1506684133155034 10.817974026576216 2.300059522905664 -1.8514344171611083 1.5411721995998877
Ni 4.998541929096984 5.441536937472936 10.718584454920522 -1.1197123414162136 0.3678045347520633 0.939169477430718
Ni 8.325443562102652 5.9108778739341 0.19936078248670552 1.9648846012631642 -0.41770527623724835 1.568663463041621
Ni 4.130885179151109 6.215219409140999 4.465242087672468 0.8701284155716563 0.19354930354749247 1.566294191478496
Ni 3.91212370564383 1.3040257248366014 12.616847194301378 -1.5676625325809324 -1.313037958988674 -1.047670287947299
Ni 7.233004209906604 4.232025252068841 1.7817515716491539 -2.2131287252503755 3.120108762432743 -0.37715486561871175
P 7.869419836199573 8.662161460364462 12.708458621593376 1.3457375061042245 0.2022972249434516 0.3292783536524071
P 2.7713478114221384 4.888961108467035 7.5557981316226375 -0.028421745675802662 -0.5967715556772174 -1.492283444318985
P 9.05162705215753 2.762990819751167 9.394729952630314 -2.255116639646387 -0.8754012339348214 -0.6984414593148939
P 1.00188976538251 3.174921643051724 5.467337520667371 0.01551892157120553 0.19858789441266445 -0.4839163248466828
P 0.5684420150859011 3.0057065210547504 12.819684783122465 -0.4547461310406297 0.5622784069963542 2.418096555047455
P 0.7057274729146067 5.331379130781071 1.8582999402344318 -0.5798400700292013 -0.5157699790221698 -0.512173262809847
P 6.6154616115743625 7.348001254537118 4.183241080533872 0.40877146408272824 0.0956334676356095 -0.13482350757150974
P 0.6573239260559663 0.7875906276282721 2.1432426456661173 -0.285387822917044 -0.2281272986326781 -0.13595993516879812
Ni 2.814752053241084 2.0123598718793145 8.702271297894406 0.41415406855088027 -0.09999688681062778 -1.9749023905104826
Ni 6.580405055199583 4.33455195278053 7.345114462982178 0.6683950335514748 -1.3640463317157412 0.6359759937908208
Ni 8.84083170879541 7.386314990293677 4.9808638206580325 -0.7353745848958173 -0.8560526542048806 0.28576011865479817
Ni 7.216876518853382 1.8247649519422855 12.741434305654536 -0.40768054501139467 -0.1823243813659505 0.8150574427394414
Ni 0.3594018260992202 7.411860582873652 12.191761088789143 0.44052638789682197 1.5213173696574895 2.101485255339755
Ni 7.174142325364404 6.906374261501513 8.307274084888393 -0.20729544948899137 0.25886483692585094 0.5077738481905707
Ni 4.319848114428487 9.266768403437629 3.472518025070292 -1.439677902308127 -2.6496457348774882 1.089583383241317
Ni 1.8189671726427137 0.7883137214510277 10.250702734822395 -0.6368637957124128 -1.1881453373776312 2.1200231662429427
Ni 1.0056773996921822 7.092349897974456 3.0244548455762876 -0.9730105943498789 -0.04696891255037072 2.1016701176570516
Ni 5.1001566195817745 3.1611018962461634 11.944234068227328 1.3413350061611544 1.1816221915471328 -0.5982900492042729
Ni 6.318592976491952 9.251087411271051 5.259282861099349 1.0998770518578413 -2.1355174052237995 0.8500061909004846
Ni 0.5874229952775651 7.870918138715192 0.9963814097365765 -1.8536108559871367 1.1276773618995612 -0.9791555309053525
Ni 7.810855750915134 7.463435691827469 2.336028578915026 2.317293113175132 1.139321888117025 2.685640407804543
Ni 0.22045985989920833 0.8543851398991338 8.364630221933531 -0.43148047564446973 -0.3598189454434255 1.117534359928288
Ni 6.1607593698776055 1.1193622663431766 3.3460650152427127 -0.21224919394984093 0.3850100999970724 -0.7307748813402769
Ni 1.0504031257174506 3.0855725594960437 10.905567955756457 2.4813050693851393 -0.6434334785101306 -2.156010382970829
Ni 6.4489825202580855 6.126298412018352 6.082675473869487 -0.032075540378306046 1.1947926674908198 -1.7926044915070936
Ni 9.08785619310975 4.735920208657309 8.562932886432497 -1.259747989316282 1.6040654966899988 0.6923353464171561
Ni 3.3263339531705585 8.440859386939394 6.541907986774962 1.1237643999984002 -0.06132672393393954 -1.1210552285973532
Ni 2.5897181828671734 6.993424707036336 0.2046225231223041 -0.4690054691731213 -0.9999485563913036 -1.0702540867850858
Ni 4.329024054058306 3.1742143698145373 0.6389999654767416 2.260453221367952 -1.0764936399368945 0.31394686550165934
Ni 5.832891693307436 8.923042916391585 12.916118697144862 -0.22513402033230903 -1.4012257689795158 0.8853948548124236
Ni 8.232390600278546 3.853578232813001 11.489578357664595 -1.3734578548376282 -0.8670911714072292 0.022739864799676966
Ni 1.0405943626648844 2.9486500445127364 2.5371780181936696 -0.3515011696063495 -0.22931797650666957 1.0933911870231814
P 3.676136406320327 2.2063109447242204 10.512586471476427 0.9225830338269467 0.5047741421322984 2.3292988793867564
P 4.392325008786536 3.6460028439254413 3.8744353483285714 -0.26120505502325336 -0.44218217833269 -0.4174034287261134
P 2.5310610353146834 7.757903320394164 4.435263939265227 0.14152148841697562 0.7129579077635141 0.8557839739245262
P 6.912851395357857 9.151920258435998 9.671418965508565 0.4665891464221448 -0.7082856990988254 -0.23946432091205208
P 0.013542421246768736 6.898287150407889 7.650093474725224 -1.5482651018909273 -0.36243118625529197 -0.9485920562961986
P 6.442570529989377 2.2414512571402447 1.4627983297355822 -1.184610327641179 -0.3761243674716684 -0.33383666244705085
P 4.503627481375427 7.670368951065477 1.0757235076087428 2.573383215569323 0.5649376989960723 -2.240508402814909
P 4.492878789415547 2.4299954122113925 7.4571716705649616 1.2744256459331147 -0.7628535070423765 -0.5481545660004624
