# total energy = -340868.3924915332 ev
CRYSTAL
PRIMVEC
9.30546132012706 0.00000000000000 0.00000000000000
0.00000000000000 9.30546132012706 0.00000000000000
0.00000000000000 0.00000000000000 13.61948325245054
PRIMCOORD
 96 1
Ni 4.344068398623666 5.886048438746904 2.9105928263976724 1.7041482583462135 1.136202882872069 -1.165216753605916
Ni 8.17042746974604 3.406878190841424 1.5654642322651464 2.432738987550978 -1.2857097034873664 -1.1151008107861313
Ni 7.390490248850548 7.810771398784866 10.70311621599354 -1.15955878398919 -1.0366914203382922 -0.4791764961688522
Ni 2.217891511542018 6.4359267452213595 3.995152690847573 0.26656683355579897 -0.9785592920822501 0.8357458243267284
Ni 9.189561567848697 6.775901765986339 4.790585365542924 0.5903617954961317 1.0500547290190754 0.01055592113897537
Ni 5.9740222678508355 5.485411117164436 7.3478610010709815 -0.5458752830479825 -0.9354614324515115 -0.38360576345037806
Ni 4.482059081063077 0.9400469843355425 2.6907196696810103 -0.7785156390596657 -0.06155863743908753 0.34328572367509264
Ni 6.629871165168908 0.5904817553756702 2.2516405578075287 -0.29276637476930223 -0.49802036834823266 -0.3971904441133482
Ni 8.26018794737842 4.794527158858814 4.77535883956844 -0.02902158404333066 -1.436900853783622 0.47386922502332585
Ni 4.188583449343193 6.383955745057888 13.646176726665225 0.7946991907980636 -0.15743224610996115 0.21640743909258858
Ni 1.698888724949819 -0.04300053567688443 8.43163083187471 -0.6095825913989565 1.1020308649760504 0.3689743866904484
Ni 7.001773222918825 3.1918662069959156 8.039077164337364 0.6850233861367752 -0.7275383766808503 -0.2874742731324275
Ni 3.432877649114788 7.940777995612772 7.266021331914724 -0.8774408900726695 -0.4414388724087623 -1.2936397569677203
Ni 7.242086755456271 1.452703446467314 11.876107738232784 -0.23386522955771982 -0.9657981357618398 1.5376775561830678
Ni 3.3071887862306335 5.308598051075608 9.732510097452653 -2.197632172276673 0.3433913960150215 -0.9908427374352935
Ni 8.1269430500927 2.911520580867914 10.305018354741351 0.3939197437818764 0.32127373818037575 -0.3025391378853499
Ni 2.1157454652046104 1.0305239824715189 2.187711109602862 0.06662448199776913 -1.7821102768439887 1.3817668889239558
Ni 7.949441379883531 8.830138133414666 4.353168209019342 0.4649097018371928 1.2975347211467525 0.33588917410070535
Ni 7.031578614776228 1.266054508010931 5.754721396990942 0.03410748320667029 0.08544778535185929 1.4871147556338518
Ni 4.684220223149274 6.863010187209302 8.901366785294933 2.416217592857187 -0.3381190918724886 0.050538632179500054
Ni 0.7268691068700204 2.9783896242295436 3.1773841179082867 -0.6987718460711192 -0.2973077142830815 0.2105250121698826
Ni 1.284721262948786 8.423107960066343 3.708230895370327 -0.227369337420731 1.571816663958622 -1.1492725715718335
Ni 9.280978417554326 6.944107280570924 12.02142740182327 0.4748519006515693 -0.2947795485445891 -0.12113238323766236
Ni 5.17231957347596 -0.1462315987768812 8.570236605291882 0.36416385267568246 0.26259010829623813 -1.0637445678013422
P 2.510176044242936 7.742422787110615 12.903628848411959 -0.9532403537014874 0.6153215507652628 1.1636247265284476
P 6.762194821807146 7.001047396954142 4.693886736125068 -0.3137434912416016 -0.7724527206950375 0.7631808084748082
P 1.11364036088873 6.043738782304681 10.150178273914117 -0.5468785275015163 0.1380965218958267 0.07175434702516674
P 1.5334376268465932 7.796813207156361 5.916030634364935 -0.15049206734670212 -1.6665769849606589 0.18434321156819222
P 1.3588950932626676 4.4558362917236565 4.667546697975968 -0.005952103818376846 -0.05391629040248133 -0.048829362797877196
P 7.13399451948512 0.8169664421937015 7.954990226328916 -0.5989155986034137 -0.4068166543492026 -1.1399680063414561
P 5.306848624391501 2.002172312653999 4.497656894934878 0.4904667243706907 0.769272780305159 -0.42726849444565124
P 3.559971636622879 1.544529736460713 7.226470330662299 0.8956322162697156 0.152983209199672 0.99808193549621
Ni 3.632256458336369 4.358873387210967 4.616418772586859 -0.7667777817974473 0.17630542886538025 2.0190307482882646
Ni 2.800776288487347 3.5395740659230883 7.807518209589316 -0.5651678127290072 0.22059422348042654 -1.7938255083983878
Ni 2.667661667656827 2.267889753955327 4.433101189199146 0.03680585597443983 -0.8444340961293457 0.2485590841244687
Ni 7.467595299406415 2.471130329527461 3.7343122417012453 -0.3044633514912563 0.11885515716771144 0.27887007640318423
Ni 6.2642782100350765 7.86548750996861 6.8272967581086075 0.26041161258768053 0.40213133305839127 -0.8707951026213778
Ni 8.632601805488047 3.2174934468258534 12.775837881868549 0.22486122628689661 0.4821476629820342 0.1276861251957801
Ni 0.23865622991808857 5.34941180339736 2.5421858998315345 -0.014189918347136853 0.5150708960726161 -0.298838291994995
Ni 5.651057629950462 4.9859311879299755 4.993038699107211 2.59995839495469 1.3358390160435898 -0.4145960411843053
Ni 6.234863647543272 4.721795675013212 12.706977469834587 0.9894384008885992 1.2372364384773271 -0.29597202619079344
Ni 2.860815123412094 3.046356711999283 9.959179032400181 -0.34577506575584965 -0.7878608277199914 0.8731600033091285
Ni 0.875687623828718 1.431598660725013 11.629131495558 -1.774652277904047 0.8195165069520596 -0.9507165588383691
Ni 4.215234289892554 4.539752939794235 11.643608931915086 -1.1848049601504884 -0.6264397721656115 0.6258818427796123
Ni 0.634070396193169 9.020639532760518 0.2670546360593385 0.1183126544006801 -0.06079964778587593 -0.5070174296405203
Ni 5.402601818963053 9.127903582695044 11.120634574531522 -0.2535719639580278 -0.7016633086863012 0.9067326970582513
Ni 9.25548145417959 4.252139748558324 8.448683089314201 0.5780390122647207 -0.30676448882060714 0.21922176861293213
Ni 3.468759507061134 4.152757424163361 0.4493244245288053 1.229795923038882 -0.1560821598399699 -0.3620969428443248
Ni 9.039585451530943 9.066357263074417 6.784736370741075 -0.5459567870181953 -0.1343429683906654 0.162794538863139
Ni 8.246025035606028 6.250273491101142 6.943171151185704 0.42708646034183223 -0.38963191503979994 -0.04973901909634015
Ni 2.5831773864600227 4.483752674980669 2.6644336032062075 -1.5692882411098135 -1.2471477840537684 -1.3864180145427218
Ni 7.391625515103 7.4697448609172055 2.578318074681085 0.1664465337934295 -0.944250234387735 0.31826477615072285
Ni 2.080747626061403 0.4930824247380633 6.175727442343835 -0.43503528287526366 0.4313071832913991 -1.4487970910005759
Ni 6.888767703494439 8.68736444397722 13.468333546034211 1.974280697766084 -0.548455642180649 -0.6883375381116725
Ni 9.029070280504135 7.485145399013991 8.949594198463638 1.117777586287346 -0.10292203087722275 0.21291253856545267
Ni 6.349693037340448 2.742207716414135 0.3621880869225846 -1.7203228112235471 -0.9462978609453832 -0.060231948207864004
P 8.73697185702493 9.051207972426946 11.763106871538943 1.0279121314837654 0.47174883624621333 1.0912651418191142
P 8.370699603231845 3.5228986796575663 6.44093959710821 -1.422564639666608 0.6277680040587318 0.7225262681782395
P 7.973049334657878 1.2458802683771966 0.5914672037046428 -1.4362007423928038 1.3875984080040684 -3.7734219619504303
P 5.984677020793929 3.759108503856232 10.688624821444824 0.44327284029370756 -0.7569091165334835 -0.44885393392591083
P 3.55354156301268 8.299987404441833 2.780077220848381 -0.29011376763780355 -1.5207735813388779 0.1992990615470761
P 2.6138016588929647 2.9413725000307456 12.130233366659693 0.032391528956828085 0.4286126671783715 0.7680399363393224
P 3.7802319005207043 5.562441724031619 7.240811907287534 -0.23186054042286522 -0.32115906697938235 -0.00170978360225512
P 5.951168055424428 4.842050148623334 1.2235229675727641 -1.6451339845955344 0.515784377199873 -0.8838187685745553
Ni 7.175441043160697 4.755360473149225 2.820527129641683 -1.5569356330817314 2.2034176686101987 1.8908185753856857
Ni 5.185952073966467 3.1900795584674673 6.429171911019271 -0.9981012187699198 -0.9776002706030905 -0.5232855706729246
Ni 2.791749991234246 0.766187471595305 12.569379477852992 0.5494385749192086 -1.2153213835717909 0.7083965136450767
Ni 0.8835125860556586 2.5815396253089444 6.404003430420857 1.1088874828865676 -0.26560446964252965 -0.3547965525281696
Ni 8.20898930048506 0.6067691039139198 9.780000518103373 1.7863106880785817 -0.3491853769889793 -0.4689458195797795
Ni 7.749913683284579 5.152833937962565 10.467226499656219 0.27148509679302274 1.4695692905509206 0.19509350810616077
Ni 1.4771395872782853 5.307220842834928 6.758600122189752 0.003813974429451496 0.9342761538941586 -0.8675537128659445
Ni 5.484145574456785 7.673925288058992 1.471966681460761 -1.6273578915590359 0.44329418044994623 0.4549693027950294
Ni 4.24118722086049 7.104626484298743 5.063900715820702 0.8043410847632019 0.13947334763869526 0.13119028169429664
Ni 4.576667703921091 0.2652214602254614 5.592717972219957 -0.1733725714893014 0.44763086015208714 0.4736008018532876
Ni 1.4752598841389801 8.433437021871438 10.625892986081883 -1.8532781552380662 -0.01063948199171716 2.1082822236569307
Ni 4.888307595680203 3.6594470156286985 8.775958947335566 0.15887849163818443 0.5308649256820793 1.0309244359475278
Ni 4.851392831553348 0.25166712560807336 13.659387689768552 -0.24993616697765345 -0.20760269631676503 0.3209855175159956
Ni 1.7736115774677548 2.6087487935234455 0.7354180339694261 -1.0236122185568308 -0.3957210586566733 -1.3829259422290634
Ni 6.009252743521185 1.6343739632428635 9.756016622701168 -0.009759650489925128 1.280296245781279 0.18269976242749825
Ni 8.824731660523891 0.9798650523211275 2.2927036964863765 3.7474142250327587 -1.1400325410308043 2.7360998500066747
Ni 3.672670075831437 0.9616821813597268 9.889610474777598 -1.024428800920855 -0.9875211292612283 0.13519786019179297
Ni 3.9044784169365805 7.077017181257558 11.426064932108165 0.7785729746601623 -0.0560248521050519 -0.9632195764013864
Ni 2.1965447838114893 6.653907171153196 1.5138328814313022 -0.17405519937862282 0.8544606271274123 -0.6624257033419172
Ni 4.77039809826367 2.0568605074544863 12.057001249007682 0.2743521339281727 1.0153494643274061 -0.5473043021850251
Ni 1.0261597212223394 4.053086630474742 11.016227301150296 -1.3039236553922318 -0.4767331768346822 -0.5761842184441689
Ni 7.975608336456437 6.01132786134329 0.3253980159742768 0.019689250898811253 0.057834908730597163 0.8532928320715562
Ni 4.843204025797957 3.4136711774339634 2.7656807420027394 0.6068027146609744 -0.22528057321250236 -0.5107864097646493
Ni 1.9578597069640353 5.5357350507157435 12.562148204043316 0.26205891838311646 0.9258272517958571 0.36203343659624104
P 0.7725114629491266 2.1697729722680146 9.45520363491523 0.10536123644633466 0.47375249693980354 -0.5342649525025637
P 0.5051162470140527 1.0472924233478975 4.350225822224054 0.29014924886142934 0.7967437320319182 0.9883796206067816
P 6.086795150748078 7.038073826614026 12.22566459227768 -0.7772897370723646 -0.8289532268849273 0.8615854110976516
P 3.1106667535623536 7.994535644304691 9.589559604254578 1.4651763036895478 1.0489332138201226 -1.340976080159839
P -0.02832024026813029 7.4528740599688845 1.6700483094069998 0.9836745018216283 -0.10233581935644957 -0.2142916783011664
P 7.056787108857311 6.635845271185909 8.823191606714213 -0.1532637165545683 -0.11276652777147031 -0.19507962414908986
P 0.7811404170138692 4.450169265922483 0.5174385385836978 -0.9513701332619678 1.2379231801317068 0.24407842264529578
P 3.9296589946344054 2.0044335396978172 0.7751886441034741 0.0845566409961576 0.008265068222269635 0.8570199032141562
