# total energy = -340858.541576417 ev
CRYSTAL
PRIMVEC
9.37596435202332 0.00000000000000 0.00000000000000

0.00000000000000 9.37596435202332 0.00000000000000

0.00000000000000 0.00000000000000 13.72267156618161

PRIMCOORD
 96 1
Ni 3.8228807263200912 7.097848843660035 4.246439919151436 1.7531354868781936 0.8941749149978988 0.32768272703051304
Ni 1.5839848056695147 3.356473376073378 5.7954683166608385 -0.34126123704589617 0.20768085785286813 -0.5260957864282101
Ni 3.0798449217226085 8.93965391904679 3.0122357798612347 -1.322654913253148 0.7112247271224913 0.6989443670932415
Ni 8.137399523150519 3.918103021005097 8.987882942444802 -0.08798057907604202 -0.915907421578984 -0.9756038089983521
Ni 4.009940592533222 5.924053105553964 9.065663130512782 -0.31762534279451105 -0.315981636543501 0.4232814847734452
Ni 1.9046240370241654 2.6792287138355526 12.997689458686768 1.037965144844393 -0.8350246298899877 2.2704491562383997
Ni 3.2963265642966633 7.015049701836159 12.334006191391085 -0.13470086595071643 -0.10190978756262449 0.8959044960944957
Ni 3.907526933135396 4.252562423919978 5.680033317871663 -1.0547891583802673 0.37262175363504857 -0.7152032521542651
Ni 2.5413926608457666 3.947852956120844 10.363046268474255 2.0206538857139846 -1.0442041837755693 -2.3429234121487266
Ni 0.792200549244959 7.661906863377439 6.449628416891579 -0.3119336917263725 -0.8857044156330424 0.6275926548231321
Ni 3.704256024434044 1.5995864104702089 0.2379554138931835 1.799894083189971 1.5413730027567842 1.2086825380990347
Ni 8.260655951461771 8.82101984119632 7.804769370894661 0.6417794878464753 -0.3032305075254197 -0.5351231867378009
Ni 5.6700394773926615 7.416791025454034 12.096782102722932 0.8107359325459522 0.6398524460270916 0.6204048788254413
Ni 5.520539724660049 5.404830947709708 11.143509047857442 0.4478319204192997 1.3050104606985073 -0.6207527490831631
Ni 6.436908983554666 0.6638257819549201 1.7479526091040214 -0.22885440660668976 0.32209906229514845 -1.4707000617212542
Ni 3.572805003216657 1.5224597271225464 7.369610234878569 0.9246296319433301 0.44370941361049393 0.09641225478316298
Ni 6.188961604375366 7.357684945728327 6.312209594318638 0.1523867132662537 1.3632058380923169 2.3144715845659363
Ni 1.0092100586160566 7.819741848482539 1.514832380064034 0.40034724457477505 -0.6482496689518513 -1.474700441129899
Ni 7.587414826032779 5.763602226374709 7.635486333228476 0.35160452795343317 0.28509857381139936 -1.7176272666692545
Ni 3.9253787693977285 3.590075529684733 8.142649125631232 0.33538523788109337 1.3152822749381605 1.1728441882441865
Ni 6.0992617527357975 1.9805505969256207 12.208759245832722 -0.9203623720265439 -1.0949269069414176 -0.18546009878145478
Ni 2.333996327798077 4.72333897358804 12.382378667044774 -0.9082784442788164 2.124378100777528 0.3606779510096111
Ni 1.9368867306054087 9.42706342960213 7.457201432119293 -2.2054578389686794 -0.2682437070375896 0.43192810470484966
Ni 8.72375358626699 5.884186504825267 4.195555622628691 -0.9253868218243289 -1.2546430639895487 0.58278424025919
P 9.476287242825475 6.290390787508724 8.94726438936934 0.15158941417593894 0.24674619928544606 0.029136512354640143
P 7.956546545385741 5.7506165156481694 12.033616230401853 -0.20577052820403272 0.16134083713574796 0.8040544067607185
P 5.410662797581121 1.9301735400781868 6.167270310681612 -2.954773202315305 -0.13418073178118828 0.4180171510507123
P 5.6904322000137615 2.946087413257042 0.49033574905191263 -3.8243197772415622 -1.7738570356962609 -2.0985529121843083
P 1.6015741149279896 6.032598645684754 0.15495187604487504 0.267436637755262 0.25367172276068567 0.7505680048068042
P 3.7022214401541462 5.151764291955178 3.4948766749107856 -0.1396882918629788 -1.160092545005473 0.4037310734453434
P 5.055126226642225 6.674795952907559 0.36673709803920185 -0.22521706696441857 -0.2526574225635584 -0.11300204082104409
P 3.672602768540328 7.781328522239483 10.297382639230758 1.312115961395037 0.7971036864744981 0.6073724711215153
Ni 4.515576977927834 0.08107771475572277 12.351845838899665 0.15440682902007602 -1.4726497292484573 1.3094978070458998
Ni 6.175488343498804 3.850858604159798 6.409668056518647 0.8747674570055644 1.1724127571337228 0.17759175177697156
Ni 1.1280785355771148 3.6510005465085977 8.084725355019328 0.3121388657586431 0.16019438223613058 1.1887400335388365
Ni 3.2948357859533277 2.5445429848920607 4.008955178672313 0.13684388043564819 2.4242317214109153 -2.4186760817000086
Ni 1.764547128537164 5.330207646863118 2.3595720835524845 -0.7847235676425904 0.40129880985476696 0.21830902699067561
Ni 1.1007007194605118 9.244307131059383 10.056687568533029 0.39857678293791354 0.13868247630628375 0.3122532798493203
Ni 0.6015318743252255 7.7406462126059425 3.7150702618001024 4.538635741694867 -1.6352563204705062 0.6800027929937321
Ni 8.201549871736065 0.8474568579783789 11.153457883707212 0.7796934614178508 1.2783437500405983 0.15684217793444602
Ni 0.4053060652916871 4.447235573244986 10.590073995831856 -1.0959571479781447 0.38626428411914765 0.6006019851669011
Ni 2.5056796123566776 9.0586630354742 13.641460990336277 -1.2080965836885775 -1.3190445701940703 -0.9619417381302272
Ni 4.679843874627451 9.284004964428457 6.047581436833498 -0.7096419560164037 -0.9012163952257124 -2.660519444367199
Ni 8.290902812691963 8.452010009380862 2.7444657366977823 -3.122080798557449 -0.8819200088899457 -2.9502658013632543
Ni 4.619134504985327 8.915707705909186 1.161747623821882 -0.5201596234494332 -1.4188105719408146 -0.8245777235250508
Ni 8.738605113913806 4.858427869001742 0.3254575394718844 1.5077121201692292 0.6136655032190786 0.15896128115997785
Ni 1.7687756884921597 6.0408776222707 4.8772707447036385 0.1151658812415823 -1.7150067983272723 0.34947385476367554
Ni 1.823756343871529 5.918652550046031 7.747120316040365 1.4670622078583508 0.04177117039951515 0.7970370949026209
Ni 3.256797498287212 4.076603699584265 0.8009014442299615 0.17085726126661543 0.19817446102432967 0.5037660125827582
Ni 6.476850591998751 4.754214024434606 13.642449216986513 -0.5223522602253778 2.087817785154991 -1.009996427545609
Ni 3.4846240578136953 6.923080866806105 2.001740276522717 0.07803323805534303 -0.9921637702395624 -2.323090179472883
Ni 7.308639275829029 2.9927515881927715 1.6089558117186062 1.759865349402859 0.39495049903923596 3.840972812417211
Ni 6.042574671831352 7.033173441066773 2.33746543463477 0.36973646166745355 0.38466865749725365 0.5903772221150994
Ni 3.34201563893235 1.7317687569126285 11.344464093346192 -0.03444995414775357 0.7332179435641308 1.4346621942610904
Ni 2.3419471456292 1.2095275385240079 5.287523568825161 -1.0073286509054586 -2.333414444217026 1.100984168879091
Ni 5.178270143380397 0.5549530206657493 10.29207209298129 -1.5654159026386008 -1.2787145031164557 -0.77319371262612
P 2.761071507288233 1.7273433017047393 9.440086644186364 -1.080479621167836 -0.031048898886004594 -2.4952031675234707
P 6.7300953910773265 9.059638135774243 13.270688477209204 -0.6258018814712965 1.02802603135381 -0.19188065759581793
P 6.444419131057885 8.375352124254375 4.432231217378068 -0.6227052448238437 -0.2958221308764905 -0.7657871357494037
P 8.451813114127969 6.2984353649840825 2.0432373574646596 0.14027090383932617 -0.10916981155914746 -0.002391125939995882
P 4.393839455853187 1.1768523025081308 2.677897326887417 -0.7804905033978493 -0.5089303303925171 -1.8055831631549486
P 5.3399774017923995 3.591538180134798 10.212549850723425 -0.046578361980171394 -1.5778438439893083 -0.9128336677496666
P 0.3024873642307662 1.8284724539765465 6.9276854029344825 1.328599303762041 0.07078401269209744 -5.7201597171012395
P 0.35282691722050596 5.0891422255706615 6.481958617416671 -1.2509946686036844 0.08445019732528036 -1.3520436508279103
Ni 7.596931429922625 6.0503660982672764 9.900537444234832 -0.27274853688647865 0.5106894791754689 1.3419726397451532
Ni 8.494998806262583 3.117864457459877 4.9270289878991225 0.16274645923402292 0.11271304882571555 0.40111137643430916
Ni 9.269219068532607 1.7248867990257837 8.735221328353367 -1.4314017783422637 -1.0731172672654938 5.313270814753204
Ni 8.469533686888374 8.328322286706129 5.105904574766985 -2.22091531117433 1.112841582438309 1.7256182552945312
Ni 5.649459235483093 2.0186263884494298 4.040887838305849 0.3334548536275999 2.070342254078047 0.8613959207946649
Ni 3.9571070330068325 8.547869869646666 8.279257864877984 -0.44778924010682236 0.36600167721536964 0.8466930673668516
Ni 8.057028756112327 2.3451818533553057 13.413060621787075 1.5479414000029212 0.060021374858954694 -1.6777314589155816
Ni 8.335241748450668 7.528899432065753 0.09170537042975332 -0.09043392571254102 -2.3769270227876804 3.390397267814503
Ni 5.80484709387366 5.778669401203264 4.872591200859873 -0.049569069177379146 -1.1963217025408366 -1.930682758570475
Ni 9.181038123129646 0.2968711615410933 13.671431260615975 0.8784050537581517 0.3660818956340018 -1.0840228584344043
Ni 9.245357239074815 3.8599626656150106 2.778635501442764 -0.49870273912723784 0.35818860892885407 -0.10208822212201774
Ni 5.3007483666445 4.227472343122709 2.2189288668143035 -0.1397875364450044 0.7187948261602652 1.3574951608607846
Ni 0.548952403434713 0.7019071990573837 3.594393161301752 0.09709025468679407 0.933618979926134 0.6594967026205804
Ni 8.105127453604851 8.028694591624529 11.802032721930876 -0.4268082669797811 -0.650874251058892 -3.5545233810048718
Ni 7.346499420171098 1.8245439248831024 6.570470534363782 3.6989484162218877 -0.859608489876939 0.8893654094243973
Ni 6.710555881218765 1.8845876010511584 9.442556273215512 1.3063973137437048 2.6223876704924836 -0.2776590868142186
Ni 1.7466015326305961 0.9890704870343913 1.6366758505366665 -0.3093350777612608 1.380733305453119 -0.5249004805685282
Ni 5.7531667779713604 7.609879636791471 9.470592282034643 -0.5366835892463854 -2.1443586576645135 -0.02010114162524925
Ni 7.411184198728783 3.744525791632951 11.322699667129934 0.31191569400424346 -0.1251636158842425 0.054524613410441576
Ni 3.436253457352889 7.288452824425247 6.452112109867362 -0.0673346206909163 -1.079757912510463 1.2745133205509147
Ni 5.954759389040907 0.404151884071155 7.803973351515107 0.15892837103951338 -0.6917997856286602 0.6472842197147884
Ni 4.453939387807784 3.7861081938511476 12.268425070634512 -0.3767871978666478 -1.3419682688697792 0.8401822628315272
Ni 1.9655771817413004 6.54927054120582 10.245909532142218 -1.3734861369724023 -0.3870965502124559 0.15908803654582923
Ni 7.483322869003148 0.9223548745825768 3.7360658589336326 1.3897537637841744 0.4338512898694915 2.548727621804172
P 6.968807445299486 4.215583620233718 3.8014407084728874 0.5238108470487752 -0.29101365374425364 -0.1109490149467573
P 1.7693663742508396 3.1213523162254164 2.215662280809158 0.6799169181481451 -0.7557132964531694 0.026113409257600192
P 0.3750217002038012 2.384607783756098 11.846713880391038 -3.34611155852325 0.029323945775097882 -2.14484433905168
P 4.90358251366529 5.4952433726454615 7.2157103420420095 0.8671523636624677 0.6427757903214737 -0.9895260755063989
P 2.1727953714649435 8.43813358203409 4.994324972548751 0.3066547027156203 0.3917713299803059 0.570753791457217
P 0.9103330129987727 8.313020712766987 12.21951722741224 0.5124825665201496 0.2964782764032507 -0.7201605961595404
P 8.569565851322633 1.0507830848698294 1.803035462495607 1.1506324280338376 1.5852280522685216 0.7920039033540877
P 7.1261267523612934 9.02726293061992 9.601917665328756 2.208116873858081 1.858174306988103 0.916055517121074
