# total energy = -381162.048672768 ev
CRYSTAL
PRIMVEC
9.27857334625304 0.00000000000000 0.00000000000000

0.00000000000000 9.27857334625304 0.00000000000000

0.00000000000000 0.00000000000000 13.58012998481640

PRIMCOORD
 96 1
Ni 8.198871908114949 0.6122113849538713 2.6695410393944607 -0.19864008780683853 0.22481648909189023 0.9525626109081723
Ni 0.4785804478499061 3.2877974146985753 10.91857384134279 -1.7462744980923024 -1.0688440938114365 -0.9204960693909309
Ni 3.9820480869567865 5.744503761612641 7.892512910593406 0.4495792421277096 1.2232177556007322 0.25140709509622505
Ni 2.670401163117358 4.3403494643397185 9.106780282284202 -3.581420462506032 -0.4052948183880375 -0.060897606816320934
Ni 5.951981933864033 0.7129200891173425 1.7887743471477413 0.1428628329362185 0.06533404532111974 -1.5399295854420383
Ni 2.949083105050659 5.804062922101068 10.85280453190361 1.654512854707273 1.2313810081378147 -0.665338506113338
Ni 9.004493292842794 2.5101138134620298 0.8713461570163256 -1.3740108991276208 0.22945450208453386 0.6835005217343455
Ni 7.5897707008516395 4.8910698898935445 10.540964681274026 0.7996843027174808 -0.8153333221086473 1.133225802521616
Ni 1.991571479289083 0.6355562747792145 6.885302463936962 1.2269098597403387 0.5037045632172035 0.9782834127130442
Ni 3.21832873817936 3.577910558644922 3.397055396081868 -0.1250736272735975 0.552886424258493 1.1539630350689674
Ni 3.4719399756976856 3.450432243338725 1.24066583991102 -0.6052996477528866 0.5016685066237812 -2.4797215269481034
Ni 1.1561380393113072 8.2149331180862 12.586064248560886 0.484430802589256 -1.590453819443835 -1.6372131870865612
Ni 6.132023365569503 7.78762699283718 7.754498775574699 1.3383738666503013 0.1501681083483801 0.6863408193966178
Ni 2.377309597217937 7.810248153963646 0.7622366328020334 0.7429135735853398 1.2623298911108454 2.4483718089922286
Ni 0.8624229533020836 1.0831713407475156 4.740157610460603 -0.6475341309420655 0.8694884679948123 0.07496205532918704
Ni 6.064521746539545 0.8232952106973648 11.528172380122252 0.9279478976832858 0.8803320955775356 -0.21739140027241272
Ni 1.6739752019315013 4.734957898116357 4.840175060930915 -0.645947760291552 -1.4948098102852643 0.22939562382214043
Ni 3.353749512027089 6.108465068563721 2.1784836943473613 1.0558291696090074 -0.6217444235724712 0.6769310960469438
Ni 7.795699351401588 0.7066384951540049 13.72665882227783 -1.6737786449154208 -1.8018576346742452 -0.16959587805568854
Ni 0.7458942820669867 5.739688182193185 11.714858197997804 -0.4524941017816594 0.4669838107574022 -0.32228598149497395
Ni 4.417844106558028 2.2295668783431593 11.97687303913887 -0.9384261715067902 2.128705781618605 0.4057169935271206
Ni 5.917827506420834 1.7504863154051822 3.7874439348296653 -0.7443482491493374 1.2223330390029337 0.48823449260606244
Ni 6.587434288624947 2.54887969171731 0.32381663273870637 -1.0810784310940995 1.5487003896561329 -1.0820868177539558
Ni 1.5382203994535215 1.4707744518619394 2.471026896578786 0.8835966252614201 0.1281764345686373 3.0098338907348743
P 5.981330060460838 0.16476982830183964 9.09643281760486 -0.8479976451108879 1.259472109947076 -0.1758284892289617
Ni 7.685776096329711 1.1184206398120942 5.3402094254160195 0.22628433188666833 -0.18081720069280474 -0.7055001659338882
P 2.4517701460447965 2.0192030698693184 8.966769398342436 -1.1742248706417973 0.89512519472631 -1.1558170575585707
Ni 8.96272115691525 0.6801741490650366 7.624890099893343 -0.5351707521462847 0.06409400226643155 -0.6312924722722225
P 4.467614372465476 7.4223945213765345 4.129541212216182 -0.23733930414924928 -0.3527916062829989 -1.3614258633737584
P 1.5469422581323065 4.096991050055496 13.507870069463205 -0.9033699512336054 -0.07474119756763258 -0.2629981423679341
P 7.991848385943621 8.318593336340864 5.923258255234337 -0.8184309871973648 -0.5933705004154683 0.4779138274063446
Ni 1.2192137789904343 3.9436255159048206 2.1034534411344614 -0.1685440397524065 1.2645256132105835 0.41326446685707535
Ni 3.193907533878762 1.812058926248178 4.785216216966895 0.7135742011912742 -0.79750734967082 0.5891225237723918
Ni 5.588568062723644 8.387997062848642 12.775384253328891 2.179912643509723 -0.7286766040503515 -0.5063993364405472
Ni 8.408771787935663 7.505150114521301 3.723957154363868 -0.20602506741700002 2.1401962987567074 -1.0246895107814096
Ni 2.2439672237362167 2.98620667587387 6.664272007870429 -0.08336750578406288 0.7164016433377404 0.4899609883788658
Ni 8.908163147307533 3.0597115316752888 6.074812611923205 0.39950263718629264 0.5461555332925625 -0.2639337668083261
Ni 8.48201684369133 7.794957065556585 9.030636600303797 0.545336636935693 1.8830209337181378 -3.6399094598808603
Ni 0.4502511085753679 3.186178482517669 8.474027992284487 1.2612988787431696 -0.9759084847229644 -0.004843187024914239
Ni 0.9478433526304124 0.539077672074954 9.895052591099715 1.576027616716176 0.27820184669156606 -1.3253607422200853
Ni 7.1750463206754205 4.875639622890544 4.717126336404774 2.515607442211435 0.13300239520237092 0.36771454614141835
Ni 4.151511945370964 8.71289557720644 2.3165256650852566 -0.08116304193357635 -0.6938769798726631 -0.5444593765370622
Ni 5.180505698006326 6.3939389259788 11.660945049217933 0.2613904315611821 -0.7476091792887964 0.8603260847692539
Ni 1.0969221860261957 5.333546482099812 7.246778041164588 0.9449272058501016 0.3023180230134793 -1.1702082932832363
Ni 3.8701856101148393 8.22604884861512 7.63013156581637 0.3738625680206852 1.401685996445386 0.24809474289354044
Ni 6.26773177518217 1.0957623643933785 7.126770832888346 1.8049499004463236 -0.7809844123151324 1.0590559040764211
Ni 2.1578806228619976 0.8865175518308798 12.091014333524976 0.7695550874322683 0.44902619783771697 -1.9332628605928253
Ni 4.089939334527968 0.48332829368600627 -0.15011617786417483 -1.53536227778633 0.8452049128570992 1.8547467693637927
Ni 6.6445531843979255 5.179290204935133 0.3027598390305848 1.2113323170170558 0.6311027248589196 0.5423497863932272
Ni 1.6342350735046551 7.461410921104502 10.057131633213418 -1.5242648823215879 0.8690881472326001 -1.2389809319722598
Ni 1.380892914605143 6.402048398835457 3.371796336633723 0.07809083076615583 0.3788332817623992 -0.469960633997539
Ni 4.58740075070283 3.503830431313626 8.89335547255703 0.72934946174766 0.9908987874842096 -0.7654989150850237
Ni 5.663724504530194 2.960449357052267 5.870282242333782 -0.028024253127067862 -0.8645005278619177 0.9743830492173735
Ni 8.566470415706542 5.413212310414755 2.7574592305912247 0.7282834823769908 -1.1792344080412465 -0.41784257314606105
Ni 8.013328282583394 0.9954981038796028 10.076591584497477 -0.6248243480493755 -0.2576181090029434 -3.316977360161455
Ni 7.808707910835265 5.9879735187736145 7.412211287440399 0.2781781925424822 0.13102084599596792 -0.3757389591077916
P 8.51799915002785 7.096809392612108 10.797493102163214 0.8535388866440913 -2.4156869171646975 2.487450005940613
Ni 0.067946990536959 6.15578579118266 0.42613795290044654 1.5728132235439367 -1.1766653617624898 2.3283971935080934
P 7.643196724545729 2.407409288232807 11.7074835881277 0.44637204804432157 0.9024772642160069 0.76454015071618
Ni 6.225180239117375 2.3016149981737595 9.551013308371209 0.5957456855158644 -0.17988054781114826 0.7687935266758953
P 0.28017022505253203 3.0455245934626696 3.861306015693992 -0.670728823890974 0.23238993056377394 0.5313984295880461
P 3.482285584662415 7.7216748955086665 12.314719802205438 -0.2524782166732168 1.0302117261512194 -0.5929552672549206
P 1.92386573165175 7.523595917769626 7.566155804550177 -1.3393413727698933 -0.6277911439871833 1.834926392203756
Ni 9.159000091480161 6.157428098614729 5.257438058697046 0.0077945563437543195 -1.072825704167004 1.725947613609492
Ni 5.770094066119119 6.85284787107882 5.686557217122485 0.609599560679821 -0.6426593193482674 -0.36081499080810764
Ni 4.1833003366832155 1.5688489691329566 7.540421682161231 -1.5746330503614947 -0.14409850511553246 -0.3901659331663991
Ni 0.5059847133901093 9.407452442375716 1.0406634139761146 -0.12221764588204113 -1.62256329838387 -1.7171770665057133
Ni 6.32339393498433 8.713563634466944 3.9302114828283106 1.3491832985609797 -0.9319310507007498 -1.0696581050722997
Ni 6.53185563598035 8.011880825185639 10.51081674167923 0.2289587933950379 -0.8120114568242661 0.461179031150167
Ni 8.229556149232758 7.601647274371688 12.886782801517711 -1.454339875195676 0.8797595109035172 -3.629651015377646
Ni 2.9083223335869333 7.059351793158646 5.73225418945548 0.3702424547695946 -1.0658945242648095 -0.9525194163750628
Ni 2.484866816158867 3.8598214440039857 11.579695368481215 1.346980634482706 -2.109133001693 1.36715916631311
Ni 3.945072973302576 7.7390629414278616 9.995654591672965 1.059377291971582 0.627474641188029 0.25976086637755913
Ni 5.839553464065271 5.8298016837765445 9.518570777658047 -0.6210934202520336 -0.1928569054661582 -1.5676756452070548
Ni 0.913647171608432 8.317247943246796 5.798457736113988 -1.4660738758031526 -1.052529415811813 -0.21872297459964268
Ni 3.7621087910824076 4.892619411594987 5.841343300809036 0.4582150634258367 -1.448325807791112 -0.23383154810630694
Ni 7.413886069878187 3.325579764209226 2.3914881847147997 1.4940384793368784 -0.5358376963063224 1.2894452592703987
Ni 5.423446576502733 4.196577974735706 2.1360323668716417 -0.42863066490050056 0.5794749733802987 -3.099620412671404
Ni 4.858075284083163 -0.03156663341605739 5.459170938508114 -1.6983943865815718 0.9422537727829966 1.5295533844140368
Ni 4.618697377642768 4.572981848163648 13.100234519106765 0.30101781614481704 -1.0099252079880414 0.18698733405925863
Ni 2.727956151824275 8.785843718624106 4.058843124766181 -1.1799538027057743 0.5676142173869709 0.8480601229177073
Ni 9.015339944752899 0.5380598126099937 11.859608577059914 0.9052972501633054 0.4083824561744257 1.9591842084442772
Ni 8.681663900277941 4.217723842745229 12.867362748097822 -1.2100699053648643 -0.955780860735154 -0.06882637474509437
Ni 2.7525258132938735 5.904206561165029 13.244157249451696 -0.24297901893352988 -0.8808553150708572 0.7747340605300463
Ni 5.230804842578339 4.332852377305189 4.17174758536305 -1.7808594351560232 0.5202575824798782 0.8186531305104998
Ni 1.748983186569051 1.9519334151659247 0.38636442161057505 2.7672472221437565 0.7199009147402505 -2.1997754438719213
Ni 3.974189135572818 1.0406198046827206 10.031383592964877 0.343180565555796 -0.99127931075208 0.0455360367585861
Ni 7.535685898470112 3.69884747994203 8.208550387676482 -0.8842275739771998 0.35022101734234523 -0.7248037513585066
P 6.126242814551542 4.882116066888196 6.640003900025364 -0.5774278610432829 -0.12169288372682267 1.0269929621036056
Ni 5.197364865260955 7.109019994762407 0.8741668432273368 -0.17516488750303383 -1.2833278335187512 0.534739321035821
P 7.575240455435707 7.827283614106464 1.1476147420960607 -1.9908879673054616 0.18375211495141258 3.5325867288327806
Ni 0.30318572553415524 5.445381123222571 9.306937660389252 -0.6423237903857196 0.20200694739654243 0.8160100364606979
P 3.810106849534912 1.621551264128167 2.187242667318396 0.6667816663177678 -0.8735299850540374 0.5902898046076157
P 4.946926899730017 4.217306306957414 10.989652350288356 0.03474074591529501 0.13542334593903774 -0.7841196155100044
P 1.0037374767591358 8.368400716540563 2.811100517180364 -0.0435431746982734 1.1340701527997823 0.08898768018431771
Ni 6.496968201265211 6.346794496248049 2.7115581296508537 -0.7774254913192805 0.3883306797298732 0.37522910935090864
