# total energy = -340860.7679703475 ev
CRYSTAL
PRIMVEC
9.36043494637824 0.00000000000000 0.00000000000000

0.00000000000000 9.36043494637824 0.00000000000000

0.00000000000000 0.00000000000000 13.69994271129014

PRIMCOORD
 96 1
Ni 3.796049392869716 3.822539422957404 10.940116589870932 1.5907443541010604 1.7091043167999083 -2.526956805785984
Ni 7.886915035789548 5.399239118385136 2.483032205769605 0.9338215828552433 -0.39761981834128296 -0.2768746432397103
Ni 7.7694603016763635 9.408453689766134 4.542270732309498 -1.6550229615744723 -0.8689765613554001 -0.8686112075961814
Ni 7.806527622929806 9.145575242775802 1.5719586352724624 0.999173625898492 1.4850185352264555 -0.2097642227444581
Ni 4.557848367670604 7.550763106281046 11.208388519312333 -0.5554341303810112 -0.5059146834946447 -1.0919706525265709
Ni 2.7684608758992484 3.105801580609566 0.3286682619978643 -2.0307233541348446 -0.7995243801008489 2.2651069180898795
Ni 3.419048526505145 0.37350661610600727 13.48864843717361 -1.38012755354832 1.6005374289320822 -1.8054294111859037
Ni 2.271487318497963 7.6946704287432794 6.046483221730496 -2.7991438137420372 -1.0621273439128933 2.0694318264486355
Ni 3.1811437191875878 5.348514922962811 1.6345537339305505 -1.6914012430931904 -0.2500343831184146 -3.3819054282934076
Ni 7.459087009221392 3.4236913020964854 6.917772136792408 -0.5745559388121265 -1.8257318701886813 -0.7528940818368195
Ni 2.185727016143405 2.7955312529358536 11.894933343621004 -1.3754198636600055 -1.0776856033624667 -0.05536150748944014
Ni 4.109970290060812 6.873956878192598 7.191264380643669 -0.7475407879447061 -2.4630476658368483 -0.04323438520860296
Ni 1.8600962151926979 4.024481440311392 9.620866289330753 -0.21430890469234706 1.1527679863196019 -0.9492620857800297
Ni 9.04407068932319 4.8431544161062 0.07185818479758505 -0.809018435634213 0.6765590574195058 2.4024477927666044
Ni 6.200408081365819 9.171747018085052 10.401790504228874 -0.09645673486785324 0.027238524000978894 0.21875254228599744
Ni 2.249752389217535 8.33703961771773 1.8238591644935926 -0.6782068774355738 1.2518742429951604 -0.9744370423837605
Ni 0.5351603866400597 6.426846356224924 8.076307518394927 -0.41439343825519603 0.5441477588339145 -0.49869759692091536
Ni 5.662763435367005 5.430811864493184 11.46564602528936 -1.2975763730179655 -1.478891339282795 -0.9306928074182744
Ni 9.498126653808555 1.275827244152621 5.375418684262469 -0.8538103951379231 -0.6946210571275391 0.4723957258015929
Ni 5.491373876743128 5.468553137042144 1.8655346277301348 0.5543246993669163 -0.7784253933387045 -1.6712299103516381
Ni 3.6843138843337666 7.468166630841553 0.04418125159501373 1.3807471894101897 -0.6681821462097203 0.03181148808364199
Ni 2.022967778276011 6.634900737411867 3.4778676258214047 -1.1597390183207963 -0.3144045218643682 0.3601117940934959
Ni -0.030951213246625506 2.3501524113802716 12.58079392015603 -0.5420515384265181 -0.6181554206696321 0.35542030215509757
Ni 1.3582833130722132 7.9837861740854805 9.455440263628736 1.629573925373748 1.9494538685303908 -0.3959609425816213
P 6.39210042276715 3.982846226943888 3.1627139593855915 -1.2358413579020133 -0.7006628924462449 -0.7025433972984094
P 0.8591896172204475 5.371382464837094 2.199361425269103 -0.7867351987559804 -0.452703132468672 -0.8978029986687893
P 3.873488268811569 3.0496202517804827 4.636690372767985 -0.02127125067395046 -0.15646294021815635 1.081289261553325
P 2.5396169693325326 5.46252501712113 7.891961246114733 -2.410097596002378 -0.16061321494110403 -0.5987533619939366
P 7.5095584729079 6.068322987879115 10.146711171397222 1.5130011364823104 -0.5362503583637087 -1.0039371087254065
P 8.949998320990586 7.86522690868242 13.463714111326409 0.05560987605482035 -1.1061852534640564 0.20067408751773183
P 8.789270297444403 1.9761281632375685 1.1222047265568147 0.8319848146223994 -1.0117476059087607 0.7875049870424695
P 5.710174036919706 8.52238558441961 12.572094332183061 0.7557552054346983 1.7399745240162032 2.3448507110784265
Ni 6.60092235959621 1.4266332069592451 8.628538529724358 0.24860150732662994 0.9267790741861651 -0.0804647303149711
Ni 0.5954453300240696 1.6625442416942304 7.545612995131135 0.22363198186548583 0.3608489293698366 0.8599077662849125
Ni 2.7626667668447324 3.121592633880919 6.750852185718661 0.19667190833687417 -0.30887870695013253 -0.15567258310637705
Ni 8.852134976620698 7.886952477528188 10.704518193653588 -1.0263632989394065 2.03356082358364 0.2845367877706584
Ni 8.945720602350983 7.347051966776324 2.8642883257305938 0.8991839381767159 1.1004375523470016 0.5176096033340699
Ni 4.654251484233537 9.077749533229728 6.990532667491213 1.632656935174446 1.17840599860268 0.9525731524311335
Ni 0.019424774006350103 6.3376320534808395 5.258914970310736 -0.6567384231491528 0.4716652753934716 -0.09679920580893651
Ni 5.525249289777526 4.680011400417748 6.0734581223335695 -1.021993452006485 1.0333073343574075 0.3868252988289403
Ni 5.968185057886857 1.4424148997959387 -0.07828318714818194 -0.35608596076355453 -0.22619125795222983 -0.611279005264773
Ni 7.188149227988834 6.977136949449344 11.943842550762762 0.47561294718730995 1.5992755315005232 3.686166691076187
Ni 4.5690808892625565 3.583380317395412 12.952815971324965 2.6353956527163773 1.3429612289106678 1.8908723114417565
Ni 8.68832737007139 0.47710977900938245 9.299617107844373 0.6799493140479773 0.230116561148565 0.5091717569793618
Ni 6.390546590613597 7.494010790937705 1.1264459395012427 0.25873885287094794 -1.9378653923618432 -1.7468234286172364
Ni 4.260804334171416 4.449922556041259 8.393146063069533 1.0990861805254297 -1.0828386083183157 0.32443053864180255
Ni 4.099112185855258 1.723611717415813 9.511636569153277 2.2243497907771754 2.4346336334705296 1.19731234858888
Ni 1.1398950120206741 3.0620228277049306 2.3450874801857666 -0.4045363429554582 0.23546831237878157 -0.3502133040328614
Ni 2.7983113020298624 8.713329091048145 4.146876611838104 0.19762193095496935 2.2450345728200367 -0.6700605941793557
Ni 6.09804236792449 7.342549597704883 5.984765195800046 1.0318947702805972 0.6990508107641187 1.3162125000619138
Ni 0.503781401529474 0.5223964979377375 2.8443131581662384 0.07608794140351412 0.12132573019539104 0.6164592639141319
Ni 5.159209492399769 2.408879778436864 7.091240647954263 -0.9768258543309113 -0.06991832225769248 -0.0790760774975606
Ni 8.441810962866668 4.166039293673975 8.688420974417989 -1.2637493971661913 1.0595140746597624 4.110924503284843
Ni 3.078675040965 6.093109418858692 10.040276477009208 -0.2597963476011848 0.5866984877119316 -0.6407852422540061
Ni 7.953430284483228 0.3206154800599002 12.383843822606195 -0.4748704125943306 -0.7382922727632446 0.23658957046741833
Ni 4.257706030298969 7.646604596764382 2.6912026563463316 0.05225381509839388 -3.435180742677781 1.6624213109210726
P 0.31715024714878287 4.356842393782611 11.957104414588995 1.3648708844995654 -0.3199370216468232 -2.4009544960505296
P 6.193425197109488 8.37977000194045 3.136765898464715 1.415016652116021 1.0531755340362443 0.7216127552250347
P 6.482971522446047 5.2363301135631835 13.504690350093853 0.2810776255774643 0.20054604658029976 0.19382903957144038
P 3.1769315235906057 1.0480317062678213 1.915731830681105 -0.9894767103257023 1.0112824933468842 0.3608311887580237
P 3.6659955137042237 6.582313815492208 5.055744863929361 1.8763818311350653 -0.34900180022326344 -1.4304738672113557
P 7.88412562626088 6.099970617464442 6.853327416245511 0.8769896614678638 0.26539132519045905 -0.752291158145498
P 3.312685907464014 5.999729722690924 12.207525059090383 -0.10400189420496281 -0.9067982601888641 -0.12570637576158994
P 2.8429699357925338 0.6103359094811348 8.527145365444198 -2.7668584713457705 -1.5929033094255922 -1.2778902074429477
Ni 7.599736900421958 4.46863406492652 4.854862447778879 1.694290134605211 2.072512008035856 1.040798243417814
Ni 6.079836322510867 2.6385474032536558 4.939747549492732 0.415693130903226 -0.005410629492610036 -0.24801323892332772
Ni 3.8622744680889363 5.067814208379914 3.5216660356388263 1.323896241859417 -1.8343291249393896 4.382161231512486
Ni 6.342593083850619 6.0010589044126394 8.337743522404159 0.47571090621775497 -2.6642719694310952 -0.5099225191024573
Ni 1.0300409508513773 2.0221815017645746 9.898043736307642 -0.04510254876559329 -1.450583236366721 0.010626112255278474
Ni 6.333092242670759 1.5070487011229663 2.628717074773765 -0.9342023632334299 -0.7897207637468657 -0.4637233948385755
Ni 6.065393171830547 6.225044745390835 4.1302861774467905 -0.44548681722589084 -0.04146109535826408 -1.670385817183788
Ni 0.6158117637572117 6.064756662273671 10.591411381439956 0.30812820193735324 -2.6393914041393316 -0.0023918972709442675
Ni 3.0459790426977578 9.286534028320148 10.801555011643002 0.2739428143048959 1.8179686813034948 -0.6445123133966061
Ni 2.719842778275413 0.5412353087343741 6.392214620070002 -1.1990550423115995 1.575115389314552 -0.27966146195622804
Ni 4.527735849369511 3.10723372711254 1.8651377453005524 0.48079140606445586 -0.34154174440079244 0.622297982083096
Ni 2.025878873455259 1.8319306673008764 4.411997818972963 1.7957636059613653 0.9026058193740714 -0.895255292546271
Ni 8.04552760110258 2.6294116190255346 3.517912501340182 2.984810886327976 -0.5631302134736883 -0.6299845520940763
Ni 1.9251325152101033 4.960113047182408 5.375775316823013 1.4509182511086367 -0.09781299178543154 -0.7546128643001391
Ni 0.6846409118988335 0.2937613290639395 0.38463710896016634 0.29521792163358834 0.30301556330113616 -0.9628519086493225
Ni 8.852883811393495 8.4104067045825 6.747838125758155 1.3461949053566171 0.29081953545557654 -1.3724934340418298
Ni 0.52228604480875 4.3681591592865034 7.131683341946089 1.1419996920595041 -1.4459272256519486 -1.7165309482812825
Ni 4.87872406781405 9.210864274529026 1.388256360896873 1.4975110112665113 2.015630978578096 -0.28449410745818104
Ni 7.029620906587743 3.5318885663309696 12.09422729400969 0.6936136989089473 -0.7981740367205415 -0.26515761191309817
Ni 1.624962096534489 6.46329588879081 0.4154919097297943 -1.9621733729795887 0.15255717740584696 -1.2320749488810459
Ni 7.225722012713916 8.396740469978958 8.221130291366906 -1.2028541043427154 -0.44416269909782863 0.29498060881180166
Ni 7.283120198048794 3.4121218048567745 0.9920909406094993 -1.4674825832252212 0.08734217416109473 0.36538127002255133
Ni 1.7647321068770199 7.964260307384802 12.10148818317542 -0.6019340737147633 -1.1059417699946823 0.9159819835706612
Ni 4.830564631488554 0.818063611498445 4.567232203417214 -0.9051077598603187 -0.998761220951422 -0.13751082459568578
P 4.340751806602139 1.7842579735776976 11.861273220583783 -0.41817938766018947 -0.8783801140574873 -0.3542123978899254
P 7.361701047019163 1.0455979932562316 6.501020312557383 0.021839978693226906 0.08024181567088762 0.6414174765213663
P 7.4105063533361974 1.6642478408023436 10.726013495806722 0.1047670545057615 0.2889883957841088 0.040806749603716816
P 0.8413991751057266 0.43536785668675443 11.44364432362112 -0.4598888515838338 0.6209471244821564 -0.05910271969942725
P 5.257625102414593 7.675032236826682 8.685749506366037 -0.8546817419992829 2.829872353174146 2.9095701234161053
P 0.6218024419395864 8.475021785040209 4.757236858449355 -0.5495653303050599 -0.12142111812267475 -0.8587374001258953
P 6.070569492197506 3.7324826810939236 9.396995581698874 0.326416972944212 -0.7444811751827759 -0.12659494901413035
P 0.30365718058644975 3.39180966164466 5.10020037625991 0.05356790592412711 0.49690219558338933 -0.11907190116420782
