# total energy = -381167.4072975294 ev
CRYSTAL
PRIMVEC
9.27464560369172 0.00000000000000 0.00000000000000

0.00000000000000 9.27464560369172 0.00000000000000

0.00000000000000 0.00000000000000 13.57438133655174

PRIMCOORD
 96 1
Ni 5.953534072100176 6.669750022264593 5.682331380369178 -0.22409118089009147 1.1714581065299374 -1.5488767673329968
Ni 6.945373937509871 0.12057781133726422 5.857182562297745 -1.5213222547534961 1.826026775721281 -0.34723442391019554
Ni 4.006711782534729 1.8906921349431831 9.094102477419053 -2.24093340616747 -1.4402114062140938 -0.13777539111098208
Ni 8.603207547651143 -0.09665571817513531 3.5191585075438176 -1.2661996584788968 -1.0740526345955697 0.13582186692903706
Ni 1.999455902830705 2.5520671062111293 12.967579339889982 -0.8296754497629324 0.11430893255792571 0.4445637911909892
Ni 3.0001994279293256 3.287824734463634 6.1998946258345216 0.7578552824968366 0.002388040616202339 -0.1827918079206723
Ni 8.509969536346183 1.9942713759910082 9.251850285563927 -0.4369085886385766 -0.5510799671773735 0.8839149278327874
Ni 3.5189210766187795 1.7820489374472819 3.894462602864813 0.33406137686334725 -0.38099043731471804 -0.03141091021111365
Ni 7.2482189373249355 9.358859290521089 1.0810823594292502 -0.8723264516642396 0.03836163049733394 1.1564536627013051
Ni 1.1208316351529939 1.1839455978437576 3.3135201398471406 0.7958109358050036 0.3523812582184576 0.5096371266515546
Ni 9.042454758971433 5.06691505999345 1.1632047080913177 -1.120388798657948 0.19086481473679387 0.37643315696133883
Ni 6.098830668648817 4.312450471748694 5.743293625301786 0.8878384312569098 0.5034790774699587 -0.42970590024255023
Ni 1.5284430306410735 4.865460484886017 7.361305617484341 0.914293797234961 -1.7530406131715421 0.6207424646705181
Ni 1.161185617763944 7.542976446255893 3.109687545631124 0.37392813115129797 -0.5287514788835023 0.27078704228473366
Ni 4.2830591201297326 4.118573282022356 4.335019394131017 -1.5856700249019464 -0.18793581401545698 0.39073826073010126
Ni 1.8749252375773788 3.4997782082875912 3.1785768300805266 0.7551371122347252 1.6117155570360886 1.693883900305728
Ni 1.9304061670139914 4.310447148318686 0.949969478257976 1.0300415191219423 1.3577113906366487 -0.9786397676111985
Ni 6.395749169983441 5.571029142005762 7.6355485380132855 0.3601115369831798 1.0270446412771472 0.3082899243261981
Ni 3.4082652810473606 8.035988777593577 13.36729059233324 -0.08492250897600859 0.34945714259312716 -1.8198293886613175
Ni 5.047697994498188 8.811924170192356 4.466174938671633 0.3668059182842199 -0.326396918339554 0.18181967381539008
Ni 0.2416017331235256 2.5144213200888936 1.3875185019855143 0.19047143595311714 -0.6984921100471713 -0.7730733849981719
Ni 7.006651520389794 7.256315702854552 10.15109858246066 -0.059199136067975465 0.7642688993326644 -1.336609061440395
Ni 2.069887560828304 5.452953630026905 5.201824981036231 -0.415714985280097 0.18249561683649212 -1.2528047252292294
Ni 2.8912408924861084 7.524352958073225 6.379525032594028 0.05786704752011325 -0.1042975710685107 0.4297904895365566
P 8.734128443660374 0.55624871934917 10.982828387514266 -1.9009541211577905 0.5067068403786371 -1.2673646253212754
Ni 6.689328798934718 3.6262843730343977 3.4441461021291766 -1.8965876166589786 -0.05458194901093826 1.559883917076778
P 0.3745055483426451 9.209546772466922 7.757025989964951 -0.019121294210483197 0.13089254794821972 -1.2325840273069804
Ni 4.550994354247805 3.0798222596266376 10.86398493488724 2.70999338272761 -0.5860271726765198 0.8301799002031768
P 0.48815705441356655 5.588817912092593 3.5661800328114004 0.705767817772978 -0.6905402021899463 0.00047231165072821876
P 2.73878426960429 -0.01791212287210467 10.51049387833956 0.40808292265613594 1.0958211366209127 -0.608545408383694
P 6.914962374884888 6.122434641469977 1.1658461271323652 -1.1139013911613913 -0.5958487867526319 -0.42865586171148107
Ni 2.047748981997613 7.386958359498504 11.302097857061744 2.356671614972754 0.4339153103382075 1.6921936570874987
Ni 3.437118703226783 6.833549536604281 1.7748100766272756 -0.033860914413502974 -0.8066946725970431 0.6950226634413321
Ni 7.63018593797981 9.032985345906441 8.710735005292277 1.2718653414051064 0.6696623302996725 -0.25100240345863867
Ni 3.9879769986059497 5.564499791567217 6.7828469045340585 0.43174838459387577 -0.532018065449916 0.28790673268415573
Ni 8.09671915638845 4.991317424447173 10.726707196845936 -0.3143230178941554 0.36363651941730274 0.4247364720524169
Ni 6.972019994058081 2.638349133384116 11.073952707107656 0.4002045483493237 -0.5754735655303896 0.8140979070396496
Ni 3.7944522454089653 1.0994628518995744 12.264372007516904 -0.7379174059223291 0.3268463471721467 -0.7028511583468153
Ni 8.897751739735385 3.6759686490277 3.264557431274462 -0.5272998340386403 -0.2546978500323549 1.090924470650244
Ni 6.5655679292586635 7.75163742092405 2.829511634369883 -0.788481749133442 0.17177745908803965 0.9223976572890179
Ni 5.2769023089694365 2.204286448903522 5.445783401583669 0.6108190349092191 -0.8549223972551793 0.26364220370983626
Ni 2.813788327837972 4.077328933442514 11.447085607914925 -1.9648308652070938 1.5407641655281916 0.1036059443181248
Ni 2.420886520127637 8.958843829705124 1.7477290392046803 -1.9046981615812548 0.6739833262725295 -0.3278717031128676
Ni 7.31105466065042 4.709618616393305 12.831848612719627 -0.2696891812348646 -0.6837784579860805 1.6463550014868291
Ni 0.6925164484945114 7.978513799372465 5.57232388251886 0.016005888509953083 0.5900668899635322 -0.1181838421322997
Ni 5.833946792903305 5.801411336456691 11.313594707635069 -2.2470089229375882 -1.635935863036034 -0.8053502427540065
Ni 8.78007503751343 8.708103788361289 12.866314122896725 0.43458148316729667 -0.9052234595025764 0.18564418976780286
Ni 2.2858198575757496 1.0360057273249665 5.972306882075543 -2.038544135730844 0.9060325856674332 0.1293902523710804
Ni 7.246493853260207 7.126155327777083 12.503566042666217 -0.04176834218603774 -0.22801108476978796 1.2814753536910446
Ni 4.104086285736835 3.151858431297345 13.67971815588851 1.7574629106089537 -0.9600933720675787 -0.44383694032729365
Ni 2.676894560120753 8.716024335626226 4.4227909293727965 0.24546861812460305 0.742771905801153 -1.1995335246099148
Ni 7.9644256128438435 1.6763365279323181 13.259523848837969 2.0476111310291185 1.017114526647629 -2.073200806572765
Ni 6.581065861904698 4.003539853770549 9.273202374455428 -1.4650917143955413 -0.27112000014412013 1.3184007659624843
Ni 2.8110152088306926 6.7410905955221025 9.097821610268282 -0.44386959333744197 -0.014220514474756155 -0.7638243555960781
Ni 3.91715580549696 6.774868854466961 4.272862574856812 -0.4514859722321192 -0.8316325734893032 -0.13179320538561817
Ni 3.4572354093364472 4.4165119943630025 8.964589472598133 1.424492195706624 2.1837960377245293 0.6836439892907451
P 2.94608187138258 5.8824995621444724 12.723253643380376 0.039113163951377795 0.34049839073794264 0.9897070811689535
Ni 0.7814491693540553 6.878679961652519 7.739827087332511 -1.1294681352513969 1.6839992942021644 0.8798613265887041
P 9.24836116392333 3.7104610556767743 13.014954229151469 -0.015713039859882618 0.020303230333726323 1.3656987797174995
Ni 1.214180942204065 0.6718479009770437 12.013815604154152 2.4393598353016053 -0.8379999104682277 -0.2867085986109965
P 0.13706442119459 0.2203841265919076 1.3275634835552168 0.7009673110605411 0.14865295725543431 0.5397362600297801
P 4.931783474922998 6.332829974848372 8.972869876108833 -0.07364102252491833 0.14660301670494105 0.9966971393335415
P 7.733774453673145 2.7833953145040065 5.14864045382772 0.1532032956302781 -0.27522656611332597 0.3375189963946445
Ni 2.619271187571493 2.0701658001935828 1.6271206215372356 1.2920670131639618 -0.9422496590179386 -0.7382393080381221
Ni 9.511890941424484 7.259997737121743 10.302711212601134 -3.1225217427496093 0.9586121595363618 -1.3309014695326562
Ni 7.58653018156755 3.2028411576619487 7.47470578066196 0.35364444120159744 -0.770864293161995 -1.7779381477441702
Ni 5.6049094220512234 8.106105097643859 7.656384956614471 -0.23940647109092317 -1.0403123049203309 0.7010590994433991
Ni 0.4657003552419065 2.9275325803639864 11.17475604675455 -0.0032205638198267114 -0.5034253414138878 -1.667234930259632
Ni 4.546329207556628 -0.04541330173627117 2.220021812474595 0.622621941081418 1.147216203263437 1.0388637453992626
Ni 0.8934692652798916 5.055145534842153 9.795341730015059 1.8812468725368505 -0.4087938326802314 -1.3027157511270595
Ni 8.59007464960998 5.20301120819687 6.4206961114743475 0.12251409407653738 -0.027446526246726926 -0.18279746434762711
Ni 4.0958318512335605 4.5064667811576715 2.014411268714446 -0.07659522005723583 -0.730403356933471 0.6553119751152714
Ni 0.8564263311157605 3.234235832710918 5.549750322813783 -1.361946768874235 0.7423654143913537 -1.4251205733192425
Ni 4.3718174776537015 7.850625712444773 10.591845503959805 0.7678301343213615 -0.4645849715079224 -0.3728271847776353
Ni 1.2926073446306776 7.104536129094911 0.34632361049809623 0.23852612536849888 0.029994489479561244 0.33869167654650706
Ni 0.7568036538422013 5.66046454865191 12.040517308575417 -0.7740077238869831 -1.0942229388958573 1.630429331395508
Ni 4.996557599159926 5.321049621593689 -0.023399930619955513 -0.04476933379589064 1.4027146948202165 -0.08217965612354879
Ni 6.5509418132905015 1.1597665970010214 3.614260722596146 -0.03195752674320303 0.28897348338577333 -0.779220121325858
Ni 4.805824514261239 3.3111504679195156 7.623712235414321 2.8474373586411024 -0.33106244213602337 -1.4803658669457924
Ni -0.10591645171616804 1.09991730952953 5.6316037067560805 -0.6592053966324067 -0.6312310229066677 0.33652166547838175
Ni 0.9057628079024642 2.3654705132095892 7.707398289309255 -0.14404913993483578 -1.410713910975609 -0.9391676776585052
Ni 6.975405239668974 2.7306875040746736 1.4977968194847044 -0.6786413938698312 -0.39428072666572095 -1.3887939709740662
Ni 8.571265668517125 7.3503606083188195 1.7215170360663063 0.2778421493593021 0.506998660587443 -0.5027370570976115
Ni 5.646135221340046 5.611856131537686 3.373043887261256 1.598651524763279 1.535898609905774 -1.0109747322984781
Ni 5.5123299105774235 8.899040915461178 12.2718510816556 1.8213370835550955 0.06435214102382467 0.30497551524098443
Ni 4.235257597174818 0.3322743774806136 6.475536162906268 1.3767018156962225 -0.009127673332881055 0.5747904234204358
Ni 8.188018766781967 6.763906223474972 4.434016960297249 -0.3760480057077782 0.005411143713242293 -0.616411441395332
Ni 5.6850052606695085 0.5097289524036397 9.875918922735277 0.4153187782829428 -0.24571672957966717 1.3826801447668444
P 1.9650747919277425 3.16551070948703 9.254415652511797 -1.332510980111621 -1.1228737698633307 1.7169369254704494
Ni 7.913897344109195 7.6590486348047415 6.600284782329062 0.7598460876746204 -1.4974814435801564 1.8723341434282528
P 5.934715816361812 1.773358594605071 12.862173921141375 -1.7579344509287338 0.2717139249743772 -0.7323581666669968
Ni 5.419713300521587 7.89722153148348 0.7558177590245629 1.3826354075718381 -2.458897905334533 -0.6235141138783842
P 8.322612422412881 5.366180046641927 8.64692173433011 0.4064489865971387 0.37490772145574786 -1.059809494412994
P 5.827742055057585 1.1013456049379617 7.855033023990791 0.2853705965258634 0.7296225129033886 -1.1371991853470673
P 4.902271552912416 2.104908622271408 2.0940786187102027 -0.09772634560889622 0.7871625161013862 0.536932729142714
Ni 2.585798991928441 8.987344815355192 8.18871807505337 -0.6915313624586219 0.6912331144919128 1.0989686811109591
