# total energy = -340869.85538355715 ev
CRYSTAL
PRIMVEC
9.22233979743753 0.00000000000000 0.00000000000000

0.00000000000000 9.22233979743753 0.00000000000000

0.00000000000000 0.00000000000000 13.49782650194532

PRIMCOORD
 96 1
Ni 3.5602103919430004 1.3769598463116282 13.248575014214001 2.101054338449923 -0.041975058880205134 0.16054173827322027
Ni 0.44746883561403566 9.131287359259735 5.008206230620692 -0.6058367512032792 -0.7171279799808037 1.6211803019934146
Ni 7.324326710613817 5.547366332417721 13.62686523664076 -0.08212617717779404 -1.0304156146319092 0.5608676426917566
Ni 1.5730636738077968 8.972709231259518 9.672258728537965 -0.7327381757142348 1.7834207681252963 -0.11692605846579864
Ni 3.698397927270436 4.979565333015722 8.089571543443851 -0.025259288787421015 1.7531609407994901 -0.24143584281612618
Ni 3.758352356472495 7.7351727137706465 2.0586751834314923 1.9517588625144835 0.6824826219927924 2.1038180172379897
Ni 2.6733994462975863 7.185927061477483 6.973448970168323 0.39553028280210595 -0.5651618991917363 0.4764567832448439
Ni 3.8459184701893934 4.482960794687387 4.751180550507097 -0.16766729357440802 -0.7827278773688003 -2.055899853400472
Ni 9.127524644736672 6.236588653904678 10.069878052359062 -1.8910754285914981 0.03051436653877326 -0.3223446026470513
Ni 2.3978451638597558 6.086006294265973 1.7835349840379893 -1.3998304312938858 -1.842114168201447 -1.8600288436983385
Ni 4.063344346649592 3.695575891378138 12.456320715639611 2.012996369168727 0.9647162155515707 0.8854709594659976
Ni 7.155096780471101 6.800239600523886 3.6521063940632774 0.19774174436228525 0.30585766073562165 -0.509406241587671
Ni 2.2344714193105353 2.1173292627616105 4.86463008231329 -1.70873227817247 0.5280665370013358 1.494665057177284
Ni 4.872982755214122 7.278242680045798 4.628188664002341 0.0891997961951238 -0.15640174796291773 0.2157160694525188
Ni 4.186407245168633 1.648779081244946 6.371473669450965 -0.18922985023653216 0.7747736555187302 -0.21969947958029906
Ni 5.911159959357214 5.221301296443562 5.355249322294887 1.9595138238695544 0.6525002166980892 0.47470997575706625
Ni 3.360897190294806 1.1720579069159418 10.91392408742874 0.2952269204946528 0.7843636132000104 -1.0187893432468906
Ni 6.880261840515622 1.0152965798006353 10.784560486551468 -0.3466201873649643 -0.4175404685246099 -2.0020444981429137
Ni 1.6276507014107795 8.961670090857293 12.108157109714062 0.115457187229756 0.21653702269191738 -0.26053939641479645
Ni 8.529391370662227 7.894285737462868 12.338322725983481 -1.1066753057265974 -0.6483334869149092 -0.1490008275131563
Ni 6.337785385428167 8.767152505758103 2.228720368387538 -2.040581477875847 -0.7699176129780095 -0.27448146041718535
Ni 8.750967299905216 5.259398780989586 4.942661219203237 -1.4053984122999668 -0.20108417847195692 0.9191058739116235
Ni 0.7537501088556534 1.15911896457315 2.919728134805048 -1.076554832192133 1.3390585514221518 -0.17005456285966195
Ni 0.2588858259942367 7.878257311381775 7.992575587570499 0.21508409229547476 0.10216972609223048 0.9442075540752577
P 4.348545196222534 0.46178006207700384 1.525172986928336 0.2396003322692841 0.9956396446033046 0.5783655423662039
P 5.1542364434736525 6.570741681635524 6.807020786770968 -0.5624689257406055 0.2990799756921559 1.5445943379075593
P 5.300604193952945 1.998324193630188 11.694840441800544 -0.8077467680106413 0.6361708834104463 0.8702358876837981
P 7.579582623774039 3.761690843377763 6.319870990915785 0.952457709899192 0.03573036352207395 -0.6900136402625149
P 2.6036047808305525 0.11781354286578517 7.6054715752670425 0.12346668779779382 -0.21048644562246333 -0.4914375729243923
P 5.985538127564352 3.5434349563610055 0.658593087482054 -0.19689739408411897 1.0152929000578579 -0.007845978406980036
P 8.462741522970596 8.655433084845358 10.304402146284362 1.4105120793774482 0.4098824377587199 -1.346500352412178
P 8.620554196790877 5.131826158446578 2.5588773564055307 -1.2591075275188057 0.33861274367945554 0.02561152992051718
Ni 5.136990668576274 -0.3579208411348668 11.923939033387809 1.9035797317060956 2.0441164876122992 -1.111297377879641
Ni 2.0818140332804336 -0.015144003721381614 1.224596652912129 1.7437206213221967 0.4100487881332551 1.2833144637823124
Ni 0.41432098068695333 0.7823993065661898 7.529803201761432 0.8782111925797909 1.2167786848436077 -0.6004675164715658
Ni 1.1260753220826132 3.2784402526705003 7.316564267442094 -0.09737359025516779 -0.6621968751605628 0.609517542488976
Ni 3.4229912022648827 5.350764498587618 10.658747486388366 -1.40339783693017 -0.5032736463273719 -0.3228385115643343
Ni 3.2232353283198574 -0.41116786280598366 5.424776539915919 -1.120394969305535 1.3048932183943527 -1.8704878342481337
Ni 2.094356415023981 3.7238423619987056 0.39105947372243177 -0.2687075340478856 -0.2377959320706937 0.43668387422228017
Ni 5.740712680398213 3.450335438933719 7.194868119639519 -1.2647945506012541 -0.5112186122060616 0.998691801166067
Ni 4.9494175051336216 6.86598565894282 9.114298887634892 0.20685630506904373 -1.0441938993629243 -0.4346789279771094
Ni 0.34595116667534465 7.083439202421571 3.202885313940952 0.3682382798553723 -0.3697811988624599 0.6393626508748667
Ni 4.135518375712094 1.8718766965082936 3.6863240403743682 0.8948817112569363 -0.5736542529334636 -0.5433417179928514
Ni 5.312934461887594 6.093374943540306 11.641902368503258 -0.15267030594494352 -1.0601288254256258 1.2871659763179186
Ni 5.304883359488979 3.8013561256417314 9.879153615503343 1.0814646107889248 0.6338651180954051 1.0407229100951882
Ni 3.685154647723573 8.10403862744466 13.211740067947899 -2.1492164999774466 -2.1407688834307264 1.3666678284989884
Ni 7.4962680085746225 6.720613921131396 8.214723301863563 -1.6377983701660699 1.456611187728356 -0.34567196451908205
Ni 2.151636365766019 6.875309444194825 9.296762874984953 0.9144943432815412 -1.595182335267756 0.2297391232044882
Ni 6.31641722476655 4.687300171372518 2.854114878075164 0.5822129411367521 -0.9961443521538652 -1.1285764766750628
Ni 7.8571934879242304 2.193579565890764 8.227330239983731 -0.57427877389134 0.5663024405540827 -0.6289615101462006
Ni 8.240409361887187 2.975421843150108 10.458196646776948 -1.1671376247777125 2.5095342394341613 0.4012751557056831
Ni 3.6950133286675815 2.8128688868179283 8.68502757235642 -2.7674002027818534 -1.8142549798973335 -0.6077373106601017
Ni 5.989429954840659 1.822343510960799 2.204370625359973 -0.6962146268669042 1.9323838004219815 -0.35925947339552966
Ni 0.4628470867591571 5.574885793537386 7.768836097476746 1.328445551792996 -0.06873715746539776 0.30820842035598534
Ni 8.97205444515379 2.2562361405713967 5.644777293569352 0.19089001154777446 0.049994843860888094 -0.3748650411432705
Ni 0.077684376924096 0.31408429470721727 0.3470965812433951 -2.049577767837186 2.563562887044791 1.3317039108292936
P 1.602980943201964 1.8217440588921736 12.947803166600028 -2.298626904224196 0.7801765717018564 -0.48618789448967886
P 5.5187309682164605 0.06882263088190879 4.574062753375224 0.3374557472568769 1.5745682585618301 0.2739291874581411
P 2.2395621507240926 2.7618785716266983 2.8090194823034014 1.0176806835637442 -0.029561258596884573 -1.2449258367017848
P 3.290272514271214 8.290329885694408 10.909996293028316 0.2942121060768933 -2.2741960248753412 -1.1249501927763852
P 1.8537732440358057 8.696915167994238 3.5025781478314 1.7110087329114727 -1.4736630010043201 -0.2541427488598333
P 8.78501617740314 4.412686567565454 12.172096511821554 0.5836206201175561 0.6087847780880097 0.21570527081924143
P 4.558316530883362 5.815275295395698 3.064884069871766 -0.5311837424740787 0.9146115855856958 -0.2942596714853771
P 1.8118484885900956 4.157043316145504 9.236885913434838 -0.04262811908317174 0.5379267176248671 0.4687131347436831
Ni 1.7441841835515612 5.1689645196828025 5.824825027965876 0.33054205085617905 0.3660297022398277 -0.3681544618923143
Ni 4.919730794227387 6.049956169092792 0.6368864669601516 1.0761935921979724 0.8945549240451369 0.016586186493455307
Ni 2.66229574951874 6.549013849732732 3.9872987794577237 -0.4408590886458923 0.7768313093787074 1.6090009863184032
Ni 7.128093770364407 9.26780565113454 8.3072372007315 0.33573207969755087 -1.440297281059681 0.7949611862101987
Ni 8.295494395824104 3.1932996142466554 3.5735495838208435 -0.17417347012404194 -0.7025644803443319 -1.080159775934572
Ni 1.2189903927195533 4.445610319642265 3.5631827519694306 1.1526497155741826 0.4049256079740768 -0.46301916968269935
Ni 8.917605752643565 1.2936636757912465 11.748413012056623 1.591817275450265 -0.507514680991913 0.25860129885181915
Ni 2.3266948144836768 3.1634100118710404 11.174890473218081 -1.7675272368234916 0.4921016888709525 -0.36689899221865846
Ni 7.004542087850949 0.9984750325210542 6.045352377205749 -0.9037062515271017 0.3580834508095575 1.1521501502299447
Ni 1.2242379039049054 6.438530222315308 11.845935563516415 1.624732795231363 -0.7411431119484784 1.2856261426346247
Ni 6.628519638711497 7.649672404105626 10.817643785101932 1.7892389174689702 -0.022933983088354048 -1.7371751068941954
Ni 6.651022147133744 3.892897067690592 11.985543339129515 -0.8624007079100953 -0.3598289727457545 0.4788401958753559
Ni 8.08055855103358 7.6654241600012 1.4303239916946149 1.0151275781245872 -1.1270428136393558 -1.274284235259244
Ni 0.7080183716571958 1.9670604626664931 9.66132564504019 1.933354648975683 0.1836497850455934 -1.3774212103607504
Ni 4.741416859660117 9.162043861549979 9.253677949227965 -0.978166941739838 0.39879686936851966 2.0420246380802767
Ni 0.3897489792770214 5.346835781953241 0.654153453238419 0.6461182244311453 2.4534271120279487 -0.6486466472799538
Ni 6.923274832024376 0.9566701674890691 -0.3050713022969461 -0.20817476677015115 0.027053918793998565 0.921837928130806
Ni 6.981587684792353 7.729261194140048 5.904003423891778 0.3943676299525724 0.024748924809905763 0.3028780092820074
Ni 6.100033472671807 3.0487025529546865 4.667669499475963 0.06953728476918992 -1.366687368883014 0.06298225725949154
Ni 7.6040310458344385 0.6096547428334264 3.862267833685688 0.6752110280320436 0.153459120394826 -0.34734421001518245
Ni 4.991111702091398 8.810479056810445 7.100504219464408 0.2850816045305348 -1.5108475804744175 -1.3549569678199633
Ni 4.081678357610013 4.234713859560324 1.6801414912414765 -0.37784906347225894 -2.3457092024239796 0.8270511247662079
Ni 7.835142874138332 4.513256180001765 8.464392321744196 -0.054009364336919885 -1.9077577743431855 -0.5149161156623068
Ni 8.73869236600767 3.284775999918895 0.9291839067916658 -0.5539480327537879 -1.0453681221766835 -0.4401633481304484
P 6.729993040420505 5.490833391176586 9.916596313943637 -0.8528413463564344 1.0306056191555282 1.188464925500579
P 5.509075178741832 1.8220852854543144 8.854803464998561 2.640250666815833 0.13551204899810212 -0.8824565981197061
P 6.435911077892389 7.447592500602238 13.273371118474204 -0.10264512306675225 1.4133721745340628 -0.3830352356588887
P 3.1242150689224553 5.713626669235861 13.053585245331526 -0.8712612436245188 -0.8021157949771089 -0.9757408487968487
P 7.99639548059857 1.4033357373311466 1.7988145561502753 0.8473430422460244 -0.9337909867276241 0.351824100163407
P -0.11609542101370955 7.041505224636342 6.1247604093856305 -0.07542176857442494 0.09772917382237363 -1.1394527572679343
P 3.145398782793726 3.6511518819232354 6.481466668406067 -0.2253636198446119 -1.880170608753536 0.9565537343454364
P 0.9973867964580111 7.650825196545291 0.2633466716187616 -0.22957688659501108 -2.5312608324779764 0.806592856911856
