# total energy = -381172.73080940126 ev
CRYSTAL
PRIMVEC
9.19733479531007 0.00000000000000 0.00000000000000
0.00000000000000 9.19733479531007 0.00000000000000
0.00000000000000 0.00000000000000 13.46122915378328
PRIMCOORD
 96 1
Ni 3.016992548873979 1.1629294113164494 1.4627910387036416 -2.282071570968676 -1.9634815502680505 0.789621262054524
Ni 8.06091214354557 8.861218234288367 2.8958066256096533 -0.41941120318476155 -0.029106173337336966 0.6172961579931304
Ni 6.042170725751877 6.737939908750233 7.152260528702798 -0.0024829143228537885 0.10477219671208407 2.795712419462985
Ni 3.363014680068894 2.6436819252210517 5.180203862802473 -1.2740425515620832 1.3055105402633775 0.9097704554433107
Ni 3.7424783207270145 0.5903382943078673 12.814982329532292 0.8971190852278873 -1.134247301807595 -0.6666803648532131
Ni 8.929784365489743 2.105085997232794 2.529849271158001 -0.4535091733097351 -0.14339119463586272 -0.0021232169905898916
Ni 8.085340264869627 4.15787594858886 11.988221024867613 -0.17979827250998712 -0.47923691709314237 0.5980869320545312
Ni 5.858932223816938 7.9750918121921135 2.886437300612358 -0.05691316824727618 0.7682944755522897 -0.7755696690574644
Ni 2.27796830014255 4.744040492348211 -0.04052529675378861 -0.8133394316070703 -0.2383682596343959 2.0993316993318616
Ni 5.125849453389478 0.7661067208891172 5.020163798524036 0.22793883677095583 0.8091104811273871 -1.303678629260961
Ni 3.680488283933284 6.163961833648402 10.303238011998692 0.8250636620225339 0.4508341975807333 -0.01076906559104597
Ni 4.8409528095137215 7.762614982813958 12.15247438823436 0.416738798558921 -0.7529329054945548 -0.6465812801104929
Ni 4.144613391755542 2.0789195796247584 3.220464267714338 0.9757418772381131 -0.9276594199085895 -1.2434333113166587
Ni 8.592573281067587 6.178318873327187 7.363238192502707 -0.7231415331647352 -0.34024076620118177 0.6176316869556782
Ni 8.322217623567333 4.414775905224243 1.719631212662591 -1.798977999133605 -0.2987984398959951 -1.790698018513
Ni 5.599659354793902 0.8059707292682072 8.330064789649292 0.6355008539266152 0.5351139307664203 0.9992047362467438
Ni 4.293729781449422 8.202348758651503 1.1070086957809064 0.6905108916139077 -0.7197348214760314 -0.5263390127872677
Ni 7.779041422830814 1.6515746138111242 4.743507966661215 -2.071061391632259 0.6117585160043529 -0.19600342151493985
Ni 4.029812258334275 8.281547008923138 9.77435998799801 -0.44663275790487594 1.752752906727794 -1.684842873149382
Ni 6.429590061043021 6.890459312333383 0.8421236130410256 0.5323175989682059 0.20329635563192727 0.7794777458626189
Ni 1.7187335527826109 8.720673760661514 8.731249775989276 0.2667825491110309 1.293779367869378 -0.10022031567534354
Ni 6.946158372099382 6.401740531160021 12.193450354395106 -2.119620788598201 0.23504433746748554 -1.0318957987218615
Ni 0.6785563708530342 2.889388725361187 4.733344911667584 1.5285897349491868 -0.35614561035689635 0.8818804139012618
Ni 9.101746934915912 7.594331347322137 12.597839692191904 0.5330516489207529 1.41258336008418 -1.1929286176988876
P 3.518357665446655 7.00828636891565 7.809047727732824 -0.43019955204951715 -1.091496798213946 0.5683585517521631
Ni 3.899090538312125 3.164802917021166 0.9226067309892299 1.2241238123547693 1.1619488814879215 0.1778851146476743
P 3.2002954321527697 6.468172880679474 12.648548278075962 0.4354176059153469 0.24540588320746767 0.718956034328478
Ni 5.615386797363231 7.423959916822572 5.043209560422262 -0.7532051853193351 0.6547201071675434 -0.708269244038593
P 0.3359602468844788 2.3301723726709196 13.332647882634571 0.14528558344509818 0.24814667917739844 0.35915688637939436
P 5.152163028354888 0.7138640195544366 10.558732615871154 0.33154066732402254 0.48882996009821617 0.46734402231029837
P 7.221646142438049 5.110149602824656 8.644747922124482 -1.7354838352347015 0.688980313901994 0.8395335735039348
Ni 5.644597532801938 4.221806623032958 13.031694531602362 2.379305807432502 0.7294546198669567 0.13830246725904569
Ni 4.5198462583891645 5.3614943692191765 1.038804019838582 -1.0859946374487943 1.9210190102284657 -0.5633047913783396
Ni -0.0934844704721832 4.494038536839728 9.47934351660235 1.9713897493715338 -1.7041680558405554 -0.5465869644030265
Ni 6.71334623539913 -0.0678239062801197 6.497614469222563 1.5640336775790935 0.3497142529092558 -1.0803839761302363
Ni 1.7915212606736468 3.2118656793762876 1.9534265444567975 -0.4599963236959755 0.03263912619125992 0.03428694620732804
Ni 3.8455160628932106 4.407096130636296 3.1022886321417915 0.39465893594074614 -0.8465652835397356 -0.6393724210668796
Ni -0.08291213407835632 3.723108733562683 7.4356865187383 0.9976101380661142 -1.0079642276069287 -1.0879360774458813
Ni 3.315013789560514 1.2705382288960705 8.634301589217905 0.10571939111670181 0.4815457677319771 -2.067480616259536
Ni 7.971274918235229 6.515778285789913 3.5433992490042643 0.12817951989243087 0.6398637588810012 0.23529630557729153
Ni 5.913564392741977 4.797385034396229 10.575908638677133 0.5990125291925942 0.24590133478664744 0.3185421981818256
Ni 3.5259270720165716 8.544020550469055 3.3496785445568897 -0.4846472894754363 0.5674571229838162 0.19477417709352907
Ni 7.976462215082657 8.218582054636805 8.15333156264376 0.8631149603683007 1.1448536165685315 1.9851425801812523
Ni 2.5473582374850374 2.435463461871903 12.85183972915354 -2.4191494217920013 0.2986287470873502 -0.7610380511001926
Ni 2.514670909478373 4.417047646928701 9.609218162086117 -0.4903769928703619 -1.4479545404946224 -1.1153676912942727
Ni 5.253508460911284 1.2723684985284078 1.0338668904986896 0.5843952935000516 -1.0091461637301717 0.3777955845265042
Ni 2.403281987281211 8.16658952080966 11.51726597619624 -1.3137480976818212 -0.9709141168321666 -0.30148472847890656
Ni 4.835048120549096 2.86820726323419 9.658432181059348 -0.561356152292401 -0.757465760367902 0.8742635207859525
Ni 6.008232560207535 7.100342493287824 9.80017874634925 0.5608709851258663 -1.3011280949249655 -0.7603708498298389
Ni 7.393066069108901 2.2212851255491133 0.35181737187499373 0.1527788064983498 0.9055595026857566 -0.34707115885945383
Ni 8.056212305444443 1.736705145051891 11.555913177176546 -2.438255546493833 0.8393844495205802 0.5944303091385504
Ni 0.536446510837116 4.873538966837192 3.240656096612996 1.5368584027158823 0.20362648527783642 0.5970649185479201
Ni 0.39346198427830714 0.30151438845719697 4.821475613531811 0.3598282014148061 -0.8204541882749806 -0.2561070716750557
Ni 0.7116686157291156 0.7031160140652447 11.858064021204385 1.206080067479181 -1.5587541743477091 1.6919992816885054
Ni 4.479479155794553 8.645779863093065 6.821397444784356 -0.6066970423210455 -0.1846509726165981 1.2325521456277804
Ni 0.9870579745850379 3.17133302475463 11.054320886433425 0.2586388369579739 -0.594633426288292 0.7470754182725133
P 8.464270460107269 5.783606051511203 13.430698829852764 -0.14925639516738812 -1.5877374489539364 0.663716911349515
Ni 5.638407726457402 3.5346001587667923 4.806385546266606 0.39951292159893775 -1.379240522957676 -0.47980564511241885
P 4.007968588099096 6.364730455780501 3.833677253492485 0.8043338856743504 0.656444803168134 -0.41375734733309383
Ni 6.091689176508175 5.517425984026433 2.684317589992871 -0.21618786688261477 -0.787290042818186 1.495513006999876
P 8.003143683441502 3.875802886507714 4.293297506712137 -0.9736320299839619 0.3067400633405749 -0.45777566189557295
P 6.327278908328858 1.0257879515788657 2.9583475827600525 -0.05524040853054358 0.317539210838608 0.9006656649285649
P 4.605997693796714 2.9412892858399737 6.860945984578576 0.24960989398648623 0.5557791724252558 1.0912183477415787
Ni 3.0324072820588888 7.414210741896555 5.4511518286661556 0.006522374499550057 -0.7515159705423702 0.7269549933735545
Ni 4.288901180660593 5.308094643162144 5.799905568307324 1.5643990313383123 -0.03576713029728033 1.5708674126714754
Ni 2.058216378909226 8.249770217065224 0.5369725983897276 -0.5433599728252965 -0.023190579183850382 -1.453762148315335
Ni 7.189602627869894 8.730174607546964 10.865069166982796 0.526333613470629 0.40939007150333373 0.10914435763785076
Ni 6.826776965929854 3.5898485491258336 7.162451175700936 -1.46605613519134 -0.819251426216131 -0.593077651765398
Ni 0.1828255416008092 5.1543427967109885 5.593652575412599 0.3205566575086931 -0.08673359404281837 -1.1451287246067892
Ni 6.72871498190986 5.420614837544117 5.460373076572594 1.8348562010874527 -1.0064768444281247 -0.6638809477312051
Ni 2.6580849515740166 6.474178740327295 2.1315853583618884 -0.6363362053437169 0.04503415742150308 0.13178497785550206
Ni 6.010338749884949 3.1671114480649685 1.9174042628386483 0.7599054801576461 1.5107282812877336 1.7229705332590393
Ni 5.497394188753918 2.2406823047179527 12.119993080528017 0.11357025461968827 -1.2576119168098858 -0.9000475717285918
Ni 7.26243632243511 2.9840384981570742 9.604654444540563 0.0130329219245582 -0.7582592028034747 -0.05918705188311743
Ni 1.569865491129299 5.6323190907960585 11.444091060508615 -1.2469127852248267 0.5693998485324838 -1.1278223721178575
Ni 2.328305313699239 4.145992991980922 6.951433043627751 0.12433417800441168 -0.5148397538984165 0.9587563984237101
Ni 3.818990949226576 4.339541706266867 11.711040944919146 -0.31605517009391376 -0.9186096510014954 -0.23574522018925206
Ni 1.0655296354046386 7.025945251800511 4.1666410086874395 -0.21879470837784254 0.41941454561887126 -0.4389037646917345
Ni 2.682954544970196 1.2184905110599102 10.803659482017208 0.7526025187383296 0.7917028271739011 -0.6945223267661458
Ni 1.2749713442869577 6.5768945757742365 8.699709355636644 0.6892309964602193 -1.8308576214510213 0.5365979715111147
Ni 8.731526615767836 0.3529385269914857 0.8098207336305003 0.9110966304539018 -0.5326130187214376 -1.2570298190541707
Ni 2.6643023499230614 0.4846121711691478 5.775150021863109 -0.5517006314805079 0.0677223430476382 0.37056435688538764
Ni 0.9939651730467726 7.842631795885985 6.464203310964315 -1.010628404702653 0.0901549610195415 0.7161231928653731
Ni 2.4022794777841017 4.936513118458359 4.762192352380275 -2.0716085223849805 0.261398144870666 -0.6037323032657668
Ni 1.1240798689697555 8.876678954147458 2.5454111617002844 1.0826321487344646 0.6277222384224609 0.528268882820129
Ni 4.805074006319011 4.8103900658541425 8.376250126261073 -0.46801662289729073 0.8933827581139067 -1.1618334389559797
Ni 9.337318272066923 1.1829612065889636 9.658256511963984 -1.1115444608934406 -0.5054464856089746 -1.4977940897245687
Ni 0.30963563511726583 6.869360626219909 1.3968452281970056 -0.21019102586923155 -0.1415096613424337 1.6838517128807067
P 7.826941142656 7.4067609006795045 5.6137634677647 1.1189911469794729 0.12651164527170472 0.05489330960376998
Ni 6.447745600009019 9.017462558480043 13.246670276855422 1.1095919651527602 0.21839464472594647 -0.6001569272096826
P 2.0476854305221606 1.327626086222285 3.822585267680432 0.2042183532255644 0.048323369695736126 -1.1969127991576158
Ni 0.4649335535543309 1.44846067129588 6.975542017433003 0.0696936078413961 -0.62264970899556 0.6851403713306136
P 7.650297129798375 1.4938219267063668 7.96762081710494 0.7323016023974485 -0.02107301862021532 -0.3346216202421915
P 1.575107971985742 2.5518005502107597 8.874625189278609 0.3147310519658515 0.8313728920700133 -0.8037705569717126
P 0.20965600678399474 7.984013226982903 10.22527128486158 0.2844164601427102 0.8244599670002639 0.21506300924955218
Ni 8.476346560746759 6.060022752668291 10.624423660202837 -0.6490377120707854 3.357166787896147 0.12293524077435601
