# total energy = -340871.6628692537 ev
CRYSTAL
PRIMVEC
9.28375892895644 0.00000000000000 0.00000000000000
0.00000000000000 9.28375892895644 0.00000000000000
0.00000000000000 0.00000000000000 13.58771960926313
PRIMCOORD
 96 1
Ni 0.4559773935000732 0.8336017177988759 12.832242854264212 0.2418724161329125 -0.3531546460493724 -0.42352368269123836
Ni 6.7509360177459445 3.2133596511088096 3.233659518536414 0.757309951516328 -1.041780404825425 0.23600387316727744
Ni 8.771314069942262 8.286506891246137 4.860218657235761 1.4802609659368118 -2.538897008866995 -0.5543635230246517
Ni 5.220192698925325 4.549255436054662 4.641795945758478 0.11712326207826927 0.8522178538398226 1.4369394203310415
Ni 2.4885951535609077 0.21881448610704796 7.462756170121292 -0.4340518359160718 -0.09067792340254706 -1.1558178288895191
Ni 1.0725805284521406 4.7768096528835375 10.678779331686966 0.2560340523452752 -0.5023642471392251 -0.14958343948950367
Ni 8.903459095536576 9.27428028124078 1.1243263443617642 0.33614679863746627 -0.44796098979799626 1.1928784811872424
Ni 4.884139190673045 4.172724738565963 8.960449306904835 -0.05922484709958832 0.2649439532403953 0.11252021608861913
Ni 8.103347609951337 6.628780316834748 7.282324457220449 0.3298262557360771 0.029868505424658243 0.0900963398674642
Ni 4.285373870262 2.2045214119450316 10.644402500488905 0.3830444916302693 -1.0285955307040349 -0.3745143426720711
Ni 9.035195635734924 2.2456298967933956 8.581433347132055 0.9804354260590404 0.17580457796956175 0.3896946499569353
Ni 3.3622711454556398 8.019153199587784 13.262442962527166 1.881787832641985 0.7286799464844612 0.33135631922735836
Ni 1.9435735139961097 7.688651379217013 3.78040236701966 -0.5390078665041879 -0.5174566226959734 0.5039945836537966
Ni 5.784905191327382 4.40872717608409 13.393198209399301 -0.0010667507016175178 1.3365260148082854 0.8269017436725372
Ni 7.43618883699334 6.90510211968631 9.8258237615025 -0.7028033358280155 1.2613310175326857 0.6575827734273191
Ni 5.460103598982106 5.673240138085257 7.02417189910618 0.005069186992791269 -1.0389177385656496 1.1813131449471461
Ni 0.15346424976002757 4.266258610482691 4.947451641919745 -0.26945058286149726 1.6524767981138508 0.21419294793977303
Ni 9.066723281296136 5.975222250810549 1.4681939925636525 1.1759387680091102 1.0076595518823162 0.31287677236593214
Ni 2.517226266314376 5.262610193792573 4.1932520580890476 0.7847577633146355 0.20087617622620887 0.12226726817305394
Ni 8.753331428760852 8.844646482276776 8.609886211712737 -0.40520765799086994 0.33304167734958123 0.6845713862010211
Ni 7.2031664861139495 1.1091306876319083 12.49678907684328 0.19611397895087515 -1.7924813356656677 -1.6401149341143881
Ni 7.711443007559997 7.690136780656882 2.8127255301305416 -0.033760127169580566 1.2103383285349028 -0.3593222083126651
Ni 7.261709870362772 1.3379010768896755 7.512256244729013 -1.6069052801316388 -2.1420773178295045 0.9103008740254839
Ni 0.9190420086201196 2.5185631276102574 11.365108138602366 2.3205288465036102 0.2563484982619004 -0.6421607824452942
P 3.810611718802988 5.78061609466976 13.166228869387375 0.30118493785030065 -0.01984634530196582 0.2280905318574717
P 7.163664091572444 9.23096226175061 5.644583030806592 -2.5698646608931033 0.18400768260564437 2.4762397390470903
P 0.44196355929081255 8.200028676168786 6.868184323650175 0.9255192336371352 -0.5783578290567201 0.1307449666267619
P 3.145764601835787 3.2423806817402427 2.979243673419315 -0.5339157966932611 0.10534375294483794 0.3803054954325515
P 8.05840493263631 4.564109450453349 0.3660669727207249 -0.9205986564070662 -1.6533435169895203 -0.30289960654856224
P 2.9123987518734267 3.6841483537161728 9.708724924118156 -1.2452726785182426 -0.3237381405604683 2.067786577535729
P 3.433254766763362 5.762215684333388 6.174586333438417 -0.12641060091746617 -0.3778233524406461 -0.46880338046464426
P 9.061320133558613 2.5372234831986074 3.8098606626999545 0.03176315134420982 -0.9157387572116036 -2.2182660464769413
Ni 3.9522261785764634 7.514924397065378 7.672278541846061 -0.5441793834027983 -0.7582502039424103 0.42966347704038904
Ni 5.453809210380664 8.955048944295013 3.8137607698555094 0.4830485775297487 -0.9024572096113489 0.33184354327642207
Ni 6.299986708119826 8.101193777863527 7.660566151492698 0.1494631118615555 0.19291089863254518 0.4487747439485432
Ni 6.026644991907001 2.9097064617636645 6.244155109874665 1.0335438758482458 1.1599989568504023 -0.9529986700043264
Ni 2.4051527276762874 2.8996892858035506 5.1898570880196075 -2.0890457440248213 -0.8476209784977594 -2.3063911215506474
Ni 0.8768046186774551 6.4969045202514115 9.174537431305401 0.8317109921357225 1.6131497183794539 -1.3626561362364338
Ni 6.8749948892519726 2.4888736663308832 0.752689116241532 -1.0170337940083645 0.3228120292017731 0.290264691393371
Ni 2.109836353912405 6.597651872910501 1.0605144268809077 -0.08046524453560336 0.4336995947829757 1.9719854739740037
Ni 6.4574578282639 0.01206610157123287 9.811040303672208 0.0628596156386982 -0.6251763320721555 0.9530146108439264
Ni 5.094091400439477 0.5892763903379842 6.521711652673117 -1.2269635957964093 -0.4852684679992029 -0.9952118130372666
Ni 0.3553089527924764 8.250977945556281 10.844549204000403 0.7692033605198043 -0.29302888440206953 -0.13948903136797913
Ni 4.69378499615388 4.567182374682077 2.4129343744693994 0.9374162421850373 0.1128212922688057 -1.092346033588119
Ni 3.7974473485421525 3.0535583074559423 6.759591266260879 0.473031816723695 0.5257792836290557 1.454449661300663
Ni 1.0904053457305642 4.103839246792055 2.6257320563690794 -0.6859813791746702 -0.11278915347928961 0.42823368657239796
Ni 4.669842181694998 1.9701250647337616 4.2074376418397925 -0.7621122580009777 0.5550111839109797 0.051831639959310734
Ni 2.474493123641155 0.13923874584558568 11.631292076626824 0.5692877484346519 0.4456937910303744 -0.11713586048375955
Ni 4.208949966180759 2.6420835410943333 0.8910217672087978 0.8701664678984433 -0.5887512564759022 0.6954777487008796
Ni 6.4474963548577815 6.960934646307373 5.392517833468084 0.6484070204653221 0.9659387751047622 -1.580140353332969
Ni 0.8020007305415708 4.4163398584634175 13.070421404891746 0.38857827696430497 -0.3319096206276671 0.6918519790228342
Ni 4.067604735418259 0.056381196777913624 9.168368373450447 1.331384579816662 0.9190431389944882 0.3218257540291038
Ni 4.018781446841578 7.628659728564319 5.20113407007591 -0.4167411125517662 0.11372297814746865 -0.33309901295007793
Ni 0.19001533731569498 4.680239991774078 7.398866269064842 -0.6415414036937402 -1.7731386694729978 0.5002217468749256
Ni 6.980226297507666 2.3054822910611024 9.993442030232677 -0.25200590502248854 -1.6614319504246096 0.2860946191760814
Ni 1.793455130979386 6.606137228635751 12.328409539875171 0.22748735105583404 -1.7154454285265877 -3.1185869264715773
P 5.283805015587698 6.614279085278031 9.417146191727344 1.1795074591969752 -0.052725098307857585 -1.341843827476773
P 8.505380793410781 5.202163638948919 9.329246633147218 -0.32265596323988305 -1.8220006852810233 0.23164508197794945
P 8.881178073938546 0.956022934217449 10.495304402586193 -0.7235621656419216 0.8189824888254605 0.18872694245818464
P 2.637534499184736 1.8143343049685396 13.032539026295598 -0.5471508073262964 0.44373461042147455 -0.13104450014505173
P 5.904749236247782 1.3928330788878174 2.364263339540304 -0.4223700287027694 -0.6274466161635711 -0.06110072396606252
P 5.092698836589601 2.0674559940811537 8.113295157718957 1.1158723988448331 -0.6657367699930211 1.6863019741934122
P 2.23551988324329 8.745848719007514 1.9423647685744168 0.9193239034597006 -0.3193595518767984 -0.796341611497493
P 0.6561426645295705 7.748225260714745 13.531113091211603 -1.2442470654672055 1.353714867882746 0.6639601377085727
Ni 5.771220930562591 6.561686590547682 11.959557439454693 -0.7457060487288125 0.049194716557095924 -0.5812744884828828
Ni 8.188099045854841 3.1204199397680292 12.11482459521236 1.713816634673913 1.5546123842651935 1.398258973041708
Ni 1.1990995960929511 6.292736092341468 6.07856162898221 0.5758648874315373 0.9394602691982594 -0.7155056138860323
Ni 3.3427009814853705 6.092819626053148 10.043091573360286 -1.0831484262492508 0.5622678654733929 -0.024925816707402234
Ni 7.170079169040876 6.729286291759859 0.31293044971302436 -1.179123336384679 -1.4041429426263108 2.0000292674850977
Ni 0.780457767783976 0.7305009322334942 5.790542289791682 1.6317043414531898 0.8587240303894565 -0.6690154407442931
Ni 9.101138175906092 2.53493039472581 1.2800864677222887 -0.9029598602793804 0.45020299175463757 0.007264137761581038
Ni 7.576809934553904 0.8265237799379019 3.821831141553496 0.8052502268410325 1.127465502999071 -1.6504368848656867
Ni 2.552820198317228 4.773829566244801 7.919547749285592 -0.5528892524719704 0.4770463371997267 -0.2700735611574768
Ni 6.689579654520371 9.13870954857577 0.8075319941532816 -1.478331353014267 -0.5594116269715204 0.643682361296143
Ni 1.9250245635157504 1.8964770045932748 1.5340130587401313 1.6195481657066302 -0.5271368260982148 -0.24731158487061278
Ni 0.8242474022313032 0.44224300043668785 3.114236956274576 -1.3259299844599939 1.2979658951469002 1.3284100705693702
Ni 8.070557373166237 8.115221537711287 12.524793535864303 -0.3057280771362928 1.1972257024123447 -1.1916384381325542
Ni 4.358502039898533 9.163775697873552 1.68520371592126 -0.5372482035006038 0.7960821871885193 -0.3752921013783601
Ni 6.785508736258888 4.550740837494531 10.701661012492242 -1.0908141703246246 1.2566500671172487 -1.5140174935619666
Ni 4.929109719265068 6.842130382394879 1.2952821244521446 -0.1217785014620935 0.18119849529162343 -0.9933881295649666
Ni 4.289170927692664 4.433589082683891 11.4597059293004 -0.10567208281853413 0.3750090229203025 0.39261336626562704
Ni 1.7589752500564355 1.1204290223339088 9.57458667546672 -0.18458875192009502 0.23905654395067216 -0.6916259790549572
Ni 8.429123996991525 2.2856707493568544 5.851985920351848 -0.4533201972273806 1.0568966916415734 0.12036542316465076
Ni 7.2342577950022 5.500070181473571 3.0289470623491193 -0.7843008782828751 -0.7214749440955898 0.41857636598829207
Ni 2.7526531107745544 4.394625146164338 0.9718211069063518 -0.2503855958102462 -0.05569986466546536 -0.7781320304680018
Ni 7.128970684192512 3.740946391273149 8.253221830106384 0.7379369463063549 1.6179962478384782 -1.2881730774261944
Ni 4.687444188757441 0.9309010823656708 12.99950741177652 -0.5625267755617344 0.48304009288931643 -0.18784916783892164
Ni 8.238779086231359 5.686181698130112 11.99983131436903 1.4046075409675551 0.584974048821657 -0.03962789880426723
P 7.350731835405899 4.930882917233911 5.82811273408546 -0.3003480437713021 -0.837458436142461 0.45412083875180503
P 5.712148372050816 8.715518678357196 12.095788247384544 0.9716761918091719 -1.069978464526196 -0.9490304293851978
P 1.3691780609579094 2.7297222260465825 7.229685543695104 0.4672329506537308 -0.1970765999744606 -0.409718658487346
P 0.08638444911146012 6.11610329362309 3.6101215162085194 0.8591657459125654 0.6588174171653686 0.7829299660772775
P 3.014436547033402 0.620882947850689 5.052403609029564 0.6195492156933653 -0.9487751188412822 0.6509362146450789
P 2.373597230838078 8.19921170537686 9.810415506691562 -0.30730622025669013 -0.7638490381864264 -0.4339163387794721
P 6.162522088618985 2.8864042266757255 11.952709738816898 -3.6244638147497517 -0.37949174128200447 -0.33367545427883827
P 5.191802963905835 6.493070327784751 3.336383383486429 0.4188026230664852 1.0698787057235382 1.6523716399945543
