# total energy = -340891.4600747063 ev
CRYSTAL
PRIMVEC
9.04838742147830 0.00000000000000 0.00000000000000

0.00000000000000 9.04838742147830 0.00000000000000

0.00000000000000 0.00000000000000 13.24322961635540

PRIMCOORD
 96 1
Ni 6.4231606150639795 1.9191900972249984 11.482753690590354 0.5144373762536754 -0.2728464959169236 0.8298412859168354
Ni 4.390947111737051 0.4558070825667292 5.906560132563135 1.1195717020732912 -0.6429310849524154 -0.061059843425798066
Ni 2.5713978557573056 1.6224482348350566 4.857126360696754 -0.385159223980427 0.034425271557405226 0.5924698429780699
Ni 3.483873427364297 4.19214499377488 5.088088256896656 -0.9401866058413227 1.6081792617480564 -0.2757906661469121
Ni 4.978630820240309 4.765296992230928 2.683687437647012 0.3883149960005893 -0.28691248709168654 -0.26536227172473653
Ni 7.148388859325416 6.238211578099491 2.5208092270506146 0.598926140126375 -0.8256796983399781 0.5797531667423499
Ni 5.211355342291515 4.618839794955624 11.576317634906772 -0.6070523687779351 -0.8180921158007073 -0.004793564733901422
Ni 5.551475173527238 8.04776236608287 12.297384525836508 0.36989689850471785 0.33351013234556753 0.6122578242382746
Ni 2.0694295204030007 6.41295403415909 0.42183219783119774 -0.07194563710036642 0.6367596660343808 -1.0013919737060497
Ni 2.5322454837932473 1.696672156078682 0.38363895492380506 0.9762643254004865 -0.1779643046250419 -1.0543744394403518
Ni 0.6212604641963997 -0.005486037236378158 4.568278311410914 0.6060419252355498 -0.3133369998318023 0.3698683592596275
Ni 8.634333122944902 1.9689743242983162 1.4037161389463695 0.49328722453862145 1.4910318313000708 0.5675054597232485
Ni 6.86698401345479 0.5077294435654242 4.74032163353086 -0.8393024313297353 0.7300963672160137 0.47250525479626365
Ni 0.8870115999912643 7.54452725650278 2.5181471914990023 0.2215974679339603 -0.9963405273250712 -0.21877028289781034
Ni 7.808007247078561 3.8258934199386956 3.707031994333367 -1.2890894185928765 -1.3468639063991836 -0.17541531295094306
Ni 7.494525868133614 3.8127823067018296 12.967624815472853 0.16755622191784045 -0.033445167032323045 -0.6714299637230565
Ni 7.94363352472341 8.648611478146954 6.842631183802822 -0.6218950902177225 0.494813945595793 0.7638575228268587
Ni 6.898608127162759 0.6229145093997807 0.47852396378997014 -0.2685568674026343 -0.4444658321605442 -0.8450496182261575
Ni 1.8921987578284685 6.477622858385372 9.2906687557758 0.6946513961448423 0.24345081636362587 -0.34443140724376164
Ni 0.08747437964532774 4.902588173143951 1.3482269036633592 -0.006126681723028158 -0.2831021122066608 0.6092802296671894
Ni 6.3682640491508895 2.016659325511763 6.727719379265742 0.05777963001262952 -0.06649438417780806 1.4767172144496117
Ni 3.630004882695828 4.327490771412592 0.4848813607259413 -0.411726175835678 0.3814905168795881 -0.653191586338159
Ni 5.943007941555144 5.58233017431241 4.840943319962363 -0.10057229969812358 0.4896460282416084 -0.3920425813638216
Ni 5.2230549071053645 2.87751384741805 9.51380379693782 0.21495425158582981 0.22875721890719314 -0.7389931554850112
P 0.2698030036399087 5.645605546890328 12.5063497924444 -0.19808267264147175 -0.16220755601141743 -0.8162216382508716
P 4.0436790545129755 6.080154348270934 12.415024419152687 -0.6379434019298368 2.409553036352818 1.9350934860436608
P 2.595801356378305 8.526449200844725 1.335420721079414 -1.7844579511405592 0.07333120459398337 0.16580221534121123
P 6.113705768479561 7.696965437801251 5.755149848065015 -0.08155616360693697 -0.19761935985180806 0.9213615027150196
P 4.535187454117233 1.302053887972259 12.414242638487632 0.013889356387582529 -1.960871109228397 0.8218808934191781
P 4.2546331566553475 5.831758019369312 8.283918036608485 -0.0368585635892462 1.5212811171029155 -0.05770866756537803
P 4.47780258168921 1.147679351785804 3.6998801489900828 1.214287542990638 -0.8103890907294946 0.7522222525807756
P -0.003963193649239046 5.501283769024203 3.5420210788439883 1.5769742969001614 2.559093538419528 -0.005497018558829243
Ni 1.814301191330069 1.3291538080167131 2.5851179254612804 -1.444558884549512 -1.1795195433818333 -0.21381756687822528
Ni 1.7479222218989787 6.493819471700755 4.849484997599079 0.13716115456575087 -0.9093310539130468 -1.2090702604557564
Ni 6.276332433908267 5.506133704631491 9.221393397561327 -1.1334793132933187 0.9586252721624844 0.860348453366757
Ni 8.66590294632891 2.372496205534537 10.2516500173268 0.07068708210291696 0.5219234002180754 0.5075758732471516
Ni 2.3644974311374423 5.198687600033674 7.1555289417651755 -1.3201840831151521 -0.6737619542903429 0.03699920293216854
Ni 0.4452430903624219 0.25524233875325236 9.354275299329888 0.5075748448058871 -0.6288843770513621 -1.3976560493503865
Ni 1.302632984761189 1.0470522363219055 11.4029233885589 1.3424824895020364 0.8171181819232121 -0.3974508968635865
Ni 4.166040396336399 6.9916798392085875 1.7173956775737782 -0.47664473088593395 0.048448839530006886 -0.8561542127797513
Ni 5.707007903291553 7.582449047790362 8.045407975700376 -0.7985841276747667 1.0618172688716423 -0.18870508808131373
Ni 5.379465330440402 3.058327771374086 4.812682491823851 1.0128454669586298 -1.0323884220875639 -0.7397014944059453
Ni 0.9297127494649833 7.528240159314127 7.030499230519011 -0.5503068364567748 -1.0358807515115387 0.4339374218253946
Ni 5.300237651004929 4.3781707888312855 7.02272576096636 -0.510921649790933 -0.5207003264442516 0.32506637245358855
Ni 8.467173215465353 7.10929077768532 9.181822085264027 -0.14782583336844862 0.2684702212260989 -0.6151698556787469
Ni 4.630304101698971 0.6237107674845592 10.31349574470705 -0.35568229756723263 -1.5186593632093524 0.44574341332138717
Ni 8.032633462472075 7.386497171836205 4.833712753649333 0.6573369759651002 -1.934729932056655 -1.1293956301422485
Ni 7.2170208772009365 5.976975587580813 6.974572958128104 1.0560006621898652 0.38329440285754635 -0.005075871861010613
Ni 2.5826450012048032 5.226411858803693 2.4275764537103646 -1.7231816208285808 0.11808511177090632 0.9172194555221881
Ni 2.44550764287634 5.108212775150703 11.38764156720228 -1.5140568314403344 1.0214404077164925 0.4480622912625509
Ni 1.2714250968702632 3.4450287005693583 3.644867763719207 -1.1331697524727002 0.604980573850571 0.7240532463457272
Ni 3.5617981390246776 2.857969330791666 2.982467901701734 0.7147170565464659 1.059431285137969 -1.4006974072798715
Ni 1.06543855937043 3.0119547863230585 8.11636452428021 -0.9744015611601348 0.7964303145565574 -0.08455329856204792
Ni 3.5104666377184373 2.6318863250384994 7.080943085028469 0.30450577469341755 0.22216748150481738 -0.0916963373647324
Ni 3.990555972515984 6.525778375739824 6.1833566347681055 1.1209161319163277 0.8559912048393258 -0.9054134640261955
Ni 0.7134173842834652 7.49758422305015 11.262400123692661 1.1575484384273806 -1.1147169450841512 0.6346395343675844
P 0.20092486962909256 5.572476480513274 7.844295804453613 0.6346716731571005 -0.4358125273609204 0.9427258273234088
P 8.27304006536393 1.4940606670518308 7.892395221806639 1.7416994771271102 1.0413787985116323 -0.24201896901310574
P 1.679127333051571 3.3698456502690677 10.284083056861805 -0.7311356071138053 -1.3608355380879273 0.4720586541771483
P 3.8332950007722064 6.276821046823926 3.7824919252858646 0.4785740866981629 -0.15609964334146664 1.7977893781421428
P 6.830654738336765 3.8522513722223333 10.650496596831143 2.7182828764299125 0.38902462047310427 -0.9246468583345109
P 6.660608395299895 7.791032472453052 10.042221473287764 -1.7534669020756835 -0.7074809438093429 1.141569546500621
P 2.456329514119467 8.297027340167887 5.7274183505851335 -0.31799403898783946 1.4326865585919581 -0.0892105948284012
P 6.696747654284051 3.87175969529941 1.7602108367278178 0.8048604476017815 0.30142764998872607 -0.28265808269070675
Ni 5.206758761529384 2.6966456331380515 0.6573662441474465 0.5780436402504109 0.3804415067897835 -0.21831082676288857
Ni 1.383842261021281 0.907725168260301 6.983379753513503 -0.2173230089283225 0.15770015505936713 -0.14196731770514262
Ni 6.901575998206025 0.7917420346637005 9.29096011384773 -1.0961049864099188 -0.33793294400361157 -0.5158846502231631
Ni 2.7275911177964938 1.598895282622798 9.136186543780152 -0.010078724392240706 -0.6844580005516083 0.6920777218803953
Ni 6.305024870122278 1.7396158023327655 2.6328201186106486 0.5545800099108319 0.6834740393717842 0.5220892363719782
Ni 4.366471224017436 7.086307873874665 10.510700822306 -0.1672101514323314 -0.7177928672583123 -1.819108708445209
Ni 8.226223709333876 7.280332443328165 0.3061015142410214 -0.8607693429542594 -0.4005914993750972 0.459493415917628
Ni 7.618371145478671 3.791002838405669 8.606576289980506 -0.08452938730264797 -1.5238146821580467 -2.8902151159282607
Ni 2.9403096554676367 8.551395604705347 12.337630847828402 1.1455984651543563 -0.44265603264531506 -0.19042618453747848
Ni 8.97144888958805 4.879053317706346 10.090360703545029 1.057689619856514 0.3176482256126465 1.3866388723042764
Ni 8.595687460671156 2.060634487921128 5.738940567007374 0.787575949489721 1.2730069112087172 -0.256549558529113
Ni 3.5968787366915715 2.9046861545611202 11.531806807967648 -1.3318406935174738 -0.11168203645803991 -0.7717112145433225
Ni 0.9921647187961429 3.329272681494666 12.595370541483916 -0.47345707718657165 0.5057105379036387 -0.37810437401617464
Ni 3.13011767642674 8.365858422564601 7.70054045563416 1.0627474939953956 0.20812874402356416 2.490637145419343
Ni 5.507581446603816 7.913122362656666 3.569792389228108 -0.15336244691596168 0.21068724877935976 0.3279853458725964
Ni 3.0548079487038717 8.474565747911537 3.6023702029603464 0.12697650072326516 -0.3369327848738713 -0.0362587252217182
Ni 3.369918037367684 4.274512463612832 9.348740400801944 0.2694490401996005 -0.3820075657253227 -0.5939546550537126
Ni 7.2345204582914135 6.122129817081024 11.528986425637811 0.46550645488092735 0.07245394419535263 -0.1844637963064565
Ni 0.7179144327849991 -0.07414339059641475 0.2156366425841103 0.12819597495266308 -0.12119228994132031 0.892220105264373
Ni 4.5119783406234015 0.5012254627547552 1.2931710861333139 0.22387340845233056 -0.9896356045010698 0.605686341668344
Ni 5.883885778760331 5.731655710370382 0.4275562076542768 0.26260682046678646 0.01806919879688501 0.003186882368413866
Ni 8.01366804263462 8.948248824481546 11.315227323424061 -0.9244028606445047 -0.5364426768801729 0.26907288780710437
Ni 0.10200789937000297 4.790161960605606 5.707513708143133 0.543137058181213 0.3760983993297393 0.17161316559603346
Ni 7.91648836274232 8.74291377086926 2.570563594445753 -0.4595864898520665 -0.606044239228395 -0.5174959605743409
P 8.491260022529907 1.474624731073371 3.5825714266500723 0.3021776407808731 1.2840289733508339 -0.44516311533788494
P 1.8405234178038015 3.4131964739528673 1.4486640029933897 -0.29553596709463936 -0.5108691992864428 0.24739823104714817
P 4.847800187878786 1.1622382069949948 8.178700674253584 -0.41527198420540745 -0.5197284494492855 -0.9056255800370016
P 8.543532556118157 1.5383344262429877 12.4960599663761 -0.3635825262509158 1.5371875039205267 0.33185485613033167
P 6.127938881744978 7.79652484356056 1.360053145899787 1.3119786644862244 0.47631742945350225 -0.6373168240894315
P 1.685488349342473 3.3239612781337 5.980509887670751 0.5726019004095493 -0.9507762084317111 -0.06393819341485762
P 7.206199005957809 4.026487118591619 5.981344148982303 -2.0419120237618125 -1.308101440919005 -0.5120575631675891
P 2.5811791624578246 8.444543198760451 10.093525829432023 -1.019959966516224 0.6899071965916376 -0.12499160908275249
