# total energy = -381161.8759995303 ev
CRYSTAL
PRIMVEC
9.33691216855748 0.00000000000000 0.00000000000000
0.00000000000000 9.33691216855748 0.00000000000000
0.00000000000000 0.00000000000000 13.66551474823900
PRIMCOORD
 96 1
Ni 3.5586520435593707 6.02154274469673 7.118776518173293 0.47121867477435614 -1.2383641243238672 -0.4804921296564822
Ni 5.990254751901555 8.277480786835268 0.6149673190870466 1.420131090524451 -1.7694823036673333 -2.3259145362955556
Ni 1.1386737909110074 2.859644111416493 6.191079595420978 -1.4222836180910794 -2.6109444616525486 2.474359234194926
Ni 5.726972501576773 3.1905256060973093 0.3332241259527679 0.20312486305106955 -0.7674277566766202 0.514070736942876
Ni 8.31888999245944 1.733117643282723 6.217399417232472 -0.3016181687329773 0.17367699010359766 -1.5893330755758306
Ni 6.563774584024394 6.570002304464377 4.074100016539007 0.5477367617367536 1.1992640729986122 -0.19080979312914237
Ni 3.003703329810034 1.602232808008845 9.333478087563428 -0.8183052602527779 0.3296167108284323 -2.394673033917192
Ni 6.4716752820454 3.727603469888435 4.476262300057844 0.008936383257681384 0.6955021741809118 -0.25130887895546394
Ni 0.3375928671729596 8.858768929911728 -0.04576860993216022 0.9341036328720363 -0.5187012937363519 1.4826567198624983
Ni 5.058514946164964 1.030879139517305 10.085901560733438 0.5200516371166592 0.5844153481047096 -0.15920630729124838
Ni 4.097391877722786 7.880727376556133 8.517797034212187 0.6795608203603071 -0.6116916673221594 -0.3028700388622074
Ni 5.375251018856913 7.9263101819354365 6.590863767401487 -1.0633912982269818 1.4808451205750564 -2.243488054268523
Ni 1.2570191530950852 3.0790802220318927 0.5655759872197841 0.6600572031097407 -0.8556006542691265 1.6365254169909171
Ni 0.6622083600737575 0.85271404822546 2.009896400198203 0.5781439132737012 1.308284760574405 -0.8654616062236062
Ni 5.929891614503523 5.794786494913494 6.105232289853697 -0.5218118143408755 -1.1921781126861082 0.5785159519011392
Ni 8.468056501828498 7.212204462758898 12.952051632573589 -1.4228834564586075 -1.2621419434697554 0.06942338489914496
Ni 5.193059851022759 6.151549910223445 9.971521585162344 -1.8607585227755115 -0.5515846747279339 0.05017919195755229
Ni 1.4669596239991474 4.811338869391859 5.468324160778771 0.5140815355761533 2.2736164982227876 0.4984188893382319
Ni 6.2598020703151365 7.222428381622137 11.872325503170506 2.0301443417029232 -1.1433284381732567 0.4051863178346312
Ni 1.9128905508560747 9.30261772534719 4.039539436016375 0.25654107388868075 0.3753869750850116 -1.0365541234294793
Ni 5.066880819499633 5.665582303836313 2.7634813852463744 0.21220034298977647 -1.6323980250861048 -1.2347416970799316
Ni 4.431475933289531 2.1714389866934947 5.581365223139829 -0.7006662348803546 -1.7865559713201682 -1.442261346764587
Ni 6.437212739100908 2.2778050905200047 11.953430591029441 -1.5107876737707593 -0.10555946850006982 -0.2669134182619403
Ni 6.967997524066624 6.934739442796433 7.735214400932449 0.6915686434544606 0.9054664287513179 0.8414323331885445
P 7.165249131285624 3.9206814773523044 6.4522825153979575 1.2406783742793408 0.5763274288902526 0.5473320700991671
Ni 4.758342555722683 4.869012976075178 12.581866405970572 1.1037725302575057 0.7508832220543777 0.19109467135941283
P 2.3264784138387893 1.2489427240387359 7.164898063386759 0.4650012331097347 -0.06519649130199094 -0.0001928327370964421
Ni 8.768630379495546 4.862682549600952 0.3754615156894237 -0.002486770977595717 0.2034868743761786 0.42962928136834394
P 4.391401906110512 7.947215528359905 4.333211468182321 0.6981563239743074 -0.9000177469319209 0.8200289278121039
P 8.688183543946986 4.242702242351647 9.483497990707923 -0.26668279030837294 0.6528750835390046 0.1821588023223637
P 8.879216767638207 2.798160544553996 1.9259360845873246 -0.64193658224963 1.0053766693854105 1.8437293352073665
Ni 8.616139929381909 1.2061609923205943 3.7876024677105167 -0.9460140111563773 -1.303932140032664 0.20033855855518398
Ni 2.9429200313628274 8.653263492304504 6.148443519533216 1.1552565570694102 0.19498063667738033 -0.5069073864252174
Ni 8.365425162883538 2.2934164077248784 13.553320767766335 -0.28107325470209016 1.0007412274959282 0.3904870639512436
Ni 0.7332762673135292 1.0564249313070988 12.131547130377825 -0.005280017452016713 -0.25695373594606713 -1.4424796334229801
Ni 5.935867238314001 2.3939469414239687 7.119965107096846 1.4055117979493794 0.32593000600546446 1.1771536142528178
Ni 2.90904571388718 5.3756618429938845 11.117948747967446 -0.511681667885409 -2.542424048183647 0.9404686558581157
Ni 4.1201926173246415 0.6316243704587543 3.7917704653183253 0.6808527996988533 -0.19691847713004149 0.5621722204357931
Ni 1.4449245111980094 4.54020427590362 3.211163916832748 -1.0771089049233902 -0.0732350453357513 -1.853973381532878
Ni 7.489146615637945 0.3237891761707552 12.794652767714375 -0.036536661473453205 -1.4442796627461965 -1.9381602978944426
Ni 8.754251534701583 5.594836520067576 3.3040484531280874 -0.5693743946111872 1.2853602905677477 -0.31645266264264854
Ni 9.0528179762448 6.014278627002119 8.100247519381368 -0.04824417971836853 -1.377955999818298 -0.3885376535343567
Ni 6.487660075738429 9.025236737594561 3.2507664299454713 -0.35557662522730377 -0.08440494590964175 0.3897712688311416
Ni 7.9372717168627815 -0.17082814568204233 1.4069195437633688 0.6113440541747537 0.26559778477431034 0.8896289474984291
Ni 2.233501442112632 8.376368023986476 1.3579035557667019 0.18428716151927618 0.5160021496376339 0.4977226346021557
Ni 4.36964690067549 4.406947864929959 5.334729753583329 -1.8350469769420203 0.39132550069213895 -0.8418763627044985
Ni 4.9841464404611235 9.003621785842597 11.89398620579227 0.1083696842553553 1.8468321425024066 0.6883745619971952
Ni 9.438871285138296 8.288311604991758 3.0652429181457546 -0.7515419386842992 -2.0188083478648133 -0.030343131068231614
Ni 4.663647592151012 0.6019264538118986 7.7097003546441485 -1.4190404285634335 0.6162785153618935 -0.6849549947926848
Ni 3.6585103195797823 2.949904041691324 12.681365210871135 -0.9559644375008699 -1.4285743361957977 -0.7127733025565337
Ni 1.196833417028926 2.9938995719959687 9.729027036168263 -0.3560065136758708 1.1520658180462544 0.9471710075789558
Ni 4.4786646875679 7.9569912754373595 2.062194312834531 -1.718301152807828 -0.9909188420888677 2.6594107846840522
Ni 6.3064959682467 5.8175498868665345 0.6786908111872527 -0.09246458298932463 1.4107740747895832 -2.204178458035623
Ni 6.446699041900042 3.6464376921001755 9.889377298975118 1.567547861379939 -0.6288159857072718 1.2714123130280877
Ni 3.6082310473619317 4.250750660671383 1.1426410449064326 -0.19676601071257724 -0.40244192232027465 -0.1905567965780718
Ni 7.2106918829818705 4.689501502043534 12.146223822671093 -1.0648971933485467 -0.17189984359851684 0.1605715630698912
P 1.9592950045093187 0.9816736122028995 0.14219370333520764 2.194054996448376 -0.5426356930647622 0.3411121130625416
Ni 8.169630113968342 2.2749106477368044 8.297604633708271 0.4401579488138097 1.627483361393307 2.4176080454468103
P 4.337555933430782 3.1966319466786413 10.31436179699388 -0.3559867161815289 0.1794218630071749 0.7306355275489352
Ni 9.08339636371248 8.169704809265973 8.673488177829311 -0.6859901209254186 0.653373877552294 0.5506822175183226
P 5.903486826790973 8.32422136932785 9.6396541125528 0.5117066075860737 -0.8797114312744012 -0.08427047721430647
P 7.958914679351357 6.931873010749844 1.6901641123800302 0.6583551328169694 -0.24679967823120078 -0.13778747529584012
P 9.141033122746983 8.363100271744774 11.00365000353253 0.3365077815213108 -0.19106690344527094 0.09390722897312213
Ni 2.9299603972238533 1.5093958899657456 2.0129168912961557 0.27165581804293215 1.3835188386180561 0.6479100262242455
Ni 6.85761654799245 4.2846436519714395 2.0274432593029394 2.306296762064628 -2.139539381898999 2.256496293602733
Ni 8.776277310590517 3.336162762653305 4.366528371999397 1.110016197174372 1.3398471087617183 -0.09723423646382609
Ni 0.6541954220203945 0.04655477793972625 5.896560705318141 -0.016332932832068645 0.6945282403034168 1.3521146132751616
Ni 8.172029700404737 8.155960874501872 5.104657032585278 -0.7356190968064557 0.28984148781302344 0.26321977146043696
Ni 0.5003735282264846 0.7895965217272852 9.700055531290868 0.3266745974809729 -0.7185986509890592 -0.1518681217586223
Ni 4.056141399606079 7.018874358665523 12.108001305182102 -1.522045763183082 0.7144290929924019 1.4489855528622981
Ni 3.3566012634675806 3.2791795874730743 7.272103555620398 -0.43808641099676165 -0.17287583435854098 0.5879778686449874
Ni 8.200768716168254 5.785449582709623 5.787837031160153 1.4006457281063298 -0.6435777173974786 -0.07370170055952467
Ni 3.147108964349304 6.1391971753777215 3.717265640696308 -1.8170366564075286 1.687919712302493 1.3351335053361328
Ni 1.335309161924552 6.284759636636086 1.3878834471621144 -0.5026041310641731 -0.3276377327251906 0.20474594359426027
Ni 8.582928532672737 2.403031756998336 11.060212083972363 -1.5886226797723673 1.583109977484254 -1.5598443220880942
Ni -0.1444672414568505 5.569925638307645 11.512895465735133 1.4947807568195417 -0.9993366338389176 -0.9910006031693966
Ni 1.581224755550133 4.693889850779353 8.18713308958572 0.706041640259655 0.4261510930117564 -0.3703879792085234
Ni 2.9368603753425147 0.8547821742786177 11.390671550221565 0.32761150747294543 0.08290959231103785 1.9410062519836702
Ni 1.7701851847320949 7.348962215809011 7.617362961403956 -1.2887955415015417 -0.1302518290404273 0.7998241707294548
Ni 4.1398841651626075 0.2179655469432902 0.48037012752090924 -0.6058624622348922 1.849656499325079 -1.6250626677669562
Ni 2.636435888270728 8.322596746604376 10.089222700404356 -1.4286944067134297 -0.20241549568887074 0.5395650245592385
Ni 1.0911208970566872 7.101440673284364 5.021967470725347 -0.011990339592656768 0.15933563378026108 0.22480826156177414
Ni 2.340035610358812 2.7494031890253763 4.379223771523002 0.43158486243281796 -2.30357370670651 -0.4974099884577433
Ni 5.259305243109232 4.396649250769088 8.232365760757379 -0.8748569313955772 1.1405362201401001 -1.4313678397805347
Ni 7.3026231205411944 0.5508610135864818 10.251718585635663 1.3910621981829525 -0.5614114310103686 -0.10804109727134296
Ni 7.3800447965357 6.315991607958038 9.909520753363752 2.0388259286373205 -0.5054529133668779 0.61081697802669
Ni 1.64958028979468 7.422256976609406 12.186878605789191 -0.621588100500265 -0.27164424807870635 -0.030595356288353758
Ni 6.380873810862745 0.6287514025736228 5.455451359923293 -0.4819242341173184 -0.3871320314360817 -0.4225654325430271
P 2.8327724780937493 6.1247249614617205 9.351899815341667 -0.06018181169621893 1.8098401386590892 -4.099003840587856
Ni 1.8938992714333989 4.946266587650014 13.130017847635491 -0.23710096288619814 0.8155045575791892 -0.3171517455922022
P 0.8685391807198027 3.1862026157469163 12.113727633436737 0.7606325881316578 2.324773994933209 -0.24849043567006238
Ni 5.28990230440132 2.486167623261612 2.9882376684355405 -0.6559187554613349 0.026804778897669964 -1.0141559582399373
P 4.06458196823838 6.297364468111314 0.6979248503272291 -0.3922636962356922 0.5130497518775293 -0.8798993789154911
P 6.248000213289442 1.0379751927922478 0.7379269832822779 -0.7317716980359075 1.9133568656975175 0.28124166195915434
P 3.4809409232865445 3.9903815269542093 3.2338759557686667 2.24655255212646 -0.06901123706239083 0.08196908277463949
Ni 7.05407451767412 9.649138547969493 7.81115337526898 -0.09373830749542567 -1.5108966885447979 -0.01393152247942762
