# total energy = -340863.71261651034 ev
CRYSTAL
PRIMVEC
9.31260723466855 0.00000000000000 0.00000000000000
0.00000000000000 9.31260723466855 0.00000000000000
0.00000000000000 0.00000000000000 13.62994202070080
PRIMCOORD
 96 1
Ni 3.8944205357151978 9.294801389927281 7.015222312338695 0.08285071404864441 -0.08368349436258492 -0.73653132420808
Ni 5.40960033523583 7.140776743710756 10.206986155023747 -0.5407708719418816 1.553187478893209 0.8303483074602408
Ni 9.22005840538528 8.632498085959858 8.563134063275752 1.2717434711152613 0.8243031297074255 1.1638160166036473
Ni 9.261723009526934 8.055610014264952 10.807425810061131 -1.0532935476713472 0.9705911862751091 1.2274549336105312
Ni 3.5402248374756695 7.489617692870836 5.107479804609111 0.21874560030746198 1.5506024917748522 1.857682197843033
Ni 3.203508902752879 8.610715897965372 2.0919374947162126 0.1609772831487421 0.14159296508485936 0.6045103190823718
Ni 6.419170757764331 8.669981329515995 12.760051358944294 -0.7100078239962546 0.20788706032640328 -0.6433871986532274
Ni 5.523726335181284 4.414445828489912 1.037166471132203 0.08112421827584093 2.5987975418773694 1.9515773426312972
Ni 8.89395884275044 6.1610252890994595 2.3820363808443923 1.4980087768385364 1.1583285111265147 0.09855012706177221
Ni 1.1681641213511116 3.401494929586038 4.4912431741570025 -0.19727200381471832 0.5971921881544038 -1.4298226067806021
Ni 1.0412519118646444 4.253365663573019 9.569663919587837 -0.4133655112113139 1.588564315730606 1.1843005097102441
Ni 1.8610686522316946 9.247195342459214 9.872847949944768 0.6474415712282592 -0.6255439998242195 0.48697876582209026
Ni 3.987704920982731 9.0766815065554 10.956128588888468 0.12030705912288957 0.21025967432363793 0.7789835798350198
Ni 2.8623881048742987 1.4806579650206075 0.7442123396687905 0.15074249279461135 0.6991770519293379 0.9145753330311216
Ni 5.275023850110431 5.643374711133892 8.64160115939492 -0.09889748309886194 -2.0543782745496233 -2.4952036817441026
Ni 8.441096072342646 1.119570937531007 11.07334637438936 0.7749757442272073 -0.2512564284509737 0.3814396090369947
Ni 8.143660714345268 8.737898173057586 0.8341795742891942 0.2176541670154961 0.33193738854180893 -0.02431646525817748
Ni 1.310386256901253 6.748939487594481 9.39135729406718 1.2937045487673848 0.14733912354001721 1.5822980231059203
Ni 6.964749844406882 6.615173199286321 11.784774612041996 1.7592251447156992 0.07047110943736896 -0.8890777029806495
Ni 0.6757050768373958 1.617581227133869 8.938638869069354 -1.1421760697363683 -1.521566252443502 2.1709788313552028
Ni 5.088259514826376 4.41785424268657 12.433600711021981 0.4160037201651093 -0.6583299360059888 -1.5874119472937176
Ni 1.622814912321086 7.990924645385219 6.557542130280817 -0.5637601337482032 0.28664612080417734 0.39190811266848635
Ni 4.612105914074758 1.5447380144391856 2.3197611146807655 -0.8730720715810124 -0.1338356897369437 1.5458328383003508
Ni 5.627245275645885 8.748151353468842 1.4553919307119978 0.7197600182870121 -0.12330316563673603 -2.4376387388454406
P 3.1318111407308424 0.25023254641651144 4.002322920339269 -0.3224893557550317 0.6856800458841675 1.22218982855685
P 4.677946046234232 2.9794103256262026 9.524140171066142 0.6533800481998812 2.919591769318165 1.9354151310491379
P 1.7273209891377235 0.6628909294750992 7.428768186853407 0.43308175869331866 -0.7611995163787213 -0.0057045065839450146
P 1.5353602190948303 6.957374259587885 3.141306274924591 0.5207193526076452 -0.22894208122448959 0.2135000356378065
P 2.7312479717668414 7.205024420057038 11.275996154855541 0.4178364024984739 -0.5917992992736066 -0.7646131700459606
P 7.301950034698597 8.79556183618792 10.102826507191033 0.17749070742273304 0.33031913621209563 0.7150914091667491
P 7.962102126427146 6.603588316060524 4.704224360934035 0.6496853729571134 1.6131471472762926 1.1246648003254824
P 5.692526651379677 1.469119644830284 6.893602457464141 0.048209469825691166 -0.05043141717767443 1.2765048970596466
Ni 3.9082776950721 3.3914186887095807 3.801581293066791 -0.7329446352980861 0.47119656328716913 0.4514977993066612
Ni 8.789024386007446 2.329679041236613 0.16916630165721463 0.16519980587052194 -0.08336056380552741 -0.11542067756486574
Ni 1.5072361456688594 3.183123605822597 7.735632559534161 1.7783364116238534 0.8530892007011823 -3.3374803652108134
Ni 1.6254596927359788 5.951556817718545 5.211830360887268 -0.22534356523995383 -0.38568064370153576 -1.982097108486709
Ni 6.802459040567678 6.431658963878314 0.917893393245512 -0.28081871548912285 1.3306860110877405 0.27293262787282674
Ni 4.869934754098408 1.3050501330359945 4.9891314686069235 0.727923785044727 0.9758799454778743 -1.016660726939662
Ni 5.203828968871508 8.74846798211006 3.5883142092519513 -1.5902699855678033 -1.3352923995115002 1.3289505164538726
Ni 6.811650583770139 7.4661871734205905 8.46558450395885 0.4171758860963396 -0.806704699899372 0.784382639363404
Ni 3.481099095031468 8.55676796506582 13.430985587167077 1.3938140498964768 -1.2778215589885413 -1.0663442102077183
Ni 3.59801887710533 1.6087901260364794 8.727360958129943 -2.6279561657191963 -2.468031235094369 -1.1946661692152845
Ni 4.044809827687384 3.857300483835754 7.296979896292158 0.8980367119461501 -0.37229599486451365 0.9701643831503355
Ni 8.041352412802977 3.61919574563866 11.478659904232364 0.335582441493564 -0.05538953251389815 -0.05166914623951747
Ni 7.320798751458253 8.013340090662144 2.996542728898308 0.8908782465244979 0.2253422796883732 0.3203771945080353
Ni 6.297305981323187 1.7182132593991144 10.559688111085288 -1.111749377815395 0.32326865712321745 0.512065533587389
Ni 6.493317735452272 3.169778639855903 8.501485535569598 0.5394776070517547 1.109016295154948 -0.7205897132771589
Ni 7.912018925471891 4.0929560063669435 1.7108162555838002 -0.2245472945909036 0.3066588164806783 -0.9963824363066002
Ni 8.477973996437628 4.5069479547614915 7.052499747278039 0.9395119483718013 -0.9166782383067374 0.41861518964602745
Ni 5.428616678923191 -0.07743991555662356 9.11963031921541 -0.15351851287785173 1.3414044259465092 -1.203020968937883
Ni 0.5098829323878852 5.02622823896863 0.2975405904575485 -0.5991012322516585 -0.44626586148376046 -0.6510825104149561
Ni 8.041818043157713 5.423485432414016 9.672883925364696 0.8367233577486493 0.09902063894028752 -0.9465171760450408
Ni 8.779711778912754 2.0994713938558185 2.9718047194119674 -0.6926706182693876 -0.5905170901270733 0.39269692711836884
Ni 6.108474247264111 2.327136699499762 0.950873991271365 2.010567705122576 -0.36419573435488245 1.5343325509702348
Ni 0.7912084113721554 0.9097867687695824 4.827670418059857 -0.49388449180298805 0.284154207620259 0.6930177171961613
Ni 4.74218440997342 6.805532200908926 12.275139251220116 -1.707684039413614 -0.34427174173744585 2.341559441921664
P 0.7161394855818405 3.53764524531044 1.8306918591495178 0.5509496122470964 -0.8612043736091491 0.2352276571228852
P 3.9206262120796618 3.2920811088304975 0.42029844591907334 -0.5795600768949373 0.12883360853666198 -0.5429707078066779
P 8.718527950300626 2.6493715301903062 5.36464931205046 -0.8365552076019013 -1.5314531725399108 1.1875239017435484
P 9.224463268541072 6.354345699778178 7.93930486425934 -0.6512591452021365 0.5081800824900539 -1.2119838345581255
P 8.640991183630216 3.173997250869799 9.043275322385318 -2.0870467113169218 0.11735954645879142 -0.3285491887958664
P 6.955074045635496 1.394497724180514 12.991597227964595 2.309635596629874 -0.4997237241925846 -2.0781506943788726
P 1.2725770720968022 3.6839928658035297 11.567595301986676 -0.10197997867892761 0.23269537761933473 1.30967444183308
P 2.6570078680079536 0.8793345435699383 12.373056658517259 -0.8825165048233641 0.06870681844809458 -1.6003543663869986
Ni 3.278959645434076 2.605583651631063 11.172749142518107 -0.5355934415060002 0.4872654438245737 -0.353711546994107
Ni 3.7868599237715013 6.297427045215418 3.2974377204313643 0.16969537974803034 -1.2337052853956172 -1.2298668854861334
Ni 1.971301982411568 5.6457494259430385 7.420004092316591 0.571567545607764 -0.8674231008253512 0.43956582375576553
Ni 1.9891728754262825 6.869668125970073 0.9112451230406111 -0.4920479528148817 0.29913268330696224 -0.22559887578386953
Ni 1.9443978605150019 1.8649426967830867 2.9756750389205213 1.09125280052394 -0.029203361036833575 -1.276579459051324
Ni 3.5641023620664605 7.652672130491804 8.70420329806757 -0.7422348023507603 -0.7696810714871712 0.4532602905237226
Ni 0.3687280216107956 5.965199787112269 11.634927313802722 0.09803153555414085 -0.9414778138489206 0.8385120742179559
Ni 2.611553032778761 1.8261370630195037 5.800576175195845 1.2809279658280068 -0.8054104065679807 0.31440040809931014
Ni 6.383149593522061 3.7253222160897743 6.145958422080956 -0.3793690996612112 -1.3782976994284328 -0.32178950147452967
Ni 6.743249484659625 6.090417102107502 6.4512554829876745 -0.47540905870662 -0.7671583050653175 -0.7300086925982137
Ni 2.6669351071708958 4.74035913898286 1.5566888831238044 0.36024883389199247 -1.0816936960805952 0.49615117634997774
Ni 2.6285019776911005 5.083351770887473 12.615328788389228 0.3925917689990723 0.1834088726793809 -0.3157533225827788
Ni 6.886756759988833 5.538319190498667 3.323525126685726 -2.673204496034035 1.5107637625113592 -2.7567265251180912
Ni 0.9383382908611996 9.015600116621311 2.5963678956501552 -0.5847776165401349 0.508778378195685 -0.7147808199048659
Ni 8.085391731753777 8.022270880865953 6.896505197095557 1.3197282265246564 -0.7677344892837616 -4.328161894477894
Ni 4.837098501482524 1.6185683634859063 12.777361633011907 -0.7594840763495114 -0.335394493852474 -0.47884893762610437
Ni 0.02412430867880049 8.229057321403596 4.417681959455318 -0.8521512622679454 -2.5771534812450327 1.7097710038496294
Ni 3.2075133238035964 5.005246935184289 9.541204592306455 0.6184377277967413 -0.2718090557913448 0.7275167794142954
Ni 6.542786304339277 3.2132033267384537 3.4854080383341817 -0.9525921785945273 -2.016402309526482 -0.38069193223769277
Ni 1.2972741061119262 9.191580452889712 0.3529375650210353 -1.0495477074756698 0.7986010969556312 -0.7806882212309523
Ni 7.771826938268393 0.7084807975071654 5.876658312638063 0.5533818758376728 0.9539852022873118 -4.10833257418795
Ni 8.390184049355964 4.456836815984952 4.459594278945691 0.9202271320002603 0.696576123971381 0.5822710480681972
Ni 7.596209793676685 1.1133035529562791 7.911186378397625 -0.03624741236780854 0.17095470607642815 3.6012033015599143
Ni 5.982865802770901 8.539539641940639 5.799049838893025 0.006659671408362724 -0.4567263946954522 -0.0007975562006308845
P 0.12997233217778303 7.778857956624885 13.047630253592649 -0.4431154887802368 -1.162151741527347 -0.8545069069843154
P 5.001782645345063 7.183996553237223 7.112090188816265 -1.5873913784684275 0.7749968272731298 -0.35783945311955145
P 7.684269806364095 5.187159402172009 13.071972477277464 1.0068018318677112 -1.9081519244578107 1.328565365200312
P 4.40241394012357 6.8812436965887755 1.250047081752613 0.31952564514101744 -0.5182132983563398 -0.6573215493461324
P 5.432583849545531 4.739595505201095 4.531710177026278 -1.930948610637352 0.4869219444422259 0.5580998501386324
P 2.645525423460198 3.8901646742729237 5.75045851759434 0.6475698692760073 3.051047131748391 0.884377983512135
P 6.737270790904832 0.881965355074189 3.255538438590925 0.12564492639603522 0.7558176832415177 -0.25500458263949627
P 6.1449796670753045 4.855099770996564 10.39792812585048 -0.6011483445886744 -0.22841294819389696 1.839342776103897
