# total energy = -340893.82370285667 ev
CRYSTAL
PRIMVEC
9.04157256905703 0.00000000000000 0.00000000000000

0.00000000000000 9.04157256905703 0.00000000000000

0.00000000000000 0.00000000000000 13.23325539097976

PRIMCOORD
 96 1
Ni 6.43900112280407 1.9411804256944343 11.405187033754387 0.822016647666094 0.7836619591472954 -0.12436837367645677
Ni 4.270190065761523 0.29906809632592657 6.000540006124207 1.081127796274796 -0.051679430652162614 0.7187976543737428
Ni 2.6286654386109065 1.488297096587522 4.826261246128503 -0.26326785108955303 1.415888256087697 -0.1825308409498018
Ni 3.440815654300964 4.455976299195787 4.77121072730001 0.44265551842468276 -0.41926927829025856 -0.5648996466692852
Ni 5.221942162132183 4.661382745135031 2.5784865190901027 -0.055864929488419916 -0.5034960467508232 -0.8025305139170243
Ni 7.241449731112632 6.080159190132323 2.4082273782525228 -0.163958220153937 -0.1587928739029136 0.02044232701475189
Ni 5.09516123137419 4.557368494140882 11.491996980437715 -0.43697466598982165 0.3181480480672005 -0.6896444298485542
Ni 5.575521899560659 7.888898660631844 12.486794195561242 -0.8352663135871485 -0.2126538855874273 0.1989236804855284
Ni 1.8488659696226106 6.301804300430529 0.37928764075355054 1.318684358641174 1.5493210539592672 -0.8364798742792756
Ni 2.7790629569555407 1.654255161347397 0.2638918581919961 0.6712096201821344 0.2309367430570152 1.2402757395242834
Ni 0.12703771141934875 9.05974614383232 5.138843780994151 0.622369972971612 0.302383329033776 -0.8740742875932818
Ni 8.830659819298354 2.2748867865856064 1.5859397513824725 -0.33290155222729123 0.33290360910982025 0.11760097304563617
Ni 6.687852325004344 0.5158081534978874 4.81454969716182 -0.2842488242165943 0.25086047856413574 0.20603869426375485
Ni 1.0302871958260824 7.33411680851519 2.448218253786869 -0.18427456311378584 0.5063682260922957 0.10294979879136464
Ni 7.475789209317287 3.930877929868928 3.828063495556535 0.5882720028466385 -0.08023950167804245 -0.7558806752689692
Ni 7.765354612858543 3.8073519652407932 12.541725365631637 -0.20802204324237078 -0.17216441011381317 -0.5620837744870448
Ni 7.876683496072291 8.703390643620883 7.052385927617052 -0.5594959591552107 0.5373662171357068 0.31525118613537967
Ni 6.964542529187493 0.9721408425451915 0.6167347074549618 -0.5803674032875811 0.5569958184411762 -0.5680947565678152
Ni 1.6269496121469162 6.5496338049289315 9.258263815620623 0.6278880745763638 0.07829883301190387 0.2701990309917476
Ni 0.17877901468248467 4.975975221585868 1.2763300855820956 -0.9679653186164877 -2.584025011553885 0.5994370183245225
Ni 6.394073548639438 1.7418047086680108 6.929501914642307 -1.052504990331781 0.001515665313578035 0.9240202804941053
Ni 3.322461469190271 4.34471070699012 0.5570549034640042 0.06514326946655231 -0.30513929451235833 -0.26470484064639577
Ni 5.66626312200305 5.698903199027466 4.5982119899698 1.1722422929941294 0.053852527044081444 1.2024355287480581
Ni 5.479057361673266 2.8985563802116836 9.19027118979691 -0.8515694216225463 0.11886595580098885 -0.029049094847156426
P 0.3448229743818975 5.5902054134353545 12.207082297820874 -0.37160153990065037 -0.6635248499433669 -0.08624611288343857
P 3.952442080479241 6.174571291043389 12.620489216873409 0.29135818156786597 0.21221808360158934 -0.6860772813225862
P 2.616106694293202 8.73425857241904 1.365089395314307 -0.7106657692952277 -0.8205786296679869 0.3586390662027114
P 6.1312802415162695 7.663763503316622 5.887078215938144 0.010062526442324604 0.2432181315275295 -0.3264275144671733
P 4.965966200736552 1.115323185968639 12.659739587613211 -1.4813693685096423 -0.8189441793883574 0.27897086364710666
P 3.973924856936308 6.326966996928854 7.987989775354581 -0.030471429115979783 -1.018920469508116 0.6597941792563411
P 4.6882271741337815 1.0625836930923465 3.874260506511812 -0.10933204816862462 0.11698570805914046 -0.13637054034365545
P 0.11259018258906794 5.592935968355403 3.539895919136602 -0.33470158155050744 -0.1047778531390389 0.003269671890207272
Ni 1.4646805090008812 0.725730864942311 2.885577202768873 -1.7726370472462312 1.6689477991856805 -0.466295526441126
Ni 1.790357953438402 6.413440597112096 4.6521115166084845 0.4551027430491001 1.3913216224919263 0.6548052106821819
Ni 5.78107301066123 5.459464273886033 9.15132552005315 0.5703544991362693 1.2446278458453919 0.3342179570458696
Ni 8.74357139217947 2.2788469953769344 10.337355611934903 -0.359400112738452 -0.15580730891202843 -0.05511365314469218
Ni 2.263548654566599 5.212728799670167 6.839224524873419 1.1321307696852245 1.1311136412746197 1.5067572124551276
Ni 0.588207641798526 0.13174656242054422 9.09219906030427 -0.4972287256848727 0.06860114610816573 -0.15614746586026657
Ni 1.6388573632386492 1.2387587348709441 11.456227615142346 0.03484976068933353 -0.7864534058495036 -0.644036145091136
Ni 4.36011754667145 6.825980429353929 1.421212244651136 -0.17227419621880008 0.8326412172594756 -0.07805380688063332
Ni 5.719120155322922 7.992325209408101 8.075554693348586 -1.1585637670657722 -0.04862958808224528 0.39408789392862453
Ni 5.386263702254546 2.8637553673399454 4.930380379364615 -0.45602499775305333 0.4651027916846055 0.21847357759299793
Ni 0.6983466540603587 7.231838539456966 6.955452132112605 -0.11802546217756449 0.5127067667158137 -0.30310349502925216
Ni 5.0390582734970435 4.618588982099973 7.018098476068025 0.6041105125407918 0.12348262863739379 -0.7840594516960304
Ni 8.164811289572858 7.1872997529134 9.045168416356844 -0.23527805074484642 0.4398229340718941 0.952622003391198
Ni 4.7940768643622675 0.2692526065764216 10.398215341147933 -0.6213731562759814 -0.5281174448439292 0.3724474328407134
Ni 7.835291176787589 7.069460937439936 4.577091780573309 0.4650441705325281 0.11582176965802633 0.7563339607563039
Ni 7.274840258661431 6.09773600723356 7.081736680535795 -0.4780048444582542 -0.08783068376173905 -0.6038711428364761
Ni 2.178422248698213 5.291923933924144 2.5668807565226404 1.1709708824808736 -0.9041744494127719 0.48645966009382674
Ni 2.4497146340493456 5.122674736744078 11.429469985240392 -0.6812832023680524 0.15126494095698467 -0.15190180321003516
Ni 0.8508110758974531 3.3789532146884844 3.786775154356537 0.3670542868496001 -0.48208338540300194 0.32621308446352204
Ni 3.864169207351992 2.7488008135204383 2.5262153796736064 -1.588295892560568 -0.5373091386455262 0.3795894432021334
Ni 1.315801974850181 3.383672915576779 8.186766940276014 -1.2082611342908998 0.15832261913471443 -0.09433351787726335
Ni 3.6712943810127032 2.7563324434820275 7.15931066082565 -0.041156933854283956 -0.32081968136209266 -1.1353616179176962
Ni 3.949621109833364 6.884434196102639 5.824537658381942 -0.24088202719518517 0.4856345930893701 0.22820983104415538
Ni 0.7085157107443921 7.609414610520566 11.505481581787915 0.456304219556369 0.02163634732285306 -0.24860767797421704
P 0.16897342921628558 5.499554606718792 8.080424484341757 -0.1796038971109939 -1.1328766467123135 -0.568830349182259
P 8.426528649558659 1.7042821824488072 7.979799014751695 0.7240815284805014 -0.47007890474295816 0.7234166412029929
P 1.9478531062606446 3.272995025589003 10.433164635810032 -0.43425186774201985 -0.5025735349365538 0.1289022569910683
P 3.9111492184929517 6.319498657975344 3.479022627564696 -0.6450476170747859 -0.4395259716567656 0.7456196596625932
P 6.900953149211672 4.010715015776293 10.422419630952467 0.9962955330197487 -0.8408759464644421 -0.4215269639761837
P 6.375529283271827 7.662009438235531 10.276985935955866 -0.4646988713779674 0.3590111048301494 -0.2783864518985464
P 2.042590703784696 8.471835969771773 5.828759168620918 1.9919871139069112 0.02659626243128968 -0.7760556075549473
P 7.1253921054380065 3.9338073993858007 1.3694700372307418 -1.0622543564090607 0.11771590135694564 1.1936750089466086
Ni 5.239772143265743 3.033176354399086 0.4228942411638148 0.9229686993011396 -0.4468243050903917 0.06980905037333784
Ni 1.589734499395533 1.2024116130875229 7.069350630254424 -0.4458197750852774 0.26188536891972963 -0.28672248256806754
Ni 7.043819037594716 0.7360364493723467 9.338457139487756 -0.4408472615713504 -0.6151120058576179 -0.012092412388159819
Ni 2.924270612637567 1.830412119980829 9.174960190784958 -0.6777867591790198 -1.6407235142326646 0.729107520940183
Ni 6.26533963820353 2.119914232514004 2.685887743173821 1.030765027551528 -0.09927492104293871 -0.21311951236993618
Ni 3.900118499941764 6.777870221640101 10.228671388701663 0.4250627450435841 1.1655687376286956 0.5247009629632124
Ni 8.4366823355693 6.912363613811343 0.5109148544159999 -1.2627273836595803 1.4527337070508206 -1.315691080340805
Ni 7.468637325404181 3.7508511781699974 8.077698450208 0.9336886568218049 0.4041038834037299 -0.029511122085239497
Ni 3.0675433717868437 8.37389765555336 12.486886419601587 0.4120745603140322 -0.44446146128517006 -0.6047432610287844
Ni 9.201065923303684 4.567865759909677 10.02055156683028 -0.4366409367994867 1.221399985665703 1.4392307874683792
Ni 8.548390964831531 2.3943530851240005 5.979710935364886 0.5041123401785834 0.9823269866547987 -1.4203640324708635
Ni 3.8848111175588453 2.5988101659420364 11.37258041054853 -0.38047158869677056 -0.19525805870848306 0.0791372697527992
Ni 1.0335331203833582 3.3168918604791795 12.6314331363278 0.657248530016352 0.055509860141846334 0.08379122358504279
Ni 2.948719024901838 8.248563376408638 7.932886815405108 0.3839065825202485 0.5033327817000816 0.4634698840668728
Ni 5.698306455236992 7.8325515802949575 3.3960634866444406 -0.27500288013829416 0.1149131418008279 -0.26615571416030936
Ni 3.2054454368218535 8.465949906020278 3.6003587233132426 0.3929532661035491 -1.4344343945210005 0.7892785340031245
Ni 3.430580594137075 4.4924861692857005 9.174986411345449 -0.02041173088713259 -0.27878780110202306 -0.1533076824186263
Ni 7.3267388852875115 5.9981792515228 11.295364476532958 0.5678713277030994 0.28473656248629026 0.32244718966318664
Ni 0.6015141241688398 -0.10615619953904741 0.5741073093554301 0.3617040782812803 0.7280615961741719 -0.5702825082477533
Ni 4.6481277997284405 0.29840806152737187 1.7349593340654665 0.549415434990757 0.8073366770564161 -1.1907465224459042
Ni 6.0143365417285155 5.481408170544831 0.17896165444866008 0.5045728247547697 0.6007873617048298 0.9111287692434179
Ni 7.6645953279942525 8.709439455678869 11.833402240383263 0.39960085332705375 -0.08712363039238544 -0.6071963505549672
Ni 0.17044268476101343 5.007421811029335 5.832821547182433 -1.3889860323802143 -1.0792874006319477 -0.6804121126170087
Ni 8.098970558023886 8.694240572166947 2.6516798574635234 -0.19641634068264238 0.5562242303824743 0.17592490559750992
P 8.336357046188992 1.5640654748325644 3.7854785928481434 0.42461125932846233 0.7047429760528895 -0.4596888197578858
P 1.6774467950226395 3.3371178583472183 1.7349991169848313 1.776720216176669 -1.1623273478732628 -1.0093099430015455
P 4.725577910473909 1.0683341332550966 8.343951063001404 0.9294257677803929 -0.762330287549055 -1.6932177274766385
P 8.715461143019109 1.420105556166984 12.548275984967978 0.17148152511417564 1.3167709436685453 -0.5888337888873795
P 6.635112832128051 8.028147919981711 1.21207524586417 -0.7915575598452883 -1.8475628500208439 0.6646281103098747
P 1.8722746010398439 3.38856440634415 5.85879888937048 -0.49767918295873004 -1.7292859339541056 0.08399434073478437
P 6.929226146678527 4.326564270816158 5.812138045741698 -0.13547579644352797 -0.9622551556055878 1.6547694508027695
P 2.288205023000278 8.53965680571641 10.1750901254179 1.149692946938704 -0.1481842451491319 0.7462477801648953
