# total energy = -340897.1372881731 ev
CRYSTAL
PRIMVEC
9.01098242790638 0.00000000000000 0.00000000000000

0.00000000000000 9.01098242790638 0.00000000000000

0.00000000000000 0.00000000000000 13.18848362730970

PRIMCOORD
 96 1
Ni 6.566744439294333 1.9053271811921393 11.435298952850665 -0.0630529625964269 0.270301875118199 -0.11183604553740092
Ni 4.51044725836849 0.41333646763667997 5.754096197084453 0.24928053567152547 -1.222781953614894 1.6751328449504699
Ni 2.8434785845749384 1.740993894505762 4.641990481068298 -0.745743072614335 -0.3423297875197266 0.8285788742646439
Ni 3.415423661756369 4.480368598996931 4.903069279581161 -0.041360565224657794 -0.2723101637974794 -0.22340366790476363
Ni 5.101189244911535 4.654235505100657 2.57638315308952 -0.23865956562256962 0.16380883906026628 0.4203951643645857
Ni 7.415597006735805 6.151923862850436 2.41028731823865 -0.648836908913889 -0.5930730237797076 0.5131615948650453
Ni 4.895828955193789 4.518710329262355 11.41549011016148 1.3265843302145413 -0.5208682194806836 -0.7000268015241428
Ni 5.5371495861504245 7.918698178105757 12.416482302856856 0.30756101657997353 0.045411852475895985 0.37120944666855427
Ni 1.966250433442323 6.51489524635726 0.37320245296472426 -0.4319725847895399 -0.3608751546220817 -0.6140493689210585
Ni 2.6092380961496286 1.4277000571689213 0.5308955466939709 0.3119226359827789 1.058342165838848 -1.1037391059164088
Ni 0.6113293781147058 0.005874259450065765 4.661904752251985 0.25794309644253 -0.8206668185064189 0.6997601781263173
Ni 8.655228849481775 2.4892658759959616 1.3773394785302842 0.089080239898124 -0.12089481330555953 0.44439846925771853
Ni 6.798569984426781 0.7583354466747885 4.874845981493186 0.40513849531583135 -0.37935675836603694 -0.7962613930788609
Ni 0.6439338158630918 7.244226142766867 2.4968170792773776 0.44523227801292353 0.035948135959834863 0.3128189225448032
Ni 7.590274901258776 3.8924019950441906 3.7744914876718934 0.8527860676384668 -0.21543324810477735 -0.3342449536290631
Ni 7.463769718838967 3.930978010852952 12.53619410561812 1.4272041953211487 -0.30063189356030806 -0.006667127607530454
Ni 7.906866758167213 8.685586849308851 6.987746549689367 -0.18084445438631436 0.246242263065834 -0.23979573610954186
Ni 6.827819633414222 0.851376543621811 0.4560287002222323 0.12871636623250737 -0.5496568615776019 -0.16231117146881724
Ni 1.573263467440991 6.515147553865469 9.281725513232852 0.3158489676203786 -0.48125677573664855 -0.2956154141823231
Ni 0.1115109076462093 4.954868912114836 1.235573296256769 0.08522409937682741 -0.534183448532351 0.2864671720241518
Ni 6.31415759062921 1.8408986567743295 6.977868710742961 0.9060603535815751 0.28200219427426265 -0.19264504656566822
Ni 3.5547694941475587 4.353493966297243 0.45657386465961375 -1.2320566940486006 0.03551644773905496 0.1515091957573068
Ni 6.0320777964508725 5.421899120793252 4.782487015916573 -0.9102993313635871 1.1490763964006276 -0.4153696861255362
Ni 5.5074313660763075 2.6273591818285404 9.26684838123092 -1.0440308914224987 0.5458598564290147 0.04368869913720218
P 0.19086612446934806 5.529346075360799 12.32148582272121 0.5028093050964438 0.9356797191099047 -0.49532328113204366
P 4.0438135329172615 6.1587541875369665 12.519102074133407 -0.7394844932991329 1.092413910711577 -0.24982355265918912
P 2.361724430596006 8.336167983385856 1.5588918515537233 0.24366884591170293 0.47072707984991835 -0.9069003329843672
P 6.302362214620412 7.666093307475762 5.764198409493518 0.013077659119564574 0.300663775239508 0.4692623223789338
P 4.731585778331772 1.2270525112652328 12.486658031872384 -0.003247817513336342 -0.7021705873400229 1.447589958066352
P 4.093364925333141 5.948960494460681 8.165847799968962 -0.7196869989572315 0.7645067263750833 0.5957318015587935
P 4.750589940289418 1.0504012115887653 3.735572153432318 0.7810363485989903 0.4877711798163986 -1.3889338389860402
P 0.3446718803756796 5.355506202204381 3.6774107672987864 -0.10968840306677885 1.3363920603335822 -0.6610290801047067
Ni 1.472926178015493 1.0826515177274145 2.5216513468711517 -0.17450077155647364 0.18158750319992598 1.0529014544392512
Ni 2.0191449003419795 6.565654110419571 4.795478149294636 -0.6630913619503741 -0.610209169239362 -0.8745468563543262
Ni 5.975092343525246 5.606489095995885 9.32020871592252 -0.7438880216834672 -0.37394587176311084 -0.5869144603774796
Ni 8.846288710073498 2.349109055185526 10.074208077849079 -1.5357875382492066 -0.4018238291203015 0.3576137102619905
Ni 2.2832567955428194 5.237534420151518 6.953139871643689 0.016667947573984196 -0.2801108907888208 0.8275964557467167
Ni 0.5101027047227686 -0.1794447042316454 9.17782618245038 -0.8909132135274915 0.9038489477525531 -0.8573281784831945
Ni 1.3744631729366947 1.078641630543369 11.409488795859065 0.5923397451581088 0.3998697907177242 0.46512644583368923
Ni 4.128913251043387 6.8787316841779464 1.5557398098975905 0.4912336844437024 0.7255298308912538 -0.23578455806761972
Ni 5.579059665460528 7.954543866236393 8.037325959679963 -0.1874226218244643 -0.030254428009167254 -0.035231569508784484
Ni 5.204698400154526 3.0023962708172456 4.6526072205744615 0.20244094961016748 -0.5962928162685859 0.3392606616760996
Ni 0.8697202005668929 7.318089165795229 6.812498259978194 -0.42777345910652786 0.17906910765344644 0.4256289019596992
Ni 5.125789226961971 4.347015069925718 7.084246962793592 -0.43060038703236164 -0.33758404530462505 0.20158914313283346
Ni 7.948866947301677 7.09813108453107 8.979313338285793 0.0955686758359451 0.286053738635817 0.2691417933718268
Ni 4.630320357715361 0.43874383371338715 10.507792223019578 -0.11603825654420662 -0.3895835783003677 -1.2136637933637098
Ni 8.130861759562727 6.973301944844367 4.719195677482193 0.34154765793806335 0.3650603963480229 0.15481306331955919
Ni 6.919200006298279 5.925883368441937 6.995672609840123 1.0653443081882943 0.4518089027891767 -0.05028846384190694
Ni 2.353605535421119 5.272073515828927 2.496632354137439 -0.5717583214623314 -0.5357865313534128 0.5728042462283426
Ni 2.513442341871903 5.166762164098725 11.301343490152723 -1.721246608589397 -0.013172532826216022 0.017938586756291685
Ni 1.0887249198893172 3.2746991490524615 3.706544174612803 -0.09031668340838639 0.10042806081077543 0.08778414679451978
Ni 3.6234061473630077 2.808497950758164 2.6273961268565276 0.4677821382889815 -0.45868583241466815 -0.3999106712579887
Ni 1.0403539661725614 3.3337751499032535 8.180169855452833 -0.1635360450148538 0.33095034203819135 -1.135364960351806
Ni 3.4578834109950707 2.7156217547897215 7.211937990501986 0.1862028904847503 -0.5316395990645747 -0.5097276294828318
Ni 4.1699762980045 6.711487850164723 6.085047955602992 0.5795739608520083 0.5490670505124028 -0.36923663921289956
Ni 0.8539383659283821 7.658109577037415 11.502310024834648 0.2754343112487579 -2.579377999700177 0.8661056675655083
P 0.05561848689007658 5.552107816994279 7.86508373370946 0.2529654407222805 -0.23795328358416437 0.6645409499127071
P 8.564100784105927 1.5575753470198155 7.968468537394832 -0.669833051549582 -0.00522396740310068 -0.008277923738076067
P 1.731099835790971 3.295487485532446 10.249364455539403 1.1839444119224063 0.27933493185474473 0.7155212976153161
P 3.974365891282568 6.229220070186935 3.63725152187601 0.3782069610323099 -0.2015760305067109 1.4404862571420354
P 6.90340375408787 3.8318481930738857 10.381196029677168 0.020062575077829964 0.8556896144385071 0.1730331858720117
P 6.25846070819194 7.713040525967621 10.303054592188165 -0.32796297727509327 1.1649053930130842 -0.9007050028069328
P 2.5293737588188527 8.416906386012931 5.779483738999801 -0.49781108055090395 0.5688038668196977 0.6748374467427087
P 6.879434540807958 4.022664757139835 1.5779095299850223 1.930970465014223 0.1575451175387416 0.4468590149830692
Ni 5.398632764143351 3.0248065841357197 0.48016101228423735 -0.6907780292323651 -1.5266369820981902 -0.6730155630426216
Ni 1.4483261959650566 0.959165014423685 6.980717082290999 0.25111373222552236 0.07999961775309448 -0.3385680064844492
Ni 6.970229199833672 0.7426374141729328 9.32309763689152 0.013567197161473409 -1.049111905489832 -0.8847711051854955
Ni 2.5455304503267038 1.4593466274843547 9.152214267072374 0.7275967407226114 -0.041798938313657046 0.4361621973908553
Ni 6.435814864498421 2.040158511382865 2.621184856663353 -0.01966071165372098 -0.3303643876277343 -0.03600212912622187
Ni 3.9697342463104346 6.966588762929504 10.315042803221097 0.37090554227489025 -0.06370550857876126 -0.20943640709139416
Ni 7.890160396730763 7.209425728598814 0.12495168904783238 0.6003564448149983 0.020710493074474007 0.6363272064826525
Ni 7.484945527563702 3.7399992491031533 8.190035079023827 0.7648944487318053 -0.007903828228108969 -0.4500659519561411
Ni 3.16470208645551 8.423826820523821 12.441553559288698 -0.18117638380443638 -0.22852941916710318 -0.2015086676038852
Ni -0.1214004608697822 4.911580152492018 10.107126097786239 0.34950650777382386 -0.5031669455461786 0.3021123347605765
Ni 8.801468083436548 2.316291057153405 5.695103998370317 -1.0289642268973636 -0.42042550338188883 0.3716426775512309
Ni 3.3891746699201337 2.664250143921759 11.60998045176661 0.03163279641393262 0.08364698469769465 -0.3873179221946426
Ni 1.171995408580923 3.366151609796007 12.553867345469959 -0.7176360299654737 0.2017369815646074 0.13525468157165738
Ni 3.026924165008194 8.110073423082742 8.127679981664555 0.5894125442089849 0.24311040230507164 -0.8085841763102719
Ni 5.829483878340996 7.720753926932886 3.5768220714633223 -1.4374202166222019 -0.02855929969493146 0.591002257293608
Ni 3.17978647105347 8.43859582073652 3.6209903029719004 0.5492362291004155 -0.10352212635506687 -0.2665426651860829
Ni 3.6073395656795175 4.070269777349526 9.26541112953237 -0.7068461384388213 0.8034301429131582 -0.07315585535838369
Ni 7.138410176020245 6.12375553175532 11.33536986092952 0.6139370117129104 -0.7774113502518935 0.6982902784490103
Ni 0.5047826206925204 8.952438083170252 0.5371014102976835 -0.31688306531184784 0.10401783504456279 -0.6202722099023189
Ni 4.576074243450295 0.425012898677323 1.4718349480424864 0.025554965650968892 -0.3432656690704346 0.5394989472079934
Ni 5.892056140376978 5.506061696746027 0.3021932080738618 0.14647883242225096 1.4075756224569436 0.3645502894808238
Ni 8.061927743926887 8.903661635243875 11.35438753936082 -1.4659790020965011 -0.1362779806298492 -0.15804956797898587
Ni 9.06630986821471 4.769810365825528 5.7974200995387735 -0.32617143259230924 -0.07502787557011595 0.07191735496559228
Ni 7.814594298021986 8.783779524914568 2.555439827711636 0.6969373639655416 -0.08745838802398485 0.160297226362582
P 8.588187140157508 1.4986164889406925 3.547636400451176 -1.0822858211386395 1.413756554456675 0.2198115796781311
P 1.8158751585493984 3.2787540911486874 1.591098003878436 -0.1434698703925981 -0.22422616380605898 -1.1377527438576922
P 4.656425173832619 1.0382904511947042 8.074464723790173 -0.931839519428208 -0.9763607417690346 0.6271864205236488
P 8.576112423693191 1.6484150609577093 12.481501947722471 -0.3109337897069484 0.5243808606196324 0.34488829227552215
P 6.22785941183909 7.835860216571082 1.4502320187502824 0.14864524394595047 -0.21175759902540306 -1.3857374435359295
P 1.8001600051809146 3.1647741743149984 5.960680178217016 0.016033142203462712 0.6788699649408696 -0.24458981506407554
P 6.841714568330623 3.7438469386033497 5.903521714428618 0.9141937813219868 -0.010891707211839305 0.24209507366667984
P 2.2816618516516374 8.4883724877133 10.213504349836871 2.1420256386559626 -0.1353402993069282 0.19600367862525597
