# total energy = -381163.4019641406 ev
CRYSTAL
PRIMVEC
9.33199104502262 0.00000000000000 0.00000000000000
0.00000000000000 9.33199104502262 0.00000000000000
0.00000000000000 0.00000000000000 13.65831218651033
PRIMCOORD
 96 1
Ni 5.070621219435282 0.35997968086563786 2.6135042942977624 0.009028685861171547 0.32061733554329946 -0.7275206360690373
Ni 5.486501391925539 5.241182016307366 13.361312140811275 -2.359961598577936 -1.5996637680778771 0.17618870078185786
Ni 3.5973424950612944 4.592002072421251 8.7765031669417 1.9978116910084884 -0.8180478928263331 -0.574672666895649
Ni 6.320109471095507 9.257969504365846 10.803834320014683 -1.3362920444206083 -0.564847196164795 -1.065749256936197
Ni 0.2567379996293716 5.400413776280467 0.36840553540937065 1.2230431776960808 -4.0235134235590255 1.9077055809490113
Ni 8.183428085279946 8.662653811699606 11.93307613670114 0.2119792281179059 1.340411723015937 -0.17357028932240431
Ni 2.6492588840628057 5.9879279245912285 10.21503795616033 -1.7971838833476594 -0.42978046223422756 1.5286193026355417
Ni 5.2444015531526285 3.287763030409846 1.4158477862490122 -0.051560131465478935 -0.09977294372527978 -0.5439963208577148
Ni 4.628070217079051 7.280968577575633 11.796233689189359 -0.04944437067405678 1.3346547659275014 0.6816806949167873
Ni 5.348425255222614 -0.05720603714534999 13.335593174012596 0.22737190852389227 0.6172280237593563 -0.5154197947716026
Ni 3.946349621078642 1.8344640984581997 4.065191591428606 0.9302852875672107 0.3046405004990689 -0.4480558635046477
Ni 6.666121028048132 5.148300711319248 1.76801379117106 2.3335118890268394 -0.0856539878253944 0.45936254676671856
Ni 7.695066339812425 3.858367611289836 10.694007052831454 -2.1923850649451206 -0.6730921819168278 0.48394820652588266
Ni 6.942095993627721 6.7804845759863825 13.33308006887512 -0.5425703870444656 0.326366836432567 -0.5221015776671525
Ni 4.754052093632814 0.13594284359328093 6.111561872245665 -0.5059673911094512 3.228892908517697 -0.8461919593607168
Ni 6.958342989707728 1.4801937295981613 1.0175005581786973 -0.07654842597970042 -0.04403836916713706 -0.007407348207664663
Ni 3.4108333258165895 4.0268660381827805 3.0490814998874285 0.5846030386354836 0.4906042783898196 0.23595836464132264
Ni -0.2573492450304287 9.027637306062143 9.604648298664662 0.6058768604125953 -0.44625377729890237 1.741377832121633
Ni 1.448716924441432 7.745487086406498 5.943387265435417 -1.1863306527663955 -0.346161759671307 -1.12331677093802
Ni 7.241979519779957 6.0765631737399435 3.977846956615254 -0.5621403387565932 -0.3381010941503596 -0.00970642865448651
Ni 3.3398075434128343 7.9369328788139395 7.343405195595678 0.21969922246998289 -0.34679322260771883 0.8462948034871683
Ni 9.056286517989554 2.4530537763188898 12.493844799219083 -0.7815492836796669 -0.25421962484435573 -0.9250631199363231
Ni 6.840545269134532 0.43455161979460993 4.5962817234277376 0.4083364334278387 -0.2614433962863046 0.3628209654945429
Ni 6.884041678513575 8.280387470272066 8.670678390636539 0.6436769619795044 -2.11652672305391 0.49516978627331504
P 2.5297907371264152 5.776791631477977 6.002650073365393 -0.6293595169155678 1.3403410176790014 -0.05779094286653918
Ni 5.813876963139063 3.1647300629665267 9.33667178244761 -1.4522570245247184 -0.36167888147029964 0.361681452573461
P 3.29803755234212 2.482542867423326 1.5717984182372022 -0.6249127939981237 -1.002856216956402 -1.083798144018108
Ni 4.546070013428835 6.877322645097375 9.58630440423935 1.179109452427608 1.5462701829480854 -2.258943212481329
P 9.130858456918526 7.935327776386735 4.139192412517202 0.10678228516357739 0.267982482956403 0.4460707147538188
P 5.7448295627967445 7.967663124702201 6.908947828908712 0.9358406701678011 -2.436628295303055 0.6540207671076737
P 4.258989978730804 7.678744687805571 2.6518839730905523 -1.0732170260681517 1.7100970197304806 -0.627062750461591
Ni 8.88863730226449 6.78420804033786 2.314005246168787 0.5455263843489959 -0.23443601445952528 -0.08087250727635105
Ni 3.0047050837706797 0.01218291406229171 0.8729508194190804 1.789590387271118 1.5229901293742223 -0.33387214367067664
Ni 6.264658781430139 0.924079864119111 8.105743927400555 0.0926443031002985 2.2078854745735654 -0.7026590969406673
Ni 4.229211595909836 7.489613229130376 0.4446768298731902 1.4861025123192535 -1.072815419754359 -0.36924023875732537
Ni 1.6707249869017307 8.336164779617388 2.4530873714859704 -0.9340005316352689 -1.17343502775065 1.8341676596608605
Ni 1.0530685081266242 0.5950198685561091 4.614447376827704 -0.7439525563728155 -0.538898337509517 0.7569353417857286
Ni 3.46486555287187 8.301235137844 4.602905570537208 -1.179107138434763 0.6701364417226136 -0.5664921879673857
Ni 4.333720561504324 0.291187043873684 9.270537829650484 -0.48302260938781977 -0.46574428192334627 -0.1455820316395944
Ni 6.503287119604679 2.4384305466477967 3.3135473211445166 -0.41907104623652347 0.38812267748412516 0.014338013889226918
Ni 3.4661533676099756 4.33556829569378 11.97652308652865 -0.49838983587250935 -0.05063530565836441 -1.0992039370502167
Ni 8.67337626919296 0.059708877092884756 2.2113216179856994 -0.37003830917858854 -0.25285719727919037 0.7696939270029777
Ni 0.3942532836818606 2.533495537496181 8.563912016454024 -1.4082891035842005 -0.21174165818580307 -1.3195870729611014
Ni -0.1500210849983926 5.397828814813401 4.692285512556218 1.1138417415680495 0.14191769541412977 0.8929538981066041
Ni 1.8725386211500037 1.1947747892724685 2.598767214338229 0.16075976782129733 1.9736649185589556 -0.2660004195293677
Ni 6.012527052487208 2.5089337375636256 5.788651658656657 -0.7667435861254022 0.08355699608704964 0.09495161107723647
Ni 2.5731098386791977 4.379643288505886 0.34264177505458326 0.8355365365293997 0.4817882227600864 1.1169088105291474
Ni 1.0322861644906811 2.8575302559833164 0.9612967768512639 -1.53971361277649 -1.4978869065486915 -0.2874822435522275
Ni 8.082278636393559 7.841018676797674 6.230580217222804 -0.9832821514792162 -0.17500702176893085 -1.6241733231834674
Ni 9.083778563050842 7.2650015412213005 -0.267279416500122 1.8945939832677177 3.0897728304533625 0.36424921330063725
Ni 3.733570897574764 2.454537562864967 10.220132289968532 -0.06645093253438233 0.33456017087663675 0.9694719850690013
Ni 1.3533906378490843 3.8064724101405414 10.47658099788137 0.2855991675969017 -1.192625484636172 1.8101404435083277
Ni 9.005492491761249 5.028356632849209 9.362882545164393 -2.0401222788512414 0.7673632219872719 0.1706394888288545
Ni 4.921188049860807 6.517705045476943 4.238912200404476 0.3407213053820261 -1.417867748411571 0.8549288250130825
Ni 7.4423933553998545 3.767856631979099 13.49494438346865 -0.4674661497104594 -0.07555726571102472 0.7474898801021127
Ni 1.395151296928943 4.467391998523295 8.368734360903336 2.614916816036735 1.595620451246439 -3.111642376832944
P 0.977096770569277 0.13302379685357593 11.814726895468366 -0.5813853030291342 -0.1445304504466285 -1.1625204377206753
Ni 6.62185939541891 7.8508732591414345 2.7408542407109913 -0.1796442634306261 0.6299688683647924 -1.0449163793512455
P 7.117546753708263 8.652052670087379 0.5394375978196743 2.0288086536106347 0.4222427590962857 1.552781244593726
Ni 1.9180134125904842 5.954594053254189 3.6894791071791175 1.2523362702332432 1.0322531820612804 0.7022739456871067
P 5.7262215730302115 4.3603913913703 4.225703700547128 -0.5825739240205967 -0.14383908080655872 -0.9906645599862164
P 8.036066617675466 1.864401125123716 6.189455066720227 0.5444956290916364 0.049902284147081796 0.2053146716135367
P 8.149515630509844 3.070262319532916 1.9678621081450944 0.6639585950466759 0.6916941132887313 -0.3776508314185238
Ni 4.529393745769459 5.708546782349261 1.980359510299228 -0.6732477336580857 -0.5487502906029322 -0.7467817982914945
Ni 0.8543717588241998 0.22297765631021974 0.412680232825791 -1.3325757719112856 0.09630426845038899 -0.5308109325156922
Ni 9.488768302212339 3.759551160117406 6.498925347078662 -0.3176469400610658 -0.1758032924179811 -0.5761186553135562
Ni 8.07053899189692 1.821613947049716 10.038244322595636 -0.5184827499676425 -1.8208640005734187 -0.16321748533317054
Ni 8.825077112545403 0.22540957312725016 7.474920942726952 -0.049554156779043686 1.373777442960576 -0.9833862811572484
Ni 8.506529604681498 5.892396334200052 7.259010403091854 0.4823093853708791 -1.2225500401097462 -0.3989953585325709
Ni 0.23099476965446702 6.843727478016371 10.620594147166777 3.8766165297627495 1.3728469607265066 0.5466034194632586
Ni 8.582324034412585 5.301037405656688 11.981972969188456 -0.3464723489331904 0.029387194912865518 1.316900527267874
Ni 2.2639129856528393 8.207401969788584 10.131558631959464 0.1318292008298762 1.454878264197649 -0.8448621848056997
Ni 2.3691218505615157 7.9947725581384 12.558476301488419 -0.6447532257628187 -1.2991303477686464 0.5038685995988935
Ni 1.7404162946131014 1.3878070201254016 9.683360841936368 1.3607818020318565 -2.004195740157961 1.726235834273872
Ni 7.502146092849762 6.678084640325312 10.513007490988034 -3.5205300547785625 1.156417410146731 0.1765831080067991
Ni 1.873191860509912 3.120235130565909 4.427928875592143 -0.9941183228627717 -1.1314214023230258 1.622210800140458
Ni 1.8672473823347455 1.9115370109365353 12.603958558521587 2.4481879751161966 0.3916260626516933 -0.8319429056408704
Ni 0.8111011836238672 4.1720344879361395 2.7737849700430592 -1.449719345704529 0.8667258176480105 -0.8431567720788189
Ni 3.660912016771238 4.002369562186216 5.8113526596125595 -0.3687758975263971 -1.7674950980339754 -1.1413743997706796
Ni 6.795555741218554 1.6012856429434674 12.234746739102269 0.12886908976028771 1.4343564900952135 -0.09382006857595455
Ni 6.677711360691078 5.695939262703028 8.661172824750786 -1.3347085019835723 -0.8206899584348705 -0.626810782351785
Ni 2.2998878104020806 6.6737266005956375 1.1074105572783186 -1.359659258391639 -1.0245732969185195 -0.013978316556963024
Ni 6.809973667090818 4.980063580170266 6.009178734168135 1.7976294555255106 -1.1720263203285815 0.10157965791671539
Ni 4.839318494082573 5.800504220242653 6.5178011649827585 -1.6439831588205427 4.352283727226762 1.5174792268583221
Ni 3.784560895611042 0.33510059324398356 11.654596464775848 -0.5705745855668753 -0.297584622093552 -1.3319188550535772
Ni 0.7670663183724419 7.12478837861239 8.171234906027713 1.0987182556630497 0.6666412840851615 1.096307846449344
Ni 5.441857147671227 5.349545094125314 11.038934232446632 1.301586522618623 0.7417642904722451 -1.7592351720180284
Ni 3.515276967475087 2.301007649304781 7.686447313057976 0.18080023141194024 -0.5139835765457084 0.07025822209561448
P 1.3472968478202247 5.3996392210394335 12.00759581648132 1.5330511131546498 0.23751311072295223 0.7284200079548552
Ni 7.56872984760614 3.3210875697560307 8.080557817279743 0.8561673254058739 0.334996487083107 -2.045634209808406
P 5.457674872171866 3.406176662379528 11.50079032428633 0.5567201961822864 -2.28249837409345 0.9490677103810364
Ni 8.706840788401982 2.934500516562238 4.338030074881549 0.02457666089809961 -0.5870692407877889 -0.24677576697180084
P 5.271119042972883 3.9714246805082687 7.32085537289164 0.5411243986265584 -1.8190007221124351 1.909450845774892
P 2.758583156938905 1.4626589187800485 5.722873254711138 -0.12828853466646936 0.053128761504179466 0.846756316504619
P 1.6073701009814714 9.284005758853624 8.009370591434182 0.4591766560081576 -0.8505247824081159 0.3895465544148452
Ni 4.432639664576169 2.1301855566887333 12.890291100752064 -0.3265103039889667 0.7609166950309798 1.4323386883342364
