# total energy = -381170.9755000367 ev
CRYSTAL
PRIMVEC
9.24234662093727 0.00000000000000 0.00000000000000

0.00000000000000 9.24234662093727 0.00000000000000

0.00000000000000 0.00000000000000 13.52710851045371

PRIMCOORD
 96 1
Ni 2.289236841542232 5.338647452635141 11.378652229214731 -0.8053420152238905 -0.5295125254192429 1.3003102270093605
Ni -0.06270100390288934 6.868172641959157 7.933175640224669 0.25370951797715663 -1.7671680537118597 -0.17032427158128086
Ni 3.7345180411587213 2.0549710810247674 10.235110541828249 -0.06807818372516017 -0.8298063189138417 -0.33764935132492174
Ni -0.07998326790224264 1.3692536560801072 2.880773829896802 1.187175003044562 -1.1210557428179855 0.9246496865479882
Ni 1.4792837929389238 6.688677027684896 2.1646888265668407 -1.786493493513349 0.75179956322106 1.2446013634828306
Ni 3.8701032665025967 3.2337030032781087 4.154892314977955 -0.8257792000323197 0.381152416813879 0.9071705559266183
Ni 6.511390334259796 7.780272105729509 1.663346974927223 2.1634141316340676 0.947075362541356 1.5310554228808597
Ni 9.252790500921213 3.436905236707587 4.645993646530251 -1.247958967101154 -0.8517141747305268 -0.3130528929324802
Ni 5.64519760629606 0.11694988179507831 9.536476013206656 -0.20827066891806711 1.5855381273097724 -1.8357990246166964
Ni 1.735721943067838 7.454710445011171 6.211783955636428 -0.9335675578629083 -1.0300075805602134 1.1272909250944199
Ni 0.6936787823482874 4.935182052010632 9.530118202946666 1.1217347711628811 1.4663716095492294 -0.8861196487935901
Ni 4.903037170364688 1.7547611771652056 7.892445542776277 -0.08678990120205052 0.6122853350421004 0.1904747783872268
Ni 7.889378007923405 8.635041293234826 5.329531726135028 -0.093073163107601 -0.2828869108720612 -0.8090708861387034
Ni 8.660956833239204 8.95387452559254 7.594064699318594 -0.35850228351453095 1.9696228872790984 -0.07200091581833405
Ni 6.862109662557278 1.0000311497909125 2.191661691027888 -0.46299114465824137 -0.5667886361618819 -1.747731285143487
Ni 4.719585831724567 1.053387216996788 3.585901107039463 1.3759561957794497 -2.1878907766191933 1.981959297357264
Ni 3.199256777316512 6.270627204047939 0.8773158921560583 1.6039156013756959 0.6219524258182192 -3.053453427197038
Ni 4.766934373608457 -0.10727406908802287 11.623587354704041 1.3367417303635172 1.8838159188156074 1.3316386048089968
Ni 6.640977276628337 4.68968684031438 8.431447184307421 -0.40707762132007314 0.6363711723467105 0.34575141160676587
Ni 3.4455838002111934 5.230188514706691 2.8415317502589317 0.9341164883878429 -0.6761399676042162 -0.8101512636870758
Ni 5.401153443023733 7.2739855986325646 5.570585066031671 0.699383511513189 1.6030409120802263 3.079986697600876
Ni 7.456300128634834 3.402246436773059 6.686842421875029 -0.874418815416894 -1.3625154968935116 -1.4839309585892313
Ni -0.09404364985968218 1.0031458206116952 9.681324842597032 2.44026537783501 -0.46720106897453084 0.2732884685503487
Ni 8.075759170451326 3.2057726317042037 2.352716051032985 -2.263818281185443 -0.702590448486261 0.5013337489921819
P 5.410488213139432 3.020297219147905 2.537184972039185 0.7411937626807557 -0.2367312382516052 -0.018129876831491358
Ni 1.736655420079408 5.037319224831026 4.376411955231498 -1.268721653569802 -0.4749884262294336 0.5006894305399635
P 0.9168546511213685 6.116067441033239 13.396923800164824 1.5522240865386752 -1.3083143282607597 -0.5514507202532309
Ni 2.549150114011249 1.9081194351155075 8.053066436723526 -0.6522868151357024 -1.712159301576148 -0.5184274712496749
P 1.3941155685664757 3.5035887677816198 2.835255272649454 -0.012035333897979273 -0.8289411427000691 -0.6486895847027473
P 8.609578628216259 1.4359279448074909 5.797989308396764 -1.0381664622219218 0.8951005121359616 0.3703473557785751
P 5.794655593960395 2.7106878487460992 9.945509003452647 0.25378433707915005 0.1777334195611584 -0.9562832542928691
Ni 6.807533605593706 4.430041595898191 10.911236259420361 0.16434979916540082 0.8131090607638191 -0.09424481481819899
Ni 6.10066969151566 3.919281793023031 4.514875247321938 1.2112837231673075 0.7227854353768971 -0.8613151881554005
Ni 0.5423723253541097 3.4209899157776515 12.288715604018263 0.7218945481315117 2.5092753293458205 3.005799829874817
Ni 7.304328222681914 1.6241853037052005 8.388606134884348 -1.0733895470902741 0.33626841181699507 0.30074707898193365
Ni 7.024183453397782 1.6882532506775076 4.246213169514781 0.7992122481770687 0.4965977769690932 2.3121766178841727
Ni 5.992266207667103 0.2650973047045569 6.372539787844755 -0.17811240016713195 0.8722817144692333 -0.1238184147102577
Ni 0.20530209458817844 4.457010763420579 7.095333810607377 0.8029624592481204 1.8061814588605796 -0.4232773710083872
Ni 7.769255228523654 8.515158814847954 9.828959315267479 -0.6616502586284734 -1.3287741387770085 -0.2059060253406325
Ni -0.11919577203083577 -0.03176779390265639 0.9575191279085521 -0.5606239021120667 -0.09859589269804309 0.04568721762446971
Ni 5.673054039096771 6.260867285986375 3.759331893442514 1.1145169132582031 -0.9624467027911039 -1.848183000103346
Ni 6.54529126176909 7.428184910127945 7.878580174333136 0.658722286348401 -0.7912780809316566 -0.6865285099273919
Ni 4.882297344483867 8.098467616168428 0.41536214923136894 -2.4748546857741056 -0.12181115447224183 -2.0207101928732167
Ni 5.686741954484247 5.752954125879171 1.5895838063198973 -0.6583047391950081 -0.9950750303490864 -1.3547541077805376
Ni 3.3730313790149133 8.60874681701783 5.154301454839377 1.581765804751534 2.0388051027017147 -0.17652422974440568
Ni 4.304512043708653 5.837586294145964 7.424231958466079 0.47334240598557836 0.4783293176772085 -0.08277023851969616
Ni 1.9636936655171928 8.809130134719299 8.322417993590713 0.038773007003139674 -0.39270361198658815 0.9135589759514654
Ni 2.2396886211558305 0.13958069180032806 11.640685696005077 1.0311352664067532 0.27960078392162174 -1.6428469883335706
Ni 8.750090024324162 5.782418726996845 11.675261314819762 0.2861802369113523 -0.4638591490854915 -0.7990158158955465
Ni 3.25082907161909 3.9339216701153754 8.505467290151595 -0.3992522117383833 1.4475097396477201 -0.006266292624685982
Ni 3.4823406128350918 7.39814728351802 12.020269797122697 -0.23922058033236218 -2.1537352137834067 -0.3875189824618552
Ni 1.6319673595838335 8.06987179563578 13.442279692111146 0.3685740659282362 0.4538873825847603 0.8312965303061232
Ni 6.497434390819493 7.357748986314334 12.319706116567719 0.16920661303706988 -0.14606848435770972 -0.5718426536460216
Ni 1.209471967208606 0.5877827471456616 6.325925088284812 1.2786944485117977 0.6420437972514556 -0.4181019974550348
Ni 1.9698305836922665 3.270247241929076 6.011108579780843 1.3029278671378657 -0.27615961945055667 0.5323913896289347
Ni 2.9908418603768805 6.431628882677135 9.367941822058354 -0.3979041823509212 0.12292161392760122 -0.14706221572954672
P 2.820819651418057 0.8641668055782307 0.162407439554541 -1.2505987187168461 -1.338640747158443 -0.08430492999666772
Ni 0.24101174933672187 2.3176847845284936 7.78299767375636 -0.2660726675281998 -0.39724083773530944 -0.34315819695829286
P 2.4576416398374445 7.013637935871036 4.184246007935839 -0.32494707326690486 0.021310588552318138 -1.6988291601261452
Ni -0.05281261722290211 4.517464952853046 1.0795624669420087 0.9332623679176636 0.40527810621748905 -0.41677633666507574
P 7.759365917609001 2.334496613083402 13.07327438096821 -0.30330866906152276 -0.008928155727565269 -0.07648671950382957
P 6.170689709730056 8.421293542278601 3.7651083600982687 0.2221415133628884 1.028963712676731 0.05888314748945343
P 7.608484608560687 5.594179852792433 6.409698642547895 -0.10622744110137189 0.5264727101516546 0.09097000072166914
Ni 5.325745136712848 7.149934821906901 10.0017006226105 0.4947640661944641 -2.075658266974322 0.585655648269714
Ni 2.119565841756079 1.4671116224019172 4.215479594202171 0.0768800982875063 1.4046461075149745 0.2587517083867544
Ni 4.869681541307698 3.696208514297756 6.447466567895217 -0.43199726737988825 -0.44350064003379747 0.6070989057451545
Ni 5.09068453438355 5.477060836053675 12.491500083379197 -1.5385219064612343 1.2167172354780529 -0.0860684496549937
Ni 0.8697085166290957 8.690578554249914 4.243264860933684 1.059175717483737 -0.24746353706744478 0.10555304074216659
Ni 8.125205725024585 6.46387543013622 0.30529504298595556 -0.7725288253486114 1.793696953240324 1.4748547073195761
Ni 9.030151612488451 6.5591732664362 4.716199435912297 -0.20875377920207275 -1.5487530972709391 1.2377452597929457
Ni 0.3750377908008762 1.271534324958035 12.018470312230098 -1.820832118894219 -1.3254694998838075 0.9269904188660228
Ni 7.735668540800432 5.409970641727077 2.795958663166354 0.17497719697225994 1.2205422656510978 0.284248052885646
Ni 4.275814557362864 8.360127692154144 7.462459228441867 -0.5343505702378346 -0.013423729605073655 1.2063292073755094
Ni 4.393367964394135 4.536864638469732 10.515893033031174 0.15593792095262174 -0.07054335743620108 -0.6611707478888936
Ni 0.8457791569196322 7.66362444866986 10.17304818407882 0.7250487774897771 -0.5608509305212083 -0.557877192604865
Ni 5.392936996852587 2.8941022179996243 12.296723173155137 1.184872065942998 -0.3770144833861055 -0.9303030281790236
Ni 4.819883777561767 1.197854337470552 0.4243346193584197 1.6994688505926732 0.40601009928750725 -0.38880093449807235
Ni 3.0670265238062986 2.6679050261069173 12.509369236390775 -0.732620419189448 0.23952474183634231 -0.2542247670506783
Ni 4.017564907290704 7.776750771656161 2.6760410638622147 0.45999580947534324 -0.09964156035373807 0.6403962343457036
Ni 2.2822588698220807 9.350759375402813 2.3780520959024583 -1.4781012392813317 -1.8977515550600927 -1.2480756951846765
Ni 8.860184857609523 3.241143092330721 10.409258534331277 -1.8983845606584016 -1.579298574157964 -2.259766479713573
Ni 8.804527446087993 8.148182198794517 11.917815611812237 -0.30100393218774607 1.1251314555492558 1.7547766220260423
Ni 3.45880035591956 1.9064096009854041 2.0832286316700546 -1.5687112855604208 3.4846842487245473 -1.164961185951684
Ni 4.460282554134398 4.043230903935554 0.6930262726748535 0.6389582163475963 -1.3414643326501672 0.662231327942924
Ni 8.456201885572659 7.900579732062244 2.9849055011240946 -1.0718132037420895 0.35545835448188456 -1.4096165641463723
Ni 6.91455997979153 4.560478834158458 13.366054362356472 1.1000937958543378 -1.9153664399283787 0.465027972582612
Ni 7.152365559075642 1.3576175416487546 10.972784742696094 0.1852194435255584 0.2404369692379666 1.2361028390935163
Ni 3.962804003394149 5.562155121652929 5.079361735503606 -0.33892333294133886 -0.4667400701777123 1.0254058201221437
P 2.0622910195709396 5.657915075285369 7.367512601314556 0.14865270014511817 -0.809353707486445 1.1218836380359194
Ni 2.1905008522887477 4.145377319102596 0.6162630383451948 0.07069685229492985 1.4299156807150404 0.46011202333823337
P 3.7127523147998374 1.6052200083810266 5.866287477430414 0.04957061183927593 0.26207537344334864 0.4328182206192868
Ni 1.1993793246676712 2.1437715476303536 0.8390618193749881 -1.1607111524260785 -1.05664189531829 0.6121158993437715
P 1.8375448761021582 3.122462119008246 10.531570825652226 0.3940171885916891 0.5508331412738899 -0.500776333826815
P 3.655459007921399 8.506526463077593 9.841634269462203 -1.5614245220910206 0.35867840408107904 -0.1383860281117875
P 7.843683846089722 6.353216813705258 9.657137621416055 -0.2957689090410519 -0.9577575248455504 0.39677829627659406
Ni 6.945373963519988 0.22166197239194083 13.421462230518472 0.5613965186120332 0.5765889100817553 -0.9144004980161543
