# total energy = -381173.27008923265 ev
CRYSTAL
PRIMVEC
9.18082802981802 0.00000000000000 0.00000000000000

0.00000000000000 9.18082802981802 0.00000000000000

0.00000000000000 0.00000000000000 13.43706983395388

PRIMCOORD
 96 1
Ni 2.689110487202967 8.647853591059807 8.947409326266285 -0.03341379957375536 -1.4783897170560283 1.1552064205577652
Ni 6.229329653725682 5.855679126357855 3.664329274613068 0.6024318392867882 -1.007343306193478 0.32314987215716606
Ni 8.963288486740385 2.057708207805562 6.69927972436648 -0.6720771103887522 1.2006385847486356 0.08595017890957456
Ni 8.183092524523982 1.006466654309758 12.078810802958154 -0.6198502918735518 -0.7977737159583294 0.05920479249493029
Ni 1.5294158100481994 3.6819527924472966 2.403609681905023 0.9589430605132196 0.07806434840359458 -1.010210600438944
Ni 2.965774745347626 5.844845749068633 9.850998373889745 -0.628964081249362 0.26130609937749194 -0.23499291540425982
Ni 2.225203237690784 4.064270021646502 12.04508411244147 -0.45841252414862343 0.8464819797973099 -0.4360961200396103
Ni 4.487891796967918 1.2048276286410504 10.007150490520022 -1.506158145418548 1.6693717740969767 -0.44105834914089204
Ni 3.2623522198823887 0.6139770674525379 0.444790929010812 1.0345975139237407 -2.0442069904435765 0.8324859226285339
Ni 6.493553889644159 9.163742689903833 0.4869180773407467 0.20976525118572262 0.7543989485171201 0.5706807721274365
Ni 5.382701218573001 0.043121432025208226 11.763133533412798 0.06622004747049885 -0.8499064320978266 0.9266160662457398
Ni 0.6368933327505264 6.514476997137495 4.8691504766743705 0.712653746259534 1.7077508880958072 2.9762766236047193
Ni 5.470506659584965 5.861655845523349 10.022401682344476 -0.008926098845036241 -0.13785689508119484 0.06281256445084667
Ni 8.646118414527889 7.373949410957651 12.409160872150654 0.7389491896209532 1.0387290195936112 0.06640593822905981
Ni 4.841427129724995 2.4171927172435006 0.6233552834702837 -1.7065573820083386 0.5090694270735425 -0.5134703843547157
Ni 5.23616601949396 8.138308444509725 9.485281918262041 -0.3671794995735547 1.4164284448618834 1.295256209525221
Ni 1.282322999571831 1.1780012486079101 1.5676897647778913 -1.5875482157612661 0.7132420146628362 -0.556017513688307
Ni 4.000518350547895 6.490560939647306 3.919203755081253 0.7048471057309216 -1.1733157285639664 -1.2482728987971468
Ni 6.857426834967053 1.0331920452325754 10.055214880454145 -0.04998455944824295 0.9137356107386456 0.5428424097589296
Ni 5.708648162555409 8.488740657331416 7.098306978992899 -0.2712452128680748 0.4352152600965537 0.13700508860386082
Ni 2.4749676691766127 0.1656698812368344 3.250844051719643 0.08369069345143651 -1.4105426755050674 0.09681154710411069
Ni 5.827916301847171 4.940928945878033 0.40577149103037014 -0.007169006944613459 -0.3434708431027052 0.43872712990455404
Ni 0.9663372541985814 8.55400716508487 7.041924758699427 -0.49320880589220223 -0.2375197955911716 0.003917589886851317
Ni 7.927856319424276 4.923421106479266 5.577526655960159 -1.2812269851256644 1.8852248833479919 0.5458158905649567
P 9.154543500036205 6.059006928751409 7.049825779457989 -0.08155873471009825 -0.06759507344115456 -0.1272572651884776
Ni 2.104346815118483 7.359425340727525 13.053401621718608 -0.41429625055569935 -0.18577428758776396 0.20954182232100685
P 4.207610292508043 6.991641362586657 8.126121813142172 -0.7269344245482642 -1.162024214810547 -1.2973909964800365
Ni 2.016265949260183 6.308514297047324 7.507466195633205 1.7440913743980544 -0.20618190470983846 -0.28554517443051464
P 4.945565264124693 0.5928345381649541 2.7457176377876142 0.8311654040448976 -0.675779498941004 -0.3515626189719042
P 3.2388309380052815 3.4188945217116427 9.963237671103009 1.2618046147349946 -0.6486322491022507 0.48908372798023514
P 7.168767081265433 4.6013851953148315 2.1409287432088497 0.16974654470093992 -0.21442151901081136 -0.37794702250270396
Ni 7.362308120785844 6.996452116569329 0.90365514958658 1.445348470330343 -1.0950806589104625 1.9064642523427424
Ni 7.920952336609449 7.390612614160988 3.400371282712716 0.03803612883711514 0.6954430388082022 0.4064726407462225
Ni 0.4826398113943253 5.617482538418145 11.25487645706075 0.01688057780542254 -1.401627889513941 0.7024595793353515
Ni 4.101663534950739 4.432008095646314 2.216256520598965 -0.02412363252108103 1.1581796442534764 0.4445879595607053
Ni 8.45411057331875 4.179140544225097 7.959689923163808 0.4680292213027811 -0.39148182376434515 -0.31376431717720804
Ni 7.422717970415572 0.554376966871038 2.9847763054963568 -0.38588298952032896 0.32792466783799007 -0.4082143060276776
Ni 4.96094315137846 3.84176346911974 4.567770510902327 0.03747974211301287 0.4471508351918751 0.6279173851524025
Ni 4.253211466233098 4.626604930411012 8.179816805018225 -0.32386386750505514 -0.2828642851642419 -0.34762446025976257
Ni 3.043040595573126 8.861564910160235 11.338643251742605 0.5269828170188537 0.6808929089081692 -1.2385086203215316
Ni 5.56106634906029 6.391949663830754 6.162482207354257 -2.9452050990108956 -1.207803477928191 -1.8167659192446455
Ni 5.888243524022998 2.63960746148815 2.8415636481469506 0.4262739917428659 -0.18698013497040702 -0.8763653976203036
Ni 4.6175985379358195 4.221785491266144 11.632767608979332 -0.2572365572938086 0.3890158787223558 -0.35694882298448205
Ni 0.870440749284083 5.490089366159466 0.3736092136408772 0.26620225112752866 -0.23632654661401878 0.47916878285936826
Ni 6.3222579968794985 6.794593246689567 12.338656701902705 -0.5708268107869976 -0.03269851867428562 -1.4569526302281746
Ni 8.04287373525425 4.362858097559518 13.305158292926267 -0.5271070013015439 2.5969694875296954 -0.10189153273017935
Ni 6.201924881515235 3.5743626666401864 9.253599127938179 0.7989919046361466 -0.2644801262300993 0.8444222690548038
Ni 7.863930212589656 5.59810181006429 9.734955459548578 -0.14464717853015088 -0.9092724327609695 2.1227547062414924
Ni 3.4380824526730613 0.16373180840144902 7.019914641145884 1.1311097846198777 0.46503285767861846 -0.5289502251578696
Ni 6.086007744520563 2.3814976571583357 11.909732080206497 -0.7334395726566336 -0.31378205778902085 -1.18295196610215
Ni 3.0922131114723395 5.164041433066735 5.755486911923334 0.7489312405343295 1.2123612725022024 0.5675160012462097
Ni 2.5406381333713615 3.3527282927934894 4.670577425211398 1.636843462451968 -1.7053348224551468 -1.7449596359356205
Ni 7.687144184554695 2.977480301316912 4.475444430079166 -2.094784189170496 -1.754443921276972 -0.9857524673965797
Ni 3.1606286433022386 7.07562757906276 1.7209664460124203 -0.9721819278009967 0.3155820871122372 0.8359743953977667
Ni 1.8458238735191645 1.4091377796532043 6.014848981221156 0.5722110927290339 0.4239921376872246 -1.7669317693313378
Ni 3.3637544674751467 2.2760833876372812 2.4560138493345804 0.2539270333046014 -1.2139404440638644 0.3222651555593675
P 1.4019216486791972 7.418733490971909 10.936552354742107 0.8719001627600984 1.4200997230658832 -0.22355562010159563
Ni 0.39949180453390604 1.4771952591828659 4.073863987127211 0.38319618671678524 0.8394651821598446 -1.407812163947782
P 8.646944689066899 2.2762853658579276 8.958642069582694 0.9260563370875278 -1.0952668067793394 -0.33195564337425415
Ni 5.376752041892141 7.5058228273833985 2.1021893204888498 0.6398100228249305 1.1305677960734786 0.4762402963586637
P 1.0008204449598668 8.75020146395832 4.78133952716548 0.9936431829985661 -0.9388738005671702 0.0754744761892313
P 2.1280333519033916 5.3705458020213666 3.6540504193478025 2.3287491775308733 -0.04468500161220046 0.3741577306636008
P 7.30703953495439 8.258118252665948 10.799937958628092 -0.17902231357591103 -0.45645822863573 1.2958545052308523
Ni 8.419902807403801 3.0671586312839616 10.90376578103425 -0.45193617239566036 1.1693045505220443 -0.28560610957543714
Ni 3.346439425468814 1.9459683476469873 12.060953174004538 0.865967085105115 0.8913832111853746 -1.0892805072889173
Ni 0.3893616786856625 6.968992259389615 9.009326667888292 1.066501304610873 -0.4177117039951516 0.401704787043934
Ni 7.524514993621412 0.6261425829152054 8.024416598218444 0.7828497476586453 0.8029735149917139 -2.565919045981794
Ni 3.8235487059487094 2.909046407830591 6.521990586945545 0.5309806253243372 -0.604746603462894 0.21392940986574124
Ni 8.235212086278993 0.1830969293473435 5.5078414155886515 -1.6379433803843664 -0.0005270761480636084 -0.5211271295690252
Ni 6.660819398824101 3.203328675312552 6.540157609809877 -0.8909931748358074 0.7036713402552655 0.7167788241715011
Ni 1.2878131348421316 0.2650780529421186 12.535482641757085 -1.08732981132045 1.0423964411428692 0.3339983848358957
Ni 6.94754584468824 2.4868843841947568 0.45959317833573765 2.9569046468360107 -0.8119816320275951 1.635359935927906
Ni 0.3548206487066464 2.8428067322867476 13.003321121909305 1.9676513653750238 -1.6774409242583563 1.0373923030600585
Ni 2.9728164405856203 7.6909175049495 5.3077773976241795 -1.144332711068055 1.4850743281650551 1.5034482026865525
Ni 8.633917093835198 2.9222484387983036 2.3014206373345645 -1.4647975801938902 -0.030159554302515802 -0.537038658592959
Ni 0.7714714211672943 7.729045484510634 1.9814568390974 -0.4143304462277445 0.4393724767980368 -0.7785017551025948
Ni 1.2474542140256748 1.903332581434152 10.815618813212831 0.8838408800617423 0.5679872844556735 -0.17068859689923507
Ni 5.307693852087457 1.8328421824285208 7.924632930639322 -0.45243548062958205 -0.8572746995374397 0.42091812674759127
Ni 1.3239764171660677 4.086689604138264 9.61130806520007 -1.4759487117147034 -0.1692840032422246 -0.8582005537858188
Ni 7.6196375547177055 7.287319115956722 6.228552037576193 0.6394359273149632 0.128995588035823 -0.009844496894247563
Ni 3.988950507001777 1.3053668783819554 4.561011585173238 1.39044076254887 0.16106650042843873 1.7806380631738368
Ni 6.5503281313022494 5.555401778053977 7.904383695936688 -0.0013693695437008674 -0.19726660449807962 -0.507082735660817
Ni 1.5607867000458864 1.5387251698543611 8.276845306051165 0.4203841086209922 0.37077621578587755 0.884120358975374
Ni 1.715676452797124 3.6401800240863147 7.245751998147671 -0.149330185828117 1.0859534997982137 -0.7375150282775879
Ni 5.822077295104846 8.267234815079675 4.59410755279181 -0.16793031742780756 0.8616214065419097 -0.4164732036023602
Ni 0.4878352420790461 0.07144153280831193 9.700556732406834 -1.498983996267612 -0.9633545593173538 0.690651788067146
Ni 0.20573226130206912 5.527234997102 3.0411043589033833 -2.970109832672375 -0.9506142289325499 -3.130553869025466
Ni 3.9203421777794425 6.824476842517039 11.668496638128879 1.4233480547998518 -0.7560033168897624 0.1502493552082767
P 2.589103725498312 2.972807259757409 0.444135417876532 -0.3923385153376856 0.1962350779097717 0.8082460762445629
Ni 7.428143839888393 7.746782844614682 8.772216171925967 -0.015831567715617896 -1.1105371026748487 -0.23907325612122055
P 8.852898208328858 0.07312805095071026 0.444532029655256 -1.0000724835636778 -0.911492837451056 1.9235278926932486
Ni 3.6008309943730903 5.463061007905678 0.12756668991187076 -0.7892607933913117 -0.8161033675054524 -0.1730648104408955
P 6.848099113504469 4.416878090754248 11.42848316428617 -1.101356207506529 1.4493367655541298 0.11934700920246544
P 4.508567022099551 7.896999555806416 0.06688141543580647 -0.09280936792325306 -0.27936629931331236 -0.09316366593887826
P 6.201015979522326 1.1912675453731012 6.076512013901714 -0.10501799417430302 -0.725600279117873 -0.9856874184865992
Ni 0.4716733120960411 3.7186852861203272 4.917282804737254 0.8196751440171108 0.5631181292888302 0.14871723483446647
