# total energy = -340885.6469508535 ev
CRYSTAL
PRIMVEC
9.14071554020453 0.00000000000000 0.00000000000000

0.00000000000000 9.14071554020453 0.00000000000000

0.00000000000000 0.00000000000000 13.37836115077887

PRIMCOORD
 96 1
Ni 6.312331339108739 2.2874731997099524 11.095745467045953 0.5700133137467667 -0.8021139952048959 0.11777272273681005
Ni 4.749131874377738 0.2567462456817079 5.67559549445455 -1.483278155496581 0.4343503409930971 0.02690428059001173
Ni 2.810596348945722 1.7072297191868453 4.803660812815027 0.10124130074069015 0.32819669055245415 -0.7529264777366517
Ni 3.505491824241924 4.813016335150214 4.746749803913107 0.5739908103372761 -2.146597060076729 0.3522532172810256
Ni 3.6203906183340724 3.1500733826599845 2.5901177202345327 0.44957975634834185 -1.0467518898980874 0.7885308572038227
Ni 5.547637360098324 4.605348419240946 2.367996504944317 -1.0701859525513118 -0.09294769327333025 0.3303810997982826
Ni 5.448552003856568 4.598483741885082 11.610450931358933 0.869240099429432 2.378365812116736 0.292132083619413
Ni 5.580251433075316 8.047659617805468 12.280278908411834 3.323193516274496 0.16321748533317054 -0.47962438233954824
Ni 1.9689009823909756 6.58920361222339 0.5955313272310718 -0.37393867267425923 0.3578492233115644 -1.3034557146168777
Ni 3.0900554445526622 1.5696436691729225 0.23533594771814081 -1.388897586431466 0.8575382376114716 -0.6214698297548459
Ni 8.118052268028512 8.987882756955225 6.893976091321131 0.06040755455377984 -0.7527583275899036 -0.39474481078633306
Ni 8.932060407271791 2.378121675526327 1.3289942235227397 0.7925320079434156 1.5343271516535961 -0.42972981150195017
Ni 6.928031655135699 0.7949963650322822 4.656418510925293 -0.726889944463574 0.38418554721324805 0.5041892161631059
Ni 0.5207767275616682 7.328696638543903 2.3627387653769496 1.1957938550618243 0.19874010371981254 0.5694836664955418
Ni 7.6484205860184575 3.976092422097147 3.57515321722333 0.6219483120531611 -0.45620137542991757 0.12181758223014504
Ni 7.663100575144312 3.7662215937474475 12.58617478144704 0.9771966074067688 0.2423190167520278 -0.6683821780356682
Ni 8.721997623896163 7.211028207649057 9.219630973831585 -1.1722435785457102 0.1278509329084185 -0.17077215775197685
Ni 6.816780006536214 1.0965659374116565 0.13848732456423993 4.221991531866703 -3.0749172534977687 -2.4167287281656504
Ni 1.9860946682849556 6.520236913621539 8.904851239382047 -0.6066726168410131 0.2111706161736815 0.39070149395489484
Ni 0.08609639948718703 5.017229060592751 1.257394998850998 -0.17437710149441582 -0.9396996389025751 -0.25406381599278177
Ni 6.634523279773817 1.7561142657902509 7.154734197044768 0.7023330810598162 0.19139420487770265 -0.33756296225870247
Ni 3.748717123525772 4.529645013300518 0.5378982018030367 0.32255260489279935 0.6219148877120645 -0.45043413392883713
Ni 6.019545080272971 5.554246097419615 4.563185040759732 0.7521183800130595 0.7157658095259544 0.5927336381624179
Ni 5.3735707144422555 2.978904343823902 8.919607096446722 -0.12452675363119199 0.36683574308089084 0.14084863071966713
P 0.4865164117194423 5.792480566029292 12.308372897563958 1.2488701660615138 -0.16728702741685383 1.626263887163909
P 4.328229346807243 6.228465274208543 12.561759016220348 0.3524051694778576 -0.6552435837711813 0.3918716030035961
P 2.3834141498126717 8.821028135844799 1.2496674379500035 0.1461391896946451 -0.8921015774086378 0.3850381250215304
P 6.382266953555757 8.029414749626635 5.723851159830148 1.0647974345458886 -1.2446954658585339 0.4018274286647273
P 4.735612756122982 1.0473888879115965 12.069957442786976 -0.2649609225212598 -0.17716494865219812 0.5427534495895491
P 4.065479479171699 6.227121589027036 8.093788238679457 0.04193752077405036 0.9548066697473427 -0.3175813769304531
P 4.845054543049417 1.463172614790636 3.484928870607104 0.25737179732009224 -0.36313798251432944 0.5674514665568614
P 0.12154318020396829 5.556906045636068 3.5879154842329917 1.0602931189176321 0.04000919340308594 -0.8416891863943569
Ni 0.26216851812844316 8.980268540926684 4.894687714253948 1.6264551772391087 1.1919156030533409 -0.8878214619760453
Ni 2.2765591853785265 6.902245696652489 4.243161277816107 -1.4345956026892133 -1.0961723493127447 -0.1108816520439316
Ni 6.163337676125285 6.041025761746047 9.149273972399074 -0.10231679319305603 -1.0093024868023779 -0.00038180881945095536
Ni 8.653359991053051 2.6764197858209298 10.233737602461645 0.6340954889386563 -0.9123374448395384 0.12027312056116062
Ni 2.357052326251673 5.436449696507482 6.677380438563032 0.2352839642821174 0.6677828538887725 0.9329774896873932
Ni 0.8697619335603104 9.02173082652748 8.573322057812822 0.27786786039091504 0.9446325574278183 0.39557219178363484
Ni 1.6017550027962888 1.3852205928321766 11.263376134904068 -0.3277264357842549 -0.36075097033939163 0.6097522842076015
Ni 4.262726979387645 7.081723645896668 1.3669336773619496 0.3911118420194361 -0.18282060427607869 0.8676367594980541
Ni 5.617161642346922 8.34234714546949 7.904671404918957 1.0214460641434473 -0.817751958852469 -0.6631363562556966
Ni 5.148480594750996 2.655332155115235 5.648330568200129 -0.3658947193238602 0.07822838478528463 -1.815391921715254
Ni 0.9228832018074479 7.32483925659427 6.614381713124489 -0.7021047670990941 0.6929470118592259 0.23242438334613522
Ni 5.387080691981493 4.897120058653941 6.899675327448136 -0.49862432048081873 0.4826348870310979 1.0537262643333916
Ni 1.0340800061138105 8.02605096631511 12.00075125743849 -0.30611142861764057 -0.9637337970336434 0.17435499000722876
Ni 5.2713500927769825 0.550777469971361 9.867170230159402 -0.6933666158951478 -0.6601309937704696 1.0097711989086802
Ni 8.180117726412416 7.08176020875875 4.654519070240141 -0.594989266965814 0.11421842972664846 0.9197633049899644
Ni 7.568658702386947 6.104910222518522 6.901642409428139 -0.8487468645720866 0.7719858083609479 -0.26832443967685404
Ni 2.4034597389490346 5.274375669614254 2.534731382681426 -0.42872733837936483 -0.24249539442889204 -0.2320870546113745
Ni 2.522325603577061 5.868421630573252 11.39909930709492 -0.8655922182641995 -0.475728903939884 0.6225954587188569
Ni 1.0606063625541775 3.4884626712273126 3.675744963382858 0.07200991467939856 0.040570208112878516 -0.07362096792026031
Ni 1.6712884257604073 1.3327346043137107 2.6351622522477935 -0.8183183728789003 0.09415996841387654 -0.8808139203099604
Ni 1.377533251079472 3.5331150665447466 8.2438266854469 -1.4007236325321166 0.25493824817793515 0.12922441621717745
Ni 3.629257112388916 3.4495049416791237 7.173450726144457 -0.49813735354207117 -0.9399948015454908 0.8541073575530516
Ni 4.296309968209806 6.955919978188615 5.772548321765384 0.045452218795528174 0.3416713280001212 0.46295669187588007
Ni 0.3690627876393266 0.24039350561560982 0.5229677570719218 0.2912841337968209 -0.30332975210744534 -0.2073980365051267
P 0.2654271832114862 5.529968356997281 7.79907603108353 0.5888960095838826 0.5844953094130256 1.596032084862561
P 8.8554794926414 1.895729554649715 8.025223731560507 0.4687699561235475 -0.5301509303341901 -0.6038084079193408
P 1.971067331969324 3.3781707977574755 10.379762361044055 0.2716560751532483 0.021703453115362623 0.04214757990232741
P 4.32138295088242 6.240320782238577 3.444272796115214 -0.4352720814764181 1.1422403473154006 -1.1344277932495173
P 7.044118742245506 4.19744398914054 10.388872912203293 0.9787138153822434 1.0582449781393515 -1.6010200249954556
P 6.676022128236693 7.789087057162774 10.238580353544384 -0.6026208153691428 1.378737615179329 -1.02021193462603
P 2.4735324641288603 8.476002687809618 5.521115574015718 0.39741772963280586 2.599943482556355 1.2946291174641833
P 7.151896918947218 3.826522894035904 1.2572057860397245 0.4056123496284563 0.45429001733981755 0.37033912824845894
Ni 5.483560944299919 2.6953410669482762 13.37699658170113 -1.6250166450203691 2.951930847770503 1.7536548497167732
Ni 2.2182505610735297 1.3921126923346012 7.087494179604732 -1.0841452429448815 -0.4158155154137032 -1.1921991957320306
Ni 7.5301671493303015 0.5943101276375388 9.07019398614539 0.024804460638189536 -0.7557876013345307 1.6452116319110055
Ni 3.028474444091341 1.6893687610598718 9.21187142042627 -0.16870190548650946 0.48823783504017215 1.8046223419035758
Ni 6.782694278360429 1.903005564203999 2.2122862441964313 -2.040268574621119 0.6280911917261054 2.225090268487626
Ni 4.039364454929752 7.319565063738966 10.143206127803932 1.1263355031596862 -0.00406105744325107 0.7204061365114431
Ni 8.349339792842642 7.1994194989380755 0.2839526713567969 0.2615691232308915 0.8118736456948211 0.4641792514290715
Ni 7.615148381523993 3.8853342576945264 8.262288188583566 0.573866883164902 0.26944261244169726 -0.8149880229540868
Ni 3.4665615168402972 8.147275135547414 12.71781753822956 -3.207842001384669 1.9991748899046022 -0.7113208863807233
Ni 0.10324803808977305 5.046259973085722 10.228706552639185 1.0532812063761732 -0.9116440183169396 -0.6952427498719382
Ni 8.892142902593955 2.3836061048386012 5.508420034229354 -0.35868226073582093 -0.46392908309147846 1.4042570996066719
Ni 3.8819064893743547 3.2324403702148246 11.85292029346924 -3.8079109968662355 -2.1223209611381835 -1.6739105425075946
Ni 1.0981198590501342 3.517018266513221 12.39032946699193 -0.029785201682232573 0.48314679367050983 0.6697235225549111
Ni 3.2396706761915066 8.523598393524638 8.201189817901726 -0.4594862168287764 -0.16269272317795208 -0.7655981596670491
Ni 5.74466548314178 8.151525568264425 3.2967626712607307 -0.41949296426529037 -0.17444317884566088 0.705585783669159
Ni 3.3399351847354026 8.911859425971581 3.338770657578096 0.5628944433137983 -0.42487222629933274 -0.4387212163672831
Ni 3.506698398690625 4.661636945415922 9.545527646497105 1.0469814894103906 -0.6244661933790083 -0.17830471868359613
Ni 7.828255023167933 6.414945011541391 11.515584929401419 -2.286141627272992 -0.30295951325222015 -0.6877916929105317
Ni 8.007147966618803 9.014025203343733 2.565501773337941 0.2417253490320869 -1.9893730733228316 -0.8389504473069552
Ni 4.885218847046306 0.46101290134581446 1.055618274094664 -0.8201952781866392 -1.1972884373294799 1.8094025369010387
Ni 6.356992875141693 5.863805569235421 0.44991790084708344 -0.6251938155736524 -0.18678627379204604 -1.4068616271090546
Ni 7.980356529428343 8.915086098550303 11.603695028517762 -0.3195536701654754 0.045817315444430774 -0.13850661285005178
Ni 0.18302271872301185 4.763391390589652 5.732440690204721 -1.1410514692136218 0.45537219466040285 -0.49557936300690775
Ni 7.371594016481408 6.416846280369647 2.567521871467962 -0.17609434129583867 -0.4754154864645231 -0.5919893037972256
P 8.576020397034462 1.556261661650973 3.5374925552074936 2.060000505832407 2.2171712707508653 -0.20038920928746135
P 1.99417506080504 3.3534177401280774 1.1951586090868607 -1.428149075732921 -0.13203566041372744 0.41138910421123337
P 4.526710843618452 1.2155871942035306 7.760626525318279 0.3327822530406075 0.5608146779666342 -0.5051310112510848
P 8.717418125420414 1.6592775255665264 12.285871198167248 0.08966465164668427 0.6649104174369839 0.7007474817402513
P 6.496480193983871 8.108427094585469 1.1956485514387571 0.11314216594333416 -0.5556745285265915 -0.5037307884694485
P 1.8867807941551873 3.4650532987794214 5.854705072863253 0.6509184740332661 -1.436688737772816 -0.8393757077698317
P 6.8948599985119605 3.948834808415143 5.834196049450004 1.9078619040212175 -0.683839393131003 -0.322540006487309
P 2.2911386266336558 8.640636115048574 10.474641160003296 0.8497025436171367 -0.27374946734716726 -2.205884899203769
