# total energy = -340892.31868271244 ev
CRYSTAL
PRIMVEC
9.08928854621811 0.00000000000000 0.00000000000000
0.00000000000000 9.08928854621811 0.00000000000000
0.00000000000000 0.00000000000000 13.30309254675947
PRIMCOORD
 96 1
Ni 6.5056673273071155 1.8953802399102837 11.472587191542008 0.7222755856200141 0.9141228188747352 -1.4129209459292569
Ni 4.797971805464378 0.6141114144477284 6.175242604906363 -0.7724447502752374 -1.4468474234733728 -0.2927249800084055
Ni 2.6203691578831507 1.5494328306232048 4.647674966679076 1.700988115450677 -0.22685717367100286 1.8393332630222
Ni 3.448085214390543 4.4488431452051636 4.872856635490767 0.23684693789386307 0.015200618999838336 -0.6832171861659717
Ni 5.103817273925557 4.791282089134401 2.618966680668863 -0.7819547466482017 -0.3615624104970935 -0.2321698441331679
Ni 7.359496909651501 5.833078157489579 2.861787931656626 -0.3734136534087246 0.07025822209561448 -1.2468644484853946
Ni 5.361780370611839 4.3510696688986785 11.6657745648625 -0.27111202972432014 1.2930877411189923 0.8778466101515204
Ni 5.601374015256158 7.6531354636681685 12.483715091596943 -0.9327746296479676 1.2128433543449435 0.6235979318414422
Ni 1.7754743461262228 6.5110390968057805 0.4862223985813039 0.6045702257860298 0.3115197441174054 -0.9718176024830424
Ni 2.733012710162249 1.6925618565038603 0.14328081699846898 0.42214865672058266 -0.3207685164091831 1.6556742220052263
Ni 0.6662030357231857 -0.0871790016404217 4.971259090560886 -0.4420525947333613 -0.24265763103836918 -1.046803054850997
Ni 8.682233796000276 2.1249756672136026 1.3087302927828846 0.7323095728172484 1.1509476452814114 -0.06030522464796065
Ni 6.799224077727357 0.8081459094556592 4.731670899489662 0.6465825656620735 -0.13253136910322338 0.43959950520717844
Ni 1.0144827564372654 7.4205314818740575 2.5836338895146196 -0.6573629441070291 0.7045223754016511 0.026546897250592987
Ni 7.610461254199083 3.5032299276704015 4.046587593711273 0.02343123443974674 0.5337111368816227 -1.2780902392688955
Ni 7.563578704158287 3.772281956316702 12.846610388205866 0.5694168178133483 -0.144145556303384 -0.6689797024103511
Ni 7.981622349762465 9.095741886647037 6.9733212184284845 -0.5678433026786414 -0.9998153732475489 -0.5607185187084022
Ni 6.948161158954283 0.7804726617134705 0.14385980467539777 -0.9156605956755004 -0.6438903635418911 1.130060517419757
Ni 2.0720396510372554 6.405576082435218 9.334513859611695 -0.8837349506114973 0.7561411280192075 -0.6907584888483395
Ni 0.041342628705033475 4.760005847434055 1.3486140906849813 0.4177862659868289 -0.3494841391763207 0.3921798782726343
Ni 6.349322475959357 2.2068701565248814 7.174956176473273 0.6498905469893839 -0.5065996253768114 0.6489515801148824
Ni 3.400457342693417 4.25022401308196 0.3539750688830526 0.04766593861739533 0.14886635881782104 -0.08515159426767915
Ni 5.807064613825996 5.5479017310587935 4.829195329291471 0.705545674459843 -0.05337867273145646 0.37082480963562586
Ni 5.3989737391203585 2.956763724965329 9.530508005218463 -0.8090096938834648 -0.024411338964828926 -0.5773823525173282
P 0.1599905649618269 5.683213968836486 12.271583823201802 0.572609099498401 -1.1898790322392863 1.0571532877370697
P 4.127682225635271 6.06183737025165 12.786865586020298 -0.27700294128745845 -0.016444518709268455 -0.3403135284206462
P 2.544355438226078 8.82330864268178 1.2025637674830552 -0.11145732204174354 -1.2668648028667213 1.0844069812467
P 6.382498378954493 7.9356669071478345 5.878876355413301 -1.0051288150406625 0.0868210115503021 0.38246265098487037
P 4.9079521962153745 1.0819707234890128 12.57505426058007 -0.862054123203954 -0.8283639300403605 0.9654618354683437
P 3.9800267340856905 6.301685514973739 8.252161386006026 -0.5555452020375788 -0.6596645956570123 -0.20217278355044535
P 4.77183101176191 1.1087841245398755 3.6565407745195917 -0.514600641304417 -0.16119094182144497 0.8328132240609658
P 0.1942171897066162 5.711227155968269 3.747388212995311 0.29523129137002707 -1.0219042347267886 -0.10897826437363166
Ni 1.6073588661815599 1.1298530952639092 2.6799476260893185 -0.773551610186171 -0.018338136187555514 -1.6415169566682373
Ni 1.8670943741237465 6.482262409440685 4.808921671310472 0.6586955468755236 0.8624169058600114 0.14053675590620313
Ni 5.812527276209578 5.490930070792079 9.484825241258585 0.350140541813397 0.37677588501273823 -0.6075467919158505
Ni 8.805411833641392 2.359497488879487 10.139683936015134 -0.23997365644830285 0.9751137567358109 1.4813981648650487
Ni 2.413706005444688 5.364970710872468 6.839572338271385 -0.6563458156964245 -0.2393123687152201 1.4164071047056446
Ni 0.3268599034542616 9.078890345783206 9.538676548786057 0.21347432460619364 -0.39314532750969705 -0.3818468717777424
Ni 1.6129578678925196 1.3105299719042645 11.309518084568001 -0.40040329462369106 -0.06543791788883568 0.041654956536625036
Ni 4.274265181142818 7.054378584269667 1.6022906789185223 -0.10676300188986775 -0.054178028704300246 -1.5430048819332522
Ni 5.425341765035122 7.895710394937803 7.9684856011052405 1.3774646620041762 0.153868954238735 0.45971735900297594
Ni 5.2644522694414535 2.818751968505567 5.01891059440809 -0.21488457469015892 0.35189146306623265 -0.6334200601381865
Ni 0.8901449255845939 7.763024961534246 7.309770321241615 0.14398331969390685 -1.3058386130267574 -0.21483418106819777
Ni 5.170432669282091 4.69622631008697 7.282378841442672 0.002499369383086018 -0.5834560695152339 -1.0315777532608106
Ni 8.027114238664014 6.966603325304182 9.197651898146148 -0.11527489601562081 0.9868685832788939 0.7433961696487132
Ni 4.410613597808577 0.308196867394012 10.468788893726876 0.5683868338869372 0.2859059002040431 -0.14888821319469198
Ni 7.8493732022065155 7.320431147713667 4.519645975769877 1.7524600580777236 0.6641689112852691 0.6218436681544969
Ni 7.303434178233968 6.2179277215216375 6.9988630280193425 -0.28160701571837304 0.08753140735376537 -0.9858519690889216
Ni 2.41741443514935 5.32493239506601 2.5631602671868 -0.3733519469328538 -0.5683642081791179 0.05170308480124644
Ni 2.4545169107729503 5.328186360346081 11.491982824254698 -0.7190329103130003 -0.6547558455014854 0.3106854211415682
Ni 1.0992131037579913 3.2930583098740978 3.862233190947128 -0.4951962686358762 0.9020036670136982 -0.9465847960581827
Ni 3.714028706372641 2.850691728265815 2.6881688875301677 0.3497649036415331 -0.5109152220330297 0.24650965779460768
Ni 1.1056028735677392 3.2604913892079144 8.085101172455264 -0.4411311113603564 0.8858453120862809 -0.23987569741785786
Ni 3.690741949256604 2.5905199344760206 6.945571620662965 -0.47167607402674894 0.7877474420705788 0.13243135319024935
Ni 4.222801629702145 6.878000941085942 6.04644193340421 -0.20502465117694368 0.9539543490493763 -0.35874088188789827
Ni 0.6092122879506386 7.668014628929274 11.589707218403326 0.8460760026081429 -0.838108411021634 -0.7470875024573714
P 0.18603228541973424 5.7320688944800064 7.970561594596772 1.502375024227032 -0.4201215989882249 -0.3940146174885279
P 8.604484022241266 1.5781004465263981 8.243022106427503 -0.6268956287561074 0.575884427815563 -1.283547662839041
P 2.1189494689435273 3.326443266504545 10.407767955437055 -1.6516720428243685 -0.03190019114270635 0.3590026201897172
P 4.019437888986213 6.456621526605266 3.6138647471928085 -0.03291217734698848 -1.276573031293421 2.0258950795082655
P 7.087572665841786 3.8996683345295287 10.4710366747709 1.0374954042968263 0.35390052307646147 0.14520767901931123
P 6.131733998753729 7.732257719989442 10.183823338789098 0.611018809624851 0.09594611378002185 0.028097272456848385
P 2.6387476992136065 8.572716958962364 5.990449189508063 -0.7691395971614045 0.1301258449855243 -0.5721061917200534
P 6.921320490037945 3.911529856011351 1.8205144973897278 1.1541725799766123 -0.4489914879450397 -0.3499024576606619
Ni 5.3900662363983765 2.940012166274909 0.5970744520986652 -0.3633567833933549 -0.39406835354459874 -0.4656630350634497
Ni 1.248577381544034 1.039741889156027 6.987209651243982 1.1402626547637396 0.7366117997370282 0.35170351542514267
Ni 6.693515652567515 0.6513365954659684 9.217739225713066 0.5549222237415992 -0.23963607060322598 0.2892035971187084
Ni 2.6173787819693426 1.6201565843780392 9.04598348572743 0.3048693286804233 0.7031278090469697 0.774553311977808
Ni 6.507103434888823 1.7892991539222778 2.4811194403308026 0.12039447663037332 0.6989577368296801 0.2573124048370665
Ni 4.180836384735422 6.828028032957928 10.565422573256486 -0.5125090488827109 0.49445861913890327 0.3281990045452993
Ni 8.240239875220157 6.987272367334576 0.5557290966070841 1.4403774994783127 0.2715817702718871 -0.7127661034676822
Ni 7.632739100292529 4.177746026648204 8.305666391641962 0.4712574984320917 -0.5685886654850981 -0.10344833569433798
Ni 2.8493737814345015 8.593240572376887 12.239909470665516 1.6848837536896466 -0.8370054077654424 2.318762755742123
Ni 0.27769139735777293 4.837819246212509 10.079686451609494 -0.24706887273218742 -0.15994524233980195 0.7927240693495639
Ni 8.547930469245177 2.1901549549884285 5.794467768905186 0.6481985039989417 0.11369495312301066 0.500396581889893
Ni 3.843878281766751 2.6947740734771717 11.626064372370598 -0.6995100097887244 0.1659449115666626 -0.893815474775951
Ni 0.9286616944975212 3.2887045406865165 12.661696994199474 0.4022938267781846 0.9498009890026353 -0.2699048967900965
Ni 3.1169078989026677 8.602920664620674 8.235239857620808 0.31970510814167524 -0.9133756562960657 -0.7210990488134097
Ni 5.779360462502935 8.038612188606162 3.568727340542441 -1.0376154748144581 -0.432118623449101 -0.7308669268334509
Ni 3.086704193244357 8.422634627385467 3.683413255945651 0.6418990441434751 0.1263820616723759 -0.24638470218096922
Ni 3.349084684137663 4.282436451496962 8.972842890162621 0.6647162991483068 -0.03373647302049674 0.10668201214028723
Ni 7.18444630258758 6.18328844307932 11.496944666842381 1.1584064155523017 -1.100214380592602 -0.11435495530451273
Ni 0.583818633762198 8.958066433861472 0.30013012385752363 0.30293765887534924 0.7692766369599009 -0.19558381747901799
Ni 4.77247635124483 0.33405225743783706 1.5417614711361105 -0.6661638302281108 0.4803445483350244 -0.7812618343462352
Ni 6.366646659824761 5.620552413973893 0.5088601804990255 -1.781310920871145 -0.0637391900301741 -0.03189684870859668
Ni 7.6401741382788355 8.697276568454235 11.452193554952917 0.13074419529581355 0.3938372113703991 -0.5513447908029858
Ni 9.24826014753974 4.714904797937655 5.902861169885511 -0.5442084368685207 0.08591418346531655 -0.1372925379372926
Ni 8.027359649453292 8.968310061991751 2.0554607888281797 0.8872681605757363 -0.8272115616034721 1.8442276150000236
P 8.616036507914368 1.4323446162716071 3.4839606360677475 0.11597217919296156 0.261626201721072 1.1791223079434145
P 1.9363911095853659 3.268780820312452 1.6081041878378888 -2.027417686800379 -0.10063709149778798 -0.24476387874809458
P 4.729093177273383 1.2087662979498717 8.402898146354334 -0.48869137763782294 -0.3750694438445928 -0.7581046795034815
P 8.662255539895261 1.5058860494589053 12.329797989205348 0.27787017438376016 0.21876102692642974 -0.04501204593431603
P 6.440569843128716 7.85369970352862 1.254903526334339 -1.175932340251207 -0.5652763132824135 0.661287475972416
P 1.8507791012809336 3.2090551056327175 5.894148177937254 -0.12010908417947058 0.14656907814321207 0.9592618773052188
P 6.964267378161786 3.9177196614742793 6.074245157971831 0.01807074145878178 1.399494902331338 -0.06007382536344493
P 2.355743612732366 8.446094080982848 10.278394658759916 -1.2284723191314522 -0.0270559756765276 -1.2914828585257179
