# total energy = -381164.5079033536 ev
CRYSTAL
PRIMVEC
9.29507780951910 0.00000000000000 0.00000000000000

0.00000000000000 9.29507780951910 0.00000000000000

0.00000000000000 0.00000000000000 13.60428593509326

PRIMCOORD
 96 1
Ni 8.97811542533476 2.471245093355473 11.66717114189173 0.4725325084897733 -0.2718949306369317 -1.0655309702778037
Ni 4.84816373952563 7.4804646419449545 2.6497607761277306 1.6099582080253498 0.7327289197428541 1.9916742106521828
Ni 7.2031645927845735 1.6348368332526435 13.323887658237545 -0.10889881728594794 -0.3610548747330556 -2.1965129710705655
Ni 7.450162689065163 0.11628327942232418 9.824729680609986 1.6116893317838437 -0.4485651990408984 0.6349035866622484
Ni 3.85913030571538 4.136820748133721 8.83101803425851 -0.537244861066494 0.5916992833606326 -0.009627238677118904
Ni 5.476873491315896 3.5325012798884172 2.124758063806919 0.20138833997593703 -2.0404758055359182 -1.689733368472464
Ni 3.7729928218696642 0.3128407077589004 6.713320511374134 0.4086166836724189 0.9884840073951299 0.06663733751357556
Ni 7.203266838637849 2.4090331391761937 6.814604324120961 -0.6376839776208632 -0.30191384559652523 0.05551345968627214
Ni 0.19106589650793165 8.120625929302063 11.918728473720645 1.154760077048966 0.31970022304566875 0.9851215186808001
Ni 2.6997645754259305 2.646373649861045 6.136375976081674 1.521956031682753 0.5378935503940865 -0.1361864493573074
Ni 2.7914326304260872 1.462124996915398 0.8400677321423309 -0.288037087614433 -1.6209527593636406 0.018597046275897002
Ni 1.7123205998802347 1.531187423264127 7.879969864447818 -0.32071632301500896 0.07335305897085433 0.23815768628548661
Ni 5.08777224913768 2.741964227595948 13.363720783658119 1.5015622985177495 -1.0849237729821186 0.9759087418332805
Ni 0.7071983163032272 6.5171785730049585 3.0745002752189565 0.41706841398419786 -0.6061049172630013 -0.3688527735109196
Ni 2.181972984284303 6.0359817022583435 8.937226379102182 0.865495287675019 -0.28937688947177903 0.5196448885965438
Ni 0.280423195224065 2.302195517581 6.1295877809319474 -1.9470172340644403 0.7625758279009576 2.1500999310236653
Ni 9.142619708177264 0.16160700716378273 2.8542747908646455 -0.08534648388730462 -1.4571745164309935 1.533622669387404
Ni 4.840913579020649 9.112215509444196 0.03657798925538601 1.4610658810655999 -0.8182414968943779 3.3055269522326687
Ni 7.340936232534353 4.009719857434863 11.307596643123928 -0.16260787677362962 0.468990813885102 0.9493708434437522
Ni 4.96387816020064 6.836334356465248 5.213706607601441 2.020175660525985 -0.5981039013353957 1.4786938785600081
Ni 0.21271227315408506 5.576182100078993 11.696556600123074 0.04947625235325673 -0.511333283407055 0.2982168563609122
Ni 7.684835512487284 8.141762935697352 13.449482746369988 -0.877102018676012 0.5429195428537682 -0.21148994718631317
Ni 0.2512775499940415 4.132312635512035 0.022659540101336657 1.0493191364046315 -1.698267116975088 -0.15331950949316822
Ni 8.396940700239972 4.466814592041201 7.3490759319628305 -0.2856523894323403 -0.34162607658448263 -0.05169100061638839
P 1.7819128456504814 6.518210326615283 12.661944286101756 1.251462095158406 1.388059406800887 0.6128633190327574
Ni 1.3364834333951061 2.9776873947835343 4.423977297549849 -1.516455156469182 0.17645840950347674 -1.3208330295530606
P 6.020523988258622 8.708771962574717 11.942712562375775 1.538479483259073 -0.8110943443266354 -0.01818052756376869
Ni 9.063918286387938 0.10829137172721823 7.466331476499028 -0.734374168655761 -0.6761785341516354 0.8502579018999743
P 3.9416705945413173 5.561830500310159 2.0725996655278798 -0.20161845370887213 -0.9078706673174365 -0.11925059283391722
P 4.726017125171841 7.521232852169117 7.478480142883655 -0.15765876029847042 -0.37712298393951177 0.18496387587132662
P 0.002369315272717497 7.701668897967438 9.324132123958249 0.4459678706273674 0.5344022494113764 -0.3273178874919266
Ni 0.5012333399575596 6.4622446645633715 7.465324819598143 0.8573474617569042 0.5193260718045443 0.9835881127554092
Ni 5.674049971818666 5.139099667481917 3.486098393641025 -1.0306853233535282 1.6034425183940193 0.670763019563019
Ni 5.533238841703337 6.3727888380249915 0.6820458363974855 0.8034072600950228 0.31508483576084445 -0.07757378192042123
Ni 6.6623769797335575 3.1455843809392663 9.089839469208759 -0.7517286007738085 -0.20946160390237473 -0.29018267320252605
Ni 4.256169544138793 8.916293864413442 4.445649700413199 0.3931365857589487 1.6016836267213834 -0.24941474725654464
Ni 7.053922827312812 7.520414885342914 8.135743443462705 1.6055803906726285 -2.150461428128142 0.2557782275807272
Ni 1.8339559849676463 3.3955197217321293 10.297205909579969 0.004748827538895047 0.4605609379501939 -0.167145359632667
Ni 1.7545016618951113 5.496941563790579 1.117259028895137 0.9530470067437586 1.8676069131559128 -1.1601354824282666
Ni 7.399959975106955 0.5635438219590857 1.4997905102465312 -1.4867823119950976 -2.0554329410663827 1.8840270063851488
Ni 2.9419757067577175 7.604721238907244 6.008645808631294 -2.4495897405597296 1.8748463683271455 2.5845934824628456
Ni 0.6805632715249925 0.5742982267081408 10.136281161109858 -3.3857667110210268 -0.28164995314116653 0.15372085869664495
Ni 3.0716513339436013 3.38391946492416 12.698634745795747 -3.8073546101421325 -1.8496852956804852 -1.0644588202595473
Ni 3.0501146392127803 6.611254053095872 4.210988960591919 -1.5904890435571446 -0.48610613340914993 -3.232605324372278
Ni 6.361997252965654 0.919128873433634 3.7037528595393385 -0.9334575146476052 -0.06221066920078963 -0.06531604759899073
Ni 0.7902628475041398 7.950154206659304 0.997422241317615 -0.4801303754416892 -0.3901227386332894 -0.09257076954988573
Ni 2.9689593169448454 3.522583432120706 1.60557778807626 2.12862376342776 1.2781128649767148 -0.13901826237914766
Ni 1.0986781688317306 4.699823596578205 5.855515912211797 1.4755255081343555 1.5091930755901297 0.26147502085518837
Ni 8.270388219117772 7.024503906802217 6.010332865210338 -1.5690550420530849 0.47625495164668297 -0.47945417531027107
Ni 2.253321999715372 8.918310896246238 12.915527944841037 -1.565756316697155 -1.0322076735353254 0.5774566573986893
Ni 0.2771578344735524 1.289942979999671 13.570995436433467 0.8989944478737292 -0.9342830958726942 0.9095454839166981
Ni 5.3477927490945225 3.8660272532726827 5.500267342545301 -0.07592261947024344 -0.07545185048141198 0.21748241732432222
Ni 2.145015755864041 8.09244325410834 10.492224073070872 0.6134567296423822 -1.9065344434590457 0.9362065381476523
Ni 4.8210592933300855 8.852808484607007 10.20815255990039 -0.8921936229018118 0.8423088222562268 0.6757491599237008
Ni 4.440639653602706 4.880194576833532 12.950082395709327 1.5271283199123118 2.5961302794578516 0.7976047944806328
Ni 4.662029811176598 2.3578637371506552 7.548976799701511 0.8997490666515665 0.645105981116547 -2.1916993517320065
P 0.8382728526634695 7.175957900735754 5.032673817823095 1.5913837874572723 0.5964702223867148 1.309135024389842
Ni 6.1769415536148005 5.2465228789640515 7.336410459265283 -1.1329962030093135 0.3567058537357405 -1.3187046703561482
P 4.84056966115054 1.7861792862553358 9.45223037648042 0.14416638223899042 -0.8657886505457218 1.806223882062741
Ni 3.530883936391152 5.542598984816819 6.762772183064646 -0.004704347454204801 -1.3488783657260512 0.7930266881916471
P 8.21364177054994 7.110455489096523 2.1083652650036053 -0.8201672531621811 1.5600975757494808 -0.9948058358480996
P 8.056145976195584 0.7834086573036616 5.548562706586044 -0.01703947198079001 0.04202905204659214 -0.7641596274483098
P 7.491339882702426 3.6101616529898477 0.026721488999640094 -1.0025816231387767 1.979737864225913 -0.013281804710570675
Ni 7.5984656517023055 5.061420704225345 2.2490471935407044 0.5157476104246667 -0.32772335046046136 -0.06409683047990897
Ni 8.617215448505407 4.60267144581146 4.514146986045643 0.577471826907341 2.560362892050255 -0.4320345483757269
Ni 2.7460075863391107 1.7717254406332263 3.3586805407970126 1.968317023983481 -1.6193710166988178 -0.4273335433556318
Ni 0.9880946309756299 3.8937544696654496 2.473694346295297 -1.9629598734366256 1.0559752082685685 0.554993957519799
Ni 2.3513385926961727 8.549472923171686 3.202407978650933 -1.3003027708101929 0.7867416265138837 -0.6441667571317293
Ni 8.038857131914476 5.839604598426635 0.06646166364450626 -0.7317205330829979 0.43666433383825437 -0.5256391585067658
Ni 2.3158128062217656 8.526988130528675 8.262290347538363 -0.49698421377423446 -0.8191005024605635 -0.84229133875473
Ni 2.7068474245346428 0.997649970718092 9.805438676620195 3.960038542933831 1.1022064713219664 0.5786355081981389
Ni 6.173074801345478 8.982186669310634 6.076177335704164 0.5697132660078446 0.3367376381439297 -1.0359172611764287
Ni 1.3676312383338127 0.32659184551668097 5.700971304986072 0.5131965618680387 -1.3902412449435542 -1.0060654679223189
Ni 6.232814264891006 1.5337807499062932 11.236758856959238 -0.047559237836201966 -0.11486429084076347 -0.43868830624681865
Ni 3.112651921107026 4.4949693820022105 3.971417631290151 0.5495558172233632 -2.08236010447453 -0.3022848557826987
Ni 3.946002100689165 7.425670159666925 12.143988172087132 0.4574308769616445 -0.5228348562887511 0.1196797099515358
Ni 8.745729190994979 2.250784443538629 9.019287971433238 0.6210954771345626 0.5159728390615952 -0.5110448056323585
Ni 3.312310187321117 7.478271003638319 1.170511457804222 -2.08503122354879 0.18446739585088232 -2.207998346002346
Ni 1.3408428247756652 3.890928766084021 8.005986019594202 0.9225033296289468 -0.3179210196580589 -0.4635133357102985
Ni 8.155649781587663 2.7471694710354218 1.9459430795368906 -0.4828477743728523 0.07243543225259139 0.04842235716744563
Ni 4.5187276002723795 6.643284890403774 9.691679010758259 -0.755788372665479 0.11234435263238716 -2.8450210358901264
Ni 3.1254326527664475 5.3350863780556645 11.076432711484667 -0.849573217128124 0.2003519282916227 0.28657181592281616
Ni 5.896676374709434 -0.00018218352038157292 8.260196166561732 -2.0250353026111316 2.9806960928286537 -0.292911899208231
Ni 6.823637280503962 5.395746054280672 9.468691958857754 0.6613651232878868 0.36117288836815864 -0.4512741133316293
Ni 3.765668300744119 0.9901581381962783 12.237707650707094 0.4232557737418323 2.3104532074351627 -3.093691448781479
Ni 7.640879090656443 2.7905031226690387 4.356772027699702 -1.0759933032617082 -2.0435220485614094 0.1275567987067674
Ni 6.8422553208776495 7.793699460992844 4.138545914530804 0.7860019201343819 -0.2133732802519551 -1.7621037518150746
Ni 4.910422169092761 3.4641638695901866 10.853975479005681 -0.6168544424700215 0.8024261271286761 0.7173930607167323
P 1.8214355154801982 1.843678636106377 11.738798080142157 -0.9460734036394028 -1.000281257140374 0.8417346949203116
Ni 5.723574145114228 5.903192224086347 11.308412750934616 0.5566651745746348 -0.017769665278595203 2.367778009298561
P 0.7892506135567137 1.8093426195609927 2.128267885097535 1.979767689022584 -0.02067552607148052 -0.8101443217085402
Ni 7.870393146026944 7.078982356442849 10.84934931889885 -1.778933164667588 -0.2995656570793228 -0.5529157348345316
P 6.819937839630907 5.683977114663948 5.120108894497651 0.7846824299920099 -0.28057908867449094 1.428044946054889
P 4.7651122214333155 1.8583927439004602 5.20063308099855 -0.5815146295181469 -1.3482039653668458 0.0830152646509667
P 4.87919070845592 1.384055640400866 1.7260977638552129 0.3543388961654607 0.07779618234387246 0.22230220731046876
Ni 9.312459365545228 4.91591555993692 9.57024718786964 -1.0844298640648355 0.150169908120593 -0.36408903357368905
