# total energy = -340867.7310675549 ev
CRYSTAL
PRIMVEC
9.29507505078354 0.00000000000000 0.00000000000000
0.00000000000000 9.29507505078354 0.00000000000000
0.00000000000000 0.00000000000000 13.60428189740713
PRIMCOORD
 96 1
Ni 5.81919095162224 6.5465026792476015 3.9399359410534442 -1.3941665481398893 0.7022672608188874 0.9740629468737934
Ni 6.478750878122176 9.379288303419271 12.643941698737814 0.4056339468950111 0.006068831901899226 -0.6234729762278036
Ni 4.293144140650871 5.669744736984483 10.381060355880829 1.8528955750876668 1.9994070605200662 2.4668780953265323
Ni 3.297641616225958 3.5571694031957803 10.797514104280237 -0.6688100096017062 0.02848293793104127 -0.45400436777859876
Ni 0.4923331630389064 2.0969596079153705 0.0835961858419039 1.2747290361061465 -0.7674303277797815 -0.41769807714839674
Ni 7.99364359918402 6.022799567845655 12.391691025926464 -0.20456853747613155 1.0655823923410295 -0.021885230108865537
Ni 6.511534607381249 0.14673205275977308 5.047079751382772 0.07170215363099264 -0.31763845542063357 1.7868007403411226
Ni 3.6551116076763157 5.522231897931044 13.563809268993746 -0.3326971495259689 0.06245158156700212 -0.4258549019275763
Ni 2.0407522898463 8.532051519116688 5.588040098889736 -1.6574955914846807 -1.9516421344309614 2.029919113065994
Ni 2.4400687086072184 7.115175363134775 10.797133006208329 -0.44570561810491627 -1.236379746903987 -0.685514981061213
Ni 3.0536644896049947 0.04968868202444691 10.399425564916859 -1.5716099472644545 1.8073986190971325 0.49431566580313585
Ni 8.871489065213318 4.420737634140889 6.403684782538579 -0.08138852768082111 0.2459242176047829 -0.7127812729763336
Ni 4.93008914985925 1.6376992509656922 2.651719423655399 -1.9260447455778311 -1.6914909745935192 0.1819212323902609
Ni 8.76216968902507 9.06111788875013 6.7773951288972025 -0.4298889627876338 0.0343998176361085 -1.00828690105367
Ni 1.3689786348954374 3.8067328698464293 8.828648064885826 -0.8577115299645423 -0.3632948198071679 0.3620025833583056
Ni 2.409850420027336 8.676980327341088 0.8781131641871258 -0.25553834365577927 1.108867942502542 0.2929900607443341
Ni -0.17243479394128355 5.55574993810916 10.067440809894775 2.5469155082960975 0.21959226457847342 1.7048123742927734
Ni 2.4146838589881288 7.0673522026476965 3.825047885477866 -0.9326697286389873 0.01647562905752001 -1.6139279913063753
Ni 0.105509324976654 2.786375315073129 3.6578508662565956 0.9926677064591742 0.08440443168900948 0.19157598187120556
Ni 8.72206144072541 0.7922303899137697 11.436208446589424 -0.07286120693610033 0.42867771608835203 0.9050290841035833
Ni 2.8139723925242732 1.1589192366743484 6.381727956551683 -0.22376773611240172 2.427190289818607 2.513760361700368
Ni 7.00228667817548 6.641089361680356 10.185008635571116 -0.6419383820218428 0.563031740222611 1.3544345196575902
Ni 8.322466169716755 3.238422693881316 1.5323999946823341 -1.0954971776225908 1.1697467802657855 0.5346647590441437
Ni 3.9830976214658347 0.14286437208364602 4.73839867870416 0.7657807079915004 0.1505496600575149 -0.2922110164864645
P 1.6970390092843535 3.5387000893205958 5.229037349584311 -0.9480048163341608 0.7422016351199798 0.3909925428327524
P 3.271020521641897 2.7398069897008708 8.34003664984673 -0.6895238451102899 -1.0175626699286413 -0.11385230463648133
P 5.032976334199673 2.0891982203533277 6.178398192576006 -0.246844158315891 -1.1369757564823515 -0.07477539323967768
P 5.858778675726122 5.4324507692343085 8.781836208550542 -1.7869820031139934 0.5868288426422087 -0.5967823543104949
P 5.551130285871632 6.5578147854308435 12.662919453211375 -0.08353154216575293 1.9916161037207378 -1.123908124665116
P 8.795529712929469 1.0088781372414168 4.663874485988668 0.4073887248025887 -1.2876848249358661 -0.2027245422888573
P 2.5649015648446283 1.2792068012736277 13.404543737205639 -0.32529854306905265 -0.41397280577800966 -0.5235750768888854
P 7.921671834042825 1.3805045278019445 0.3403317323043762 -2.4214485022388232 -0.2893696903829274 0.17184276510833632
Ni 4.17174116706064 3.1031979438782002 1.0026569435943806 -0.01684072570642261 0.8734639077027924 2.064975333339179
Ni -0.09181675010522224 1.8584293952002247 9.277344569183695 -0.5047833981036791 -0.1982269115288199 0.8303251675317893
Ni 6.515234047201239 1.0747616283069985 7.6226697228832005 1.8074441276230873 1.7570582189713675 -0.6128532917304285
Ni 6.1184551838947385 4.679391684067799 11.611852829902173 -0.567486433559855 0.9308540155864872 -1.0435927754438157
Ni 3.0474739697052096 2.2398434996563585 4.180024008325954 -0.18702178684161985 0.8478009557190495 0.2897478996579526
Ni 9.06418526347525 0.6340272851895449 2.1918270016108474 0.372112675209114 0.5265917522280222 0.9617432489661759
Ni 4.7352829695894325 7.839642797833209 1.1094647905380015 0.6327909111946198 -1.2400499966667222 0.3884445795999181
Ni 1.0396262450920015 6.968508375899474 0.08020348349442404 0.42539698845455126 -2.6975063060041933 0.08147003165103389
Ni 1.2504292493070588 8.655490114115409 12.199476312545626 1.180323270230051 1.493575423657531 -1.2326567895264449
Ni 7.272066932787139 4.810731092752431 3.6355807962447413 0.7091824998814819 -1.170735626541616 -1.5274458511527307
Ni 7.409773467795123 2.3499157769135 5.518917274212931 -0.0968611693951235 2.2207965262082787 2.31769831903335
Ni 6.577232196948337 0.19660105923775725 1.6384047471524694 0.11711400610688863 -0.4890631591549448 -0.7114869796449425
Ni 4.735403805563453 5.228182202691247 2.273887641075207 -0.28616403896143616 0.36217664704232466 0.0647123525767208
Ni 7.517205943773677 8.071173819130129 3.3467214708428434 0.7178291198128863 -0.1260457613788797 -0.4024288096941521
Ni 4.614995404990154 0.7353491789126655 0.32662521482055756 -0.9453689213732107 1.0787567249394583 0.005168174464500777
Ni 0.5715513685913225 7.570726985189538 2.3703826023899817 -0.27932284766988674 -0.3010674384358299 -0.8869362311576144
Ni 1.8706431236511523 0.11052401789847698 3.5347050661180015 -0.8338496357452801 0.7774452888136224 -0.8241318942368838
Ni 1.9146924837188428 4.265667899173748 1.7446400174807348 -0.28264291318205514 1.4680096593732848 0.8769464669347542
Ni 5.461386337474597 3.248238293001696 8.50419975661261 0.40012278726879474 1.2436446559965164 -0.6801388043509642
Ni 7.174050367707207 7.288853838100971 0.7910536334283151 -0.19622659326933947 -1.218468670951521 0.45584373498018266
Ni 3.417873410375689 4.794167269236789 8.68421189563243 0.7489785488324971 0.7634967970533303 -2.5894826922343466
Ni 8.034077175106042 6.528804856591159 5.479777572720415 -1.3654709799774096 0.27487381075959755 0.2612600766309049
Ni 1.546561041329966 1.9684551970827429 11.31308960216811 -0.27672371948414276 -0.2565354174617259 0.11122283743343425
Ni 2.16558514608371 1.9787076647245794 2.1081601731995168 -0.0897708382072454 -0.5426973995406331 -1.5029476089010503
P 3.744781195473955 6.8590867538870555 5.361257001864303 0.5535014321346725 -0.6254247006375359 1.4987554251965738
P 8.853345078960494 5.795414149965107 1.4528016205655017 -0.4793271628141036 -0.5416931266458348 -0.05968584589640689
P 2.8747250022314743 6.703013150828057 1.650295006996021 -0.38900610853034295 -0.6846639459148274 0.8076230979485833
P 1.0360848215457281 0.2553115409840232 8.211952376400694 0.9023795622958781 2.7612827770302055 -1.877195328175296
P 1.629259322934153 6.080029344156433 8.750396547125568 -0.008976749577313573 -0.906977980299838 -0.1802307320617154
P 6.033135691161813 3.3986790806563856 2.1771203340651413 1.0088402024539787 0.7538726437000048 -0.3008833474494818
P 1.9443623628781737 5.428342346117635 12.078126320882465 0.033744957660928984 -0.588527056280238 0.21817995761197906
P 7.961036476348515 3.1663486829159493 7.87666136322793 -0.19636106196467473 -1.53447036209968 -0.8741236527739784
Ni 4.07847438526718 8.326769789406846 12.212400184720794 0.6313557214099901 -1.0378245055014705 1.190282695435608
Ni 6.901332869419373 1.8533356941415426 10.35243710215801 -1.5287056917017607 -0.1771685481966239 -0.04185910212763114
Ni 2.3291226943071646 3.36514245032842 13.239292177166089 1.041128373063723 1.5308101396392733 -1.7355082607147336
Ni 7.105080911766657 1.7200443197227444 3.374324125338942 0.8984293193988786 0.7825653836490071 -1.309746432721596
Ni 8.803867395136836 8.768276553250534 0.14563802244114735 -0.018726115654593558 -0.19803407879172347 -0.5846773435168446
Ni 6.041603504418125 5.114847354135571 0.40034259503259406 1.3403716138066206 -2.0521874375458915 0.8281746968476899
Ni 4.715800492547467 3.038160304630758 12.531923962298954 0.6164119556159643 -1.047066850035345 -1.5027658319075474
Ni 4.692869542708473 1.2014534995293291 9.05334999463564 -1.167690926178021 -0.2608348161680282 0.6862426032558568
Ni 4.682654255366334 9.056962990258834 7.186353328877411 -0.7367840636488342 -1.2334525459548629 -1.683370916589546
Ni 5.526303140748019 6.417970383190201 6.636808050170084 0.38971933254728364 0.4240075643061923 0.578395624273191
Ni 8.00161877346933 6.003419336627859 8.152528962407711 -0.7028714700617895 1.0433289802594676 -1.5662733655428898
Ni 7.113939118169804 3.0666218240498906 12.763917878327119 1.1950016981778322 -0.932151394241672 0.7272771525996636
Ni 3.2367495803948874 4.928862199969202 3.930929942958997 -1.0038124102220842 -1.127419223142168 1.3532813798897532
Ni 2.2710098858785503 5.368825981375406 6.529687888708997 0.4525900039295754 -0.6130520380047958 -0.9178817716965355
Ni 7.3763111980665546 4.182560634272877 9.631423717301558 -0.65575703307249 -0.3336093769275932 -0.8032393670585909
Ni 0.29059006835285905 4.537195627871231 13.35638409500629 -0.5550366378322764 0.09335727000692308 -0.12483322912801727
Ni 5.285309733177853 3.393306527349965 4.287225966446377 0.8552131890227207 -0.45125148762380995 -0.9984076942667449
Ni 7.731141388238325 8.91947953704904 9.382873413817688 -0.020564968635545224 -0.30676140349681363 -0.7173460095288807
Ni 0.6628782682480182 7.9485996660993985 9.319545138848882 -0.5133965936939868 -1.3487930051010963 1.6416149156986823
Ni 0.5375843762943481 2.3005403389140118 7.093354245241779 0.9194141491806618 -0.8787804348196995 -1.5715171304403324
Ni 5.4909446757348315 8.575784846636942 10.241942828499289 0.1725935272314318 -0.3825510969336186 0.08263525560372866
Ni 0.3312978489851552 5.14360631595229 3.9846945153378814 1.1170916159639148 0.9516578397057159 -0.3415196329136054
Ni 4.419808126648428 4.2749443839485 6.146904619716469 -0.5000155444013905 -0.028188289508757906 1.6615162826083
Ni 0.6087725666194003 6.820725979673221 6.96105279630245 -0.2825508676888811 0.9354480627150729 -0.10678897003179673
P 3.8063517717745206 8.177212033869992 8.875365111456878 0.03732958968839377 -1.1474699711454561 0.07645638048652638
P 6.7383716158412446 8.211873368263834 7.310369148028947 0.7470011133911522 -0.3823094132364577 0.3784018506519354
P 6.558047162303958 4.751530760557638 5.622105618980911 0.769164793972385 0.1916423163327667 0.08090387473491872
P 8.504435851515694 3.25656668013414 11.068892182271435 2.079919099133205 -0.7481275136861116 1.6319791923811313
P 0.11647565437269987 7.72331493515181 4.425500430532255 1.5505690674337556 -0.05820231937234492 1.055448646341137
P 4.8707493915405875 1.205236595023642 11.215029350236033 0.2165966722852592 0.0912106559775655 1.2068830229964507
P 5.291565318602111 8.635273326154397 3.404131571607157 1.186801421755227 -0.4343984206222132 -2.1969127776121455
P 8.611366393448321 7.963778523451274 11.345780380677937 -0.1620664024478628 -0.8436635365119083 -0.3694898928742863
