# total energy = -340863.2062627256 ev
CRYSTAL
PRIMVEC
9.25728679502104 0.00000000000000 0.00000000000000

0.00000000000000 9.25728679502104 0.00000000000000

0.00000000000000 0.00000000000000 13.54897496540592

PRIMCOORD
 96 1
Ni 5.383093823202189 6.8701195913087645 4.206035347052891 1.7925813515786417 0.9665242152945871 -0.7863883569395231
Ni 3.6109621328620363 9.077936232749673 1.1161473797432815 1.4522094591162344 -2.3494100483143345 0.24596895479978928
Ni 5.997333324210124 0.28141041329937283 1.8439210245933244 -1.9546163865679371 0.3072905365274063 0.927990320885447
Ni 6.120047919480215 3.1642054666177195 7.372742132593512 0.6457955509844039 -1.780616980127914 -1.1146236140393964
Ni 1.6342906882602135 4.446534106585166 13.125393329317033 0.055138592845356646 -0.91460798604127 -1.1860046368855446
Ni 2.339575606021419 2.4422666897066283 8.869917590067477 -0.4671298494169633 0.771959840219019 0.45904604396756427
Ni 1.6716716128000924 2.277200006826346 11.655045489306309 -2.278438859312095 0.7041017429244647 -2.2226934861206753
Ni 6.839126194736323 3.4836096368503684 -0.04202345392490832 -2.6308229457440304 1.5770912820940002 1.7577339048821534
Ni 4.380668510225276 4.241337084952934 3.1518979036717636 1.242138503764635 -0.8063753415844112 -1.4492596324592912
Ni 5.3266521449159985 1.0224580818487057 6.062258380220025 -0.8228689683640602 -0.040165773585608244 1.2143073404849796
Ni 3.3004727299230723 5.838561596428186 4.390965390454525 -1.3854163127510848 1.3588406191450857 -0.11932541193591063
Ni 6.59216029456919 0.3483711467006372 8.754765272473618 -1.1312694501261935 -0.4416108792102523 2.2593844137838057
Ni 3.853114243836318 3.6371695121023526 7.385912474679417 -0.6917169961068667 -1.0730892422410359 0.5507048432261419
Ni 2.638734089783361 5.620719120877808 1.531644039552169 -2.841744422021383 -5.336585321109428 -0.8974939520688027
Ni 1.5006710090109292 3.3045089070155407 6.409424228165068 0.6721457588431585 -1.8470967090177028 0.6306905770221655
Ni 3.2670261523196595 7.0362323476098005 13.511200944279006 -0.4191530644273685 1.1350474291113872 -1.892976245158637
Ni 8.017578818294167 3.999416406151386 2.6362651713646423 -1.8585134354950765 1.4658543035931786 1.2618660641005495
Ni 8.982873153477753 3.7950062539064464 8.034772377270867 -1.147379468314179 0.9667317033197028 -0.041655213646941164
Ni 8.611396744380116 0.7894642048138251 11.246327014972433 0.05426981708715815 -0.11560708254405898 0.5723126513039046
Ni 7.82642510090339 0.013651721005190505 4.115717553050693 0.11387415901335227 -1.351880899997801 1.6368105523315037
Ni 1.9361522997996805 7.732398837765315 5.502550779208888 -0.27151749269285497 0.23088583521442171 0.8493932399068339
Ni 5.943326312381086 5.195420845689321 8.189854150490746 -0.7379495447118452 1.5631661873724756 -0.15044758726201185
Ni 7.939271428328136 8.605870144095245 1.83271600451827 2.2514029382402256 0.37047025450968457 -1.7936493878318398
Ni 1.441442887365029 0.5671467567714761 7.110149932123427 -0.7526020045176974 -0.5204846108890196 1.7604970694495872
P 3.3481570147930366 0.9742276170510907 11.251082483257756 1.0498675527089338 -0.1947132419486066 -0.8394294438259027
P 6.466288964463016 9.528895707250825 11.676343729298607 1.32521033268515 -0.9643994556421003 -0.739252836904301
P 6.30473079332137 2.8641582833124812 2.977237894367342 -0.49085007585203844 -0.43933236758872085 -0.02208988992050389
P 8.22358122388751 4.64769495112493 12.117444193241322 0.6842996205968731 0.7528614288266711 0.20061598058628674
P 3.2434663571354116 7.700581542657944 7.3826465038578055 -0.7510416020091131 0.5819401470913397 -1.282450058899488
P 9.156660200626625 1.0471287514620728 0.7020837479479582 0.08939262893222023 0.24154125804573884 0.8521458629513066
P 5.850086918630303 6.502022091933034 9.954282852393643 -0.09607903981346035 0.2890385322957538 -0.20547665111269775
P 2.756940386328609 7.258342432425381 11.076205853439657 -0.9787819496160176 -1.5997905234637286 0.4064551572447258
Ni 8.05145123109541 6.346221953248992 8.182402034528733 0.14122298333995031 0.21665683609923328 -0.34919514718099215
Ni 7.779685059298178 6.553474092575096 5.381856123942411 -0.9271773380658482 -0.8667679837398555 1.3518587885106137
Ni 9.283022166938993 3.2898453645511605 4.494317444425061 -0.18389866783160588 0.9950948278434282 0.9828684609805654
Ni 6.041083262143622 5.000471640665718 5.248304022887566 0.13018600879949838 -2.2368561507743028 1.2225698376040879
Ni 6.123963751842863 5.682724428596507 11.971441041293426 0.38521373136744624 0.34370378504911775 0.7058398086614941
Ni 8.750061644994988 8.26303578069508 6.794106157038865 -0.18698887672115538 1.2961326985929034 -0.6479709613691679
Ni 1.6679594407494507 8.704395448671256 12.177303661854438 -0.46159323586945017 0.5611008417484852 -1.1839768078222384
Ni 8.017884308762175 1.5542614429290464 7.683379652123024 0.38142983884498183 0.4835514853080962 -3.00524575714356
Ni 1.9709596985787652 7.211491303377256 2.8233354994997133 -1.829228313377714 1.0634627748948653 1.780290450026431
Ni 4.8557061879775985 4.239855919047441 10.158615243428544 0.23370736382361687 0.44281929769605677 0.0012444139300623728
Ni 2.7983389733871378 1.4031269768473078 13.230289498744046 -1.544504092186598 1.1540571374446704 3.216593522325054
Ni 2.236116167522735 2.92298834162128 3.584340952896873 -0.26830747039598957 0.10166630409325071 -0.765943715931926
Ni 4.758615762872536 8.138701160215854 11.249022736920432 0.5468651577650776 -0.14069796407441576 0.2407187621444435
Ni 3.893966650967196 5.749136204884048 6.681758797378532 -0.7080761541911805 0.19748489115647277 -0.24275353318628515
Ni 1.4373511665511045 0.1679132986049013 3.502951812118725 -1.3023254576671763 0.41890392453103986 0.6560753356438572
Ni 8.55724161596053 1.7280299755040998 2.949245710210907 0.575344496151693 0.274788707244959 -2.398962148210849
Ni 0.5120964487077571 6.523554541284138 12.836718722979908 0.8425913864936522 -0.1757243595509296 -1.8672114774897068
Ni 7.916665133695549 8.003516999478894 10.26264400507215 -1.833588390118623 -0.5380395890536476 -0.31698873765177665
Ni 7.092831399773451 2.157244083055234 4.937870163670057 -0.11108065542861513 0.7841191012893721 0.2350600211967694
Ni 2.739805148259437 8.92134922467834 9.603459450390725 -1.4407122571099125 0.7788750792816135 -0.07984740844594637
Ni 2.762568816769482 1.3924070386063023 5.394645991536343 -2.278752533897772 -0.8633062504435003 2.8380561745365185
Ni 1.3545077059995012 8.690407688151257 0.8785128247807533 -0.8071551571732292 0.686580703321566 0.6543982050517503
Ni 4.868185010731377 2.3287353230505916 1.4023327016304874 0.11511600184025336 0.001871763101416131 0.06316609113552347
Ni 6.672189539900357 2.533006615991891 11.368470435640221 0.08789778955424861 -0.8607857980144917 -0.8357558516290573
P 0.0036760686316953616 9.19839205001389 9.069386202560215 0.016728625608590543 -2.8633715133728557 -0.7627653182039444
P 6.749358283576541 8.934411256507406 6.766954534533798 0.6024200122122464 -0.16923103851710208 0.16315243642318997
P 0.2780370579496126 6.906519243436255 1.2948861496599544 0.22292107184139023 -0.02535827625913052 0.9056150385140403
P 2.6565080806492767 3.9769304562486205 10.905705143143598 0.6336910544113861 -0.7100615600523255 -0.7093295669823074
P 0.5135887233575412 1.2794403664517355 5.285536830836895 -0.3096986317482666 0.2064773244630702 -0.5089956364128136
P 1.5946139565668205 4.87990473595859 8.068293013169555 1.1110022152367252 0.3212408280599113 0.7197906144146313
P 6.1857376273888285 6.111845963278548 2.1182468362209863 0.5807381563634385 0.6362009653174334 0.7752719353113874
P 3.2476413935315205 3.5367927501444756 0.7493014655576923 -0.6647350682013843 1.1499395157318713 -0.4702758512451127
Ni 5.729779217956637 7.634530800559867 0.2971950132084732 -0.01212866494273395 -0.23317154592480485 0.09605821387785392
Ni 4.851864413910227 0.7278514060600814 13.029968290126957 1.5478213294852892 -0.5726584646790976 -1.2289816546677028
Ni 4.268173959703085 1.7010820133110371 4.1001634595856356 3.94759028986815 2.485635321329377 -3.4848012339183856
Ni 7.943205775264601 7.966228647808108 12.739599600285425 -0.425986285299118 0.7022371789119003 0.4449420004660144
Ni 1.1807854598589946 5.454180529378942 5.993578568639699 -0.8703341038245592 1.6775581665625108 -0.6289157445099297
Ni 0.6851021808414814 4.320486888027715 10.153182141741459 0.25765718977099494 0.12578530862864143 0.46907051808310185
Ni 4.153735378929935 6.8706565139495055 2.1039933915666893 2.870209876450928 2.6118929416087466 1.5480180188771278
Ni 0.1979309771370982 1.8939575860669495 9.288811674172088 0.700599129087845 1.9260406318127732 2.305766600592771
Ni 4.704127372124212 3.1950137174519733 12.455085218685353 -1.3781516607688717 0.1428952288360507 0.45002301453334753
Ni 7.584874713578214 5.045221365585425 10.130717483598584 0.050804998467009276 -0.6866904894265529 -0.6527254453350178
Ni 1.0957295077360607 7.178729765005134 7.934929760767659 1.5312089177395887 -0.4578759349188631 0.17011292690142316
Ni 3.4164757921839 6.297760056278643 9.04047199262761 -1.1325619436853722 -1.6261548723898704 0.9737495293984327
Ni 8.634623277235628 2.6249037031408204 12.800855067764468 4.101890418107033 -0.15569340904198348 -0.651084310187169
Ni 4.748608635723548 8.171110921685422 8.810396938155241 1.9874329188773254 0.3414106181395669 -0.058806271504930986
Ni 7.086814163282385 1.1212518477450866 0.01924867667057206 0.4577589497250245 -0.5886152451186701 0.045111033406025534
Ni 8.201354478018207 5.276162902112506 0.6635447368157221 -0.6317606701578926 1.0568211012086315 -0.09671538784587859
Ni 3.776047330316137 8.574237994726062 4.423726928826648 -0.42538259027684805 0.015050209464903114 -0.775896970489896
Ni 5.084046426883158 5.15723453718833 0.6706700705498344 -0.7899999855501814 -1.1755050229058013 -1.119413322118556
Ni 0.48491427715588836 3.6529717008565803 1.4570571531949976 2.3515669467563374 -1.413313039161353 -0.08277923738076065
Ni 0.5562990679711219 6.797486918218152 10.139646136822634 1.1344455338613302 -0.18544544349343547 0.8395443721372122
Ni 8.126592628938448 6.58385650821152 2.907961913510054 0.0771040413728543 -1.0804184289125973 0.8216330390744302
Ni 3.715143639739648 5.361403999973626 11.961414473841929 0.10729084936887973 1.6266616368229598 0.3795825012235979
Ni 5.586680076912197 7.193421079330243 6.759326530120508 0.9309085229735065 -0.0011719088209141107 -0.7576652779732177
Ni 4.530506956139708 2.067920521667099 9.459678047301066 1.1772849976243596 -1.4622467887475785 0.04585922442595973
P 5.698091524865997 9.320514178921783 3.9695514728531927 0.4566448907252394 -0.9938316448602884 0.29236862511025136
P 6.950898676879587 2.849355881544461 9.32164079073865 0.25577051427124337 0.39125916623057777 -0.7194774540495866
P 1.374605275879659 4.96169286580253 3.770367984797262 -0.2411033991773719 0.044888632982574304 -0.7938047040082523
P 7.90100180424496 3.887458778269936 6.226838129808876 -0.48978512492263393 0.9549195411761232 -1.4421546459833936
P 3.5587417774064996 1.1446264971911475 7.5941190402858725 0.2755739221504157 0.4808461705617912 -0.26296857468157936
P -0.031386831266086934 7.721827016114858 4.560652385231254 1.8660046016657992 0.013779827392911751 -0.739322770910288
P 4.026271795475355 4.031289244980213 5.258886027553621 -0.25418491495167833 -1.5156028357712155 0.3138514775743756
P 3.040287424049414 1.1045239302999255 2.477321258046192 -0.9038759443357466 1.378606231807787 1.0897623320213425
