# total energy = -340857.3409376425 ev
CRYSTAL
PRIMVEC
9.39873073844702 0.00000000000000 0.00000000000000
0.00000000000000 9.39873073844702 0.00000000000000
0.00000000000000 0.00000000000000 13.75599247397792
PRIMCOORD
 96 1
Ni 5.396807551913157 7.30470288738616 9.660379129282177 -0.409860583381849 -2.7107037785310735 -0.4158736223451483
Ni 1.9014478062228517 1.8952540427012048 8.377564235626801 -1.0928455989323567 0.623785622372216 -1.5815398047836569
Ni 8.56636029839574 3.199675678329135 12.956948201992741 -0.029768489511684218 -1.4400049466302425 0.3362915517454466
Ni 2.7234795894250974 8.375697647712691 11.58587452783657 0.3592342765845491 0.1951341315361091 -1.507819849391687
Ni 4.46870169419603 0.297170006682524 3.9275970313058837 2.1852122013457658 0.11141515594989843 0.3471665467867376
Ni 5.735584799466665 5.055492647074604 3.3943459477764173 -0.5125329601421109 0.8865438808152023 -0.12145994178041017
Ni 5.4957197936458 1.6969784201630218 7.195966152468119 1.0259246687400911 0.21253818594516943 1.0335006813151364
Ni 1.2442415630496222 3.33243274925973 5.61637881843821 -0.8305239138061569 -0.13793274262445276 1.8882423300180768
Ni 3.5810291758872874 0.3279593085346682 13.439756297933924 -0.7135767722944356 -1.977839875872252 2.030630537310722
Ni 0.13284353925290043 7.516663061802216 11.315541656752998 -0.14282735171259273 0.6649489839844033 1.6659856312335632
Ni 4.78559869671404 4.2124640995212825 8.76252590589506 -0.6333634958686383 -0.07347158682658961 -1.9117262720726302
Ni 7.645359881076739 1.3864255608576252 11.635465050551693 0.18503355276699746 -0.12390326111458017 0.8987139405188328
Ni 5.863050385021407 3.864071950476659 10.653480029307717 0.360169901024941 -0.20134823076662098 2.814879222199423
Ni 2.052654585488793 1.5202916820090921 10.593365747844206 1.168268395948046 -0.5106791947628238 1.8659629497945867
Ni 1.4343308911608637 7.918064051912223 8.738782832437725 -0.2647644902397376 -1.2427280577195177 -0.720623908949204
Ni 5.385688853512385 4.909671340491369 13.14079677292891 -0.11065848028953201 0.5903682232540349 -1.8554119137516174
Ni 7.931541831715017 8.18225297274678 3.8815150547556034 -1.0269369120546894 -1.056202750898342 -0.9570237320033196
Ni 6.161807837316687 8.126875651548685 5.5140623564513325 0.07604500398072064 -1.0510471748393317 0.09559978618419664
Ni 1.0220179747251625 5.412644413117975 7.334887850855236 0.39948463946416357 -0.5158129164449632 0.9952434376061504
Ni 0.4420909148661016 9.14785976589846 4.460834016739322 -0.871219591753306 1.4007418873645618 1.295952207150981
Ni 5.617903292555374 3.2054652964313117 4.558804505657293 -0.859824462542487 -2.2077018978078495 2.1056571273292572
Ni 5.793509176680489 8.607536137528266 12.046755385088826 -0.5390268926675814 -1.0365685216071827 2.2629207090718384
Ni 3.1402381054749697 5.766891971379572 11.465990898325702 0.8419763786174725 2.012331224780902 0.8649936654482524
Ni 9.026888703247295 3.8515810373958264 1.5492961649040877 0.10909910622221211 0.5165947889163104 1.4381727785175102
P 6.832914803173552 6.446213427855435 13.042483230340922 0.18568378475648667 1.97538935744923 1.021097679665093
P 1.1111555365450396 7.328773036671346 5.192804342895321 0.22189365901814045 -1.793395619949821 0.8289393429278564
P -0.22148672783872805 3.2931930486483862 7.520634965389845 0.8914374614620777 0.6607611711553008 -0.13519426064736717
P 1.295972176741799 8.295940019116795 1.5391032414758237 -0.23217550056012273 1.0850587558980862 1.4388929445129865
P 0.9131919518656103 0.1545640058667486 12.084323051511248 1.0038977708470387 0.7746229888734788 -0.552914449282951
P 1.421088079625203 6.229140343946548 10.332360177092779 -0.5435597475409284 -0.3231820109466821 -1.0812121284584861
P 6.078074545640887 4.058324916281511 6.598102554969132 -0.4292695840360801 -1.1478620643775521 0.19780319372783997
P 7.820129278170857 5.470070657605475 3.320943740869956 0.676877617101189 0.36506502433371324 0.2622448091416774
Ni 7.790880428278042 2.734184743675713 5.891306728953849 0.22453958128141974 2.4425333479335802 -0.403870170126369
Ni 2.2930741164200934 6.908330218192816 2.9527653839865304 0.43612388795375207 1.6093647974157252 -0.013761315450150495
Ni 6.638022723682096 5.848858301686526 5.594658351824362 -0.41925205189907794 0.1900538887997243 -3.485653554616352
Ni 5.616587470259424 6.646622562259193 1.722745040336914 -1.2143191675595215 2.6259309077590514 -0.0994286730119836
Ni 6.027067634211482 1.1919000318628976 13.577604661276775 -0.6693116318284731 0.15984959730220213 0.4499386823496574
Ni 8.826000233578585 9.05799850181581 13.487640951029654 0.7031092971042084 -0.6096016175623501 -1.3908143438382048
Ni 3.741738071876119 4.825590295780212 5.265518562715614 1.2222582199009402 -0.08924581894171082 2.795478449075308
Ni 3.2428816432896976 0.41339846982985945 7.284155382361844 -0.169994656156004 -1.052519131399168 -0.6249397905813173
Ni 0.34412794493267906 0.44854314348159563 9.590127376901446 -0.8746867243663 -0.6266560019414756 0.4205836262263079
Ni 1.9195403627921541 2.1683529602254743 13.043734201395143 -1.3191713255799218 -0.9483256900086895 -0.3865643318580697
Ni 3.837078795948328 8.404626940762205 1.9747137315343752 1.1259331255149447 0.21485783521728158 -1.514233723337831
Ni 5.205477591351449 -0.058044680966596096 10.058078899248294 -1.6538790777780163 3.491633169238554 -0.5550253249783667
Ni 8.762079466187506 7.850872526242643 6.516474578966852 -0.5181328228273915 -0.082659938194077 0.22608378584008806
Ni 2.5808538512748824 1.694337376840438 1.7123049302916251 -1.1189482095566794 0.6130556375492215 -0.6373492199892636
Ni 7.496681360365157 5.624811359609108 7.605082560597732 0.3377126004626893 0.3322922007780664 2.0496160772742895
Ni 2.2551502381046986 3.7699342639321745 9.818174418758549 0.16893381899165746 0.3603776461603729 0.6024814615778011
Ni 4.827150485073981 1.7449777377731137 2.2753236736477382 0.8954422117460966 0.2727822183378915 -1.267067920016463
Ni 8.901932578785543 1.0168392741175336 7.057759697486156 2.3600307612529745 0.5846027815251673 0.36081859035253344
Ni 7.136728772577552 0.6745299835724703 5.430164586988539 -0.0980348779882505 -0.1800461268547351 -0.21842781195672703
Ni 7.436397901749311 0.9856636844342216 9.40750346057358 -0.6826507721395404 -0.13285815631502282 -0.7305457960486063
Ni 8.492185515826941 7.244955156419378 9.266105196650871 -1.0525944647217937 0.6258892989787801 -0.6936725771713409
Ni 7.103626443103742 3.3536644818779404 8.581372890919452 0.8447323440960549 -0.14021639645230688 -0.23378166870497805
Ni 2.9239263187515965 5.875325127296477 8.878736511454095 1.0532560095651926 1.7849184357167454 1.147508023472243
Ni 7.877621313773154 1.2321359979268889 3.326185412973177 0.3404364271517556 -0.32124108517022737 0.7548638039686806
P 1.261995765314252 5.301795783414934 14.194670805439003 2.5884725058022773 -0.8478120114626431 1.023710691807908
P 3.8470414504748014 7.421651293303993 13.2446959811632 0.4495350191533355 0.3101190071151369 0.20834137425500246
P 3.538029983001803 5.235083593010307 3.319266067442621 -0.4790955064192716 -1.544197873800089 -3.4663561398393203
P 4.08392705866841 8.521725726371002 5.545577240312387 -0.9063154070151747 -0.45266122348714294 2.6025323263294533
P 8.906152608863264 3.112784413143057 10.605044610593826 -0.695034490515874 -1.7316048118952696 1.7322316468459908
P 5.651202995373575 3.313531901851488 0.7763266957524477 0.3787546060056638 -1.564076615001887 0.407275339153176
P 0.43083875448959835 2.006290647017952 1.0040034276205485 0.9983061356918741 -0.38426216608745434 -0.11525021342527249
P 7.648828012699633 8.578306085096822 11.115323316582154 0.15968041871418953 0.8407682172419844 -1.2830938631310742
Ni 5.197845822034943 8.507054307771169 7.617958821636663 -0.013477208550828401 1.1551976788070168 0.68311768447363
Ni 2.9436542544601503 3.019013277095301 3.9191231357199703 1.5644882486180087 -1.549852500982705 0.06150695826554569
Ni 4.396425455225675 6.856402231156246 4.216184117126544 1.159328156035623 2.2701609355740193 0.3316805353359965
Ni 2.0086779246120314 4.192623379044504 2.271128080269797 -0.8768371950503996 -0.01411047125945312 -2.242832937183028
Ni 3.5482088083340386 5.622630854090106 0.8080859466113204 -1.005951568052274 1.633693861079393 0.6341176004258434
Ni 8.824599822706467 5.360556647659755 5.834342902016068 0.7946493113967348 -0.6208028855948082 -2.588195855102123
Ni 3.654480256193312 3.5213848309580444 13.676950184494013 -0.782429115181459 -1.524989162082122 1.1251959902386042
Ni 8.81197732739604 5.474027523224008 -0.21060017808588502 -0.9916744893079694 2.2876565212556215 0.6175126448793107
Ni 0.15106391855952359 6.460960036300752 2.3149957158706083 -0.2245462661496391 -1.2171404390584006 0.15093403998012714
Ni 6.978848894525012 5.048800750826633 1.171945586744827 0.9881860165387368 -0.7078002748219746 -0.10467680878480037
Ni 4.4024218454029285 1.7377031202226514 12.126292143513616 0.20145390310654984 2.1490619766774532 -3.300289872203445
Ni 2.354212859528307 0.11314943897481412 3.344865390210314 -1.2296673678808177 0.08487931444289898 -0.11641132361290919
Ni 7.93707768408869 7.578563102095943 1.232645409130035 -1.988981494311368 0.337847840488973 -0.27786451795680533
Ni 9.243162895047927 4.868974836623796 9.536616643617462 -0.49099945694570923 0.2509072726416711 -1.2672625525257724
Ni 7.703960966899907 5.05030454773629 11.699168707263938 -0.7131782513044362 -0.029702155050123042 -2.5773162320751424
Ni 7.85174660819638 1.1308552760615371 1.0448183554947577 0.3409807296909998 1.169122002197593 0.8797278863346333
Ni 3.6076557799188893 2.65516961480396 6.231244719746998 -0.7160396320126314 -0.28318490172845423 0.369759344485589
Ni 1.5348785120327582 7.437798312621428 13.420524615205558 -0.019260133781192637 -0.8574821875625555 -0.33738041393425117
Ni 0.7766189962767622 2.041705064240358 3.683167061991143 -0.5182690912949396 0.16554510502508263 -1.15831488427976
Ni 0.8111104581458666 4.649740044657278 11.82294529102468 0.8486717883597772 -0.20075353460541556 0.13656542996328094
Ni 2.794919341364457 6.855518750471823 6.723199660391166 0.1756379704847104 1.395809740170267 -1.7394628744871072
Ni 5.086499059605579 6.286124848091836 7.212982554373948 -0.4881673868135529 -1.4926562542773714 0.6807239874304728
Ni 1.477734229465819 5.3112321090230274 4.331142811758289 -1.0057862461190032 -0.2211981756130126 1.060866732032915
Ni 6.776400235562532 3.161037496481654 2.629554314194102 1.3502672756537777 -0.2756060609399318 -0.7281855233465458
P 5.144432835550089 2.1333708846145947 9.647806447244383 0.9311980291894673 -0.6045841097431007 -0.7553782817112539
P 3.1715358786571914 4.52491550242512 7.358836756514581 -1.2619809924118588 -0.6807790090381244 -0.921843841668077
P 6.131017595591475 9.100414973398804 1.6972002302071962 -0.0009901318274111981 0.16858389185140643 0.36469401414753966
P 3.6507207639191717 3.8243435158696766 11.568844967707781 0.7877983499131723 -2.4541902154462183 -0.4566492616006135
P 6.711323424297155 5.671654633344902 9.60239835968424 0.5129852171881811 -0.7181055134027245 0.790948979727012
P 2.966136018259512 9.096608487471237 9.486283621178199 1.1647210449164198 1.4936147615358986 -0.7214088667443448
P 7.237342184564243 9.324546504052389 7.557927249003184 -1.1292071682805263 -1.6535697740677133 -0.4849918172990486
P 1.8976131241032281 1.1780087079099475 5.630575601138434 -0.22626093484790064 0.2684681643435699 -0.6186033068403282
