# total energy = -381168.80947551364 ev
CRYSTAL
PRIMVEC
9.20372751416143 0.00000000000000 0.00000000000000
0.00000000000000 9.20372751416143 0.00000000000000
0.00000000000000 0.00000000000000 13.47058554400687
PRIMCOORD
 96 1
Ni 4.838611125519934 6.822428525653073 7.664951527969468 3.4434905480950566 0.8432220780991154 2.7018782098196437
Ni 4.468832973926767 2.6098089122074404 13.096116103922638 -0.007954993181018558 -0.5141113603728243 0.20698563155805647
Ni 8.006828580263168 2.5282270734508927 6.779381772714416 0.9302328370627205 1.1841896951639928 0.44460955682726006
Ni 2.6746307635569857 5.13700516820112 11.46066622457272 -0.5648510528195368 -0.9812764339030972 1.2871433506100993
Ni 4.091977156042559 1.556792064755481 9.102047278487962 0.8177668712508045 -0.6734714196331175 -1.3449342934766386
Ni 0.44068826854937426 0.849556490716414 7.885761831031726 -0.8958497315971603 -1.1288880943782107 0.227691239536524
Ni 0.8958696464726131 3.239914490383297 11.39032305721798 0.3995347759758087 -1.4568682980444845 -0.7188598750702458
Ni 6.297134993930236 8.698277000870476 -0.16122261142625532 -0.13631911828042972 0.003518811786535875 0.13343279787157022
Ni 8.339552525760457 5.917416816856804 1.4516302766651923 0.1724657434043159 -2.3700794037382282 -0.5004459470705898
Ni 6.622385512862732 7.57003809022388 5.907942499977744 -0.17925551263263967 -0.9664031163356903 1.3994650775346673
Ni 3.9694755457255857 7.152860743053522 0.6756888783574396 1.8327856917116696 1.7107405668517504 0.6453026705083854
Ni 0.22544898161971413 4.5782652914826505 13.068973391752406 0.9139189303940454 0.7830850035979029 1.0701319593849248
Ni 2.406728669409242 3.786707929070855 1.8955941517594057 -2.0906380282126062 0.9280646257668081 -2.8622273724660836
Ni 1.5090615349956142 4.300340338308973 9.400851807406577 0.5263495543102289 -0.6962256826104977 -0.6512100371317558
Ni 3.8647463328182345 0.33308749272550214 3.864010034634511 -1.4391490263878504 1.640945914656116 0.31990462574699097
Ni 3.9988538432561476 3.405784063721576 7.278426274187514 -0.24086660057621745 0.19172150631013432 0.28338981865040874
Ni 5.971313843905353 4.60860998037935 1.8347740810383972 3.4079717863631567 0.8699828911327275 1.1214583775730427
Ni 1.2623648285391034 5.447630964459412 2.899650851484681 -0.5783244047156234 0.4681822019408775 0.299258153141233
Ni 7.281878592296447 3.941266121561685 0.15029042414342278 0.4968705710145056 0.7768292524961783 -1.0223618910894974
Ni 2.6054187342869897 7.36427035905509 3.3895901055433106 -0.36235019650571143 0.48995970282728524 -0.6166179009791831
Ni 5.429407584412259 4.717591315297703 11.762299058889559 0.01804580175811731 -1.198940371110606 0.37213581513756555
Ni 2.0037894883666345 1.0448255301580374 11.993953193452603 -1.3049101876752172 -0.5707741031721911 0.41599189309056744
Ni 4.944242303702346 7.7854145126902585 3.4077214483174982 0.639741374370524 -1.3213500783987955 0.7108956259178466
Ni 8.826834663748574 0.9940393629357188 11.607064392442435 -1.0252150442675763 -0.18315998989336843 -0.9699157574746393
P 6.077994246999571 1.6247339796585536 3.236254168037462 -0.2888616403982574 0.5663839445242955 -0.9761447691034865
Ni 6.10439974061335 5.777013956948055 4.094868967159132 1.331654288538281 0.8214849435323401 -1.26513419332886
P 1.936409000828651 0.9853694518223762 9.533658831177487 0.40949163007820444 -1.5098479355653094 2.3626687130964537
Ni 3.483748837650583 6.759493438399319 9.916088426312479 1.1718018630226013 -0.44061971894157664 -0.501250445249756
P 2.0210556807749476 8.596152442788046 1.5486320401343667 0.24785485896859247 -0.6719457270172104 0.20715583858733352
P 8.721948987477182 3.3946659611473535 9.452915451977653 0.05032034552110688 -0.8643606598499436 -1.7726213635169472
P 4.101171679611805 4.637905444364243 9.960918861601206 0.23801858960446104 -1.1895049367293191 -0.7760602355406376
Ni 2.3397623495996025 2.3815564752531997 3.596673049342775 -0.8878196622038323 -2.221227700208426 1.3290610738898079
Ni 9.321903155029567 3.208750669757206 2.399798262754946 -0.8542369411523805 0.7814343553683575 0.07529321341636065
Ni 4.165266436504923 5.550933599635799 2.6463099742927962 -0.8998051167004826 2.5092853566481494 0.7711152328305365
Ni -0.12030099912037041 7.743077367126165 2.354792956647586 1.5395300360107744 0.7005142826835226 1.3343207796268506
Ni 8.444723517578042 5.875153301111084 9.875986866108718 0.1329913394587774 -1.0886971239816219 -0.03280470523484673
Ni 3.67711914815093 -0.06995661080828584 10.856671620737153 -1.0673618528389552 0.4512656286911971 -0.7030172516110345
Ni 7.583503143258721 0.28292073635024084 1.7340411265232047 -0.4909557481919674 0.15593946361451852 0.7141709542350088
Ni 4.490885104529281 3.0761433668686293 2.2008376082946794 0.14679816343488267 -2.760413487051375 1.7436810263335132
Ni 6.104795500887102 3.413248286559072 9.414928908306637 -0.292132083619413 -1.8277208755942522 0.6286491211121044
Ni 4.741732691996533 5.342818918006392 5.7289456503964065 -1.380621462465603 -0.922333893930618 -0.38935680700154235
Ni 0.6105973577981059 0.9210630092014375 2.312361012692338 -0.15643414386274995 -0.6064252767168975 0.8075521355013316
Ni 6.082384424920022 5.6785616860569466 9.786568973931892 -0.6214037524036008 2.2369564237975927 -0.47037381027555764
Ni 1.295930821989592 6.552271518317675 9.448915512094576 1.0393712811633002 -0.219265477366674 -0.1391910405115861
Ni 7.713284901867258 7.78804677869707 9.07264136977551 -0.7107850684819114 0.4304137249428523 -1.6260111477231547
Ni 7.696027913186242 6.617525944850158 12.381743959737832 -0.21578986011324772 -1.6511768483555047 0.5943050964145958
Ni 9.356141020572702 6.781481142910756 4.561409585311764 -0.219177545638558 0.19232417289113973 0.2676148152043391
Ni 2.036738832088255 2.3266194270201406 7.9691982208385275 0.639597392593492 1.3507187613688996 -1.0953681082438942
Ni 3.1601181747222777 1.081824513890136 5.996444621288561 -0.7309355752878572 -1.3072480917797744 1.5859135083713205
Ni 2.0671663545306225 6.039126906626275 0.5612662998613707 -1.6043488322583725 -0.5678289045009381 0.997224215481605
Ni 8.029856305959116 1.5415967109888902 4.233171536498809 0.8167823958503483 -0.5661525452397799 -0.6796451525439973
Ni 5.7514091876090765 1.1725456538521504 11.031654724844467 0.12629695815773734 0.551093079803496 0.8190593648099829
Ni 6.30172765385121 2.0928171425060853 1.0208424575687083 0.5067528631252239 -0.5672820308585328 -0.2936572620146878
Ni 0.49609838836547554 4.092741065408172 4.911429175144714 -0.9577629241621892 0.05366252252046242 -0.27212864391429264
Ni 0.34297137546925854 7.663207421646774 7.655090654543954 -0.42872656704841655 0.03529070488149406 -0.05534788064268533
Ni 2.673415871553842 1.5357063255191032 1.1175386572916375 -0.7697530623756872 -0.2633208158146756 0.35519378796658824
P 7.222735440688868 2.231517312864973 12.339446390201113 -0.48224999288785325 -0.6901789621957856 0.21943439884437047
Ni 1.5191948387491068 0.1145965289419737 4.326307734503437 -0.0006378906943150305 -0.8118070541229438 0.39894187958681615
P 7.754361136791726 4.593819590613807 3.296845065948787 1.2623545737011939 0.19564089596919856 -0.3449168315206125
Ni 7.8003613658198425 5.35868614386563 5.846274765972724 0.16858954827836126 0.41435898547283473 0.6185971361927411
P 5.798523067640074 5.833506435094231 13.524737365613516 1.1588756418792365 2.2290037446094195 0.15511568216164254
P 5.18326310159354 0.03057754319730138 7.569310075394723 -0.6439428140463813 -1.1822855361627445 -0.6706100389249225
P 1.8233043960814468 7.881768333757756 6.1924545607775565 0.6826852249219018 0.08546783995651731 -1.4788280901450275
Ni 4.5141797383168285 2.4598893982740684 4.9702686037515065 -0.11213583616600686 2.6709969468597548 -1.460484297530517
Ni 7.6775100138656 0.9253795573035156 9.389752112286946 0.03815028581747623 1.6158671173106172 1.1269065451718074
Ni 6.0887902191184144 4.300331134581676 7.259082800528371 0.9291357473437997 -0.3646209948177591 -0.5043362832639314
Ni 2.6719708863682854 8.25254048789895 8.291521954490722 0.35876864980204015 1.3037030547409936 -0.473473532246804
Ni 5.887836037325718 0.6377133791591779 5.0717295730958565 0.29858426700266 -1.952528650800973 0.46905560568476634
Ni 4.080978701923192 4.71100144655338 0.5317407426940639 -1.0652229521190817 0.019435225906476207 -2.4202025456468643
Ni 9.166498219627456 8.47709302647998 0.13025667093703985 0.27045716974914064 0.15341515453076804 -0.5596121730181007
Ni 6.515272534585577 7.243480642015275 1.9551072932043054 -0.226303615160378 -0.15400290871343802 -1.5734518855692
Ni 7.364574082055877 8.363012826639343 3.967235358501607 0.24043851189986334 -0.3274184176255329 -1.8293044180312883
Ni 0.4282374662626123 5.344889756648114 7.50070457175357 -0.7466496435890044 -0.7905954530423351 -0.3019318433186542
Ni 5.311968024108383 8.372409832209112 9.496304583571742 1.0346389086846375 0.08003844141082989 -0.4082605858845808
Ni 7.924096275594553 4.063243119422755 11.196938941126689 -1.9875465616370542 0.2646130522635378 1.5387404502299435
Ni 2.6301951681692812 7.408107712168521 12.115835392922518 -0.9124510875992673 1.0714949011707224 -0.04537714258321863
Ni 5.828775719263808 1.8820057687787914 6.9439517797584225 -1.1392282999619543 1.7364932503358224 1.0390375519729653
Ni 0.13940977773345084 1.7061593550510603 13.670623806245542 -0.11037000251483572 1.9103486749988134 0.38419788850842224
Ni 0.7640004825132192 1.9135101273148545 5.552696113413087 0.7640264443045551 -0.19059022091916855 1.0271847663994373
Ni 8.82644810720212 8.778975281806556 5.685314460774419 1.2006339567629452 0.7709357698298788 -0.37433667944362625
Ni 3.9295497767131864 0.27030150585395213 13.217351281363607 0.40461733270503863 -1.5870756470002214 -2.390427885487593
Ni 7.167467058273134 8.344485723591403 11.106767263684278 0.01727524214067993 1.2827858449723522 0.44961240935849023
Ni 3.3924662703234802 2.6097720972982543 11.061748151985972 0.14231004575654202 1.4967311956776934 -0.8982398290958916
Ni 3.0228537858216513 5.833616879821789 7.416675461908871 -2.1055933639708573 -0.8410456392730871 1.8210151814393025
Ni 4.9424567806068165 7.282090278024268 11.676922523368647 1.417475912289791 -0.40255685063158414 1.2865815645693583
Ni 4.209278660436986 7.698236807737413 5.814497056735953 -1.8631031117482884 2.0174590329257707 -1.8286523862695858
Ni 2.1548502644847782 5.708326540133963 5.336749059854323 0.7602862605358326 0.9224269678650565 -1.8185376664330875
Ni 4.7443925691852336 0.41336884481504876 1.735051695780365 1.3014355988630555 -0.3298342261558771 1.2128677798249758
P 0.6617903297669316 6.6989881351518505 12.543364172183297 -0.600301937427979 -0.2155407202169191 -0.663163095728574
Ni 6.785181041283967 3.4314624628789283 4.8682968275422 -0.7663964871986284 -0.08698196260819857 0.009298394582790437
P 3.247949344313178 4.225698109934018 3.8310478056946757 -0.08092135823641548 0.1370004606181705 2.7450963970783304
Ni 0.704212149622153 8.410678930308134 10.466428981500124 -0.0017018131824551336 1.0361509744537896 0.341710665878489
P 2.1229225344930738 3.1490921094210207 13.177842441197742 0.6020664855275695 0.24102420920000428 -0.2433608277529809
P 1.9984697339892334 4.062249116874728 6.697332384611204 -0.882822466099557 -0.8016375697891097 -0.002972195254446494
P 6.975560140412937 6.089738203029959 7.857028714784651 1.4886692446051653 0.9798029346813641 -0.7208275403195779
Ni 7.484231740638219 0.3169818903292833 7.261804342689959 -1.4077355450735756 -1.3267848762611214 -0.33005482680711545
