# total energy = -340875.24319783394 ev
CRYSTAL
PRIMVEC
9.18388790465664 0.00000000000000 0.00000000000000
0.00000000000000 9.18388790465664 0.00000000000000
0.00000000000000 0.00000000000000 13.44154827007909
PRIMCOORD
 96 1
Ni 1.1829031310763054 0.8636261861410197 5.890180189187477 -0.40432165584149077 -2.2821613024690053 -0.6810690294747174
Ni 8.982301574115157 2.7616134634625795 4.79918389801997 -0.02697061505157291 0.19130421626705763 -0.8186711282326288
Ni 4.446030345736963 0.33143549414439655 0.9229541020643202 -0.7719706388522963 -0.32345711898493973 3.0315625406612177
Ni 4.660373105757691 1.2028964550646994 3.464330586243079 -1.781494497636861 -0.7279664653572043 1.1411666546352475
Ni 0.45406152073614325 1.3023487772834947 10.690641566016259 0.15258623087156944 -1.1924102833015722 0.5178857398135919
Ni 0.4079097288028055 5.827599340165101 9.039428112105513 0.2912255126447436 0.8291545442624558 0.7463035731034954
Ni 5.901483718431811 2.5901778277752343 1.5774870385161528 -1.8076991810566867 -1.1963936934293524 1.6689151461755323
Ni 3.244006360024077 5.156936741370219 10.041549164764575 -0.46192259418441095 -1.7319881633766172 2.0369356535931438
Ni 4.93877348397734 3.0593734774045673 11.219378197768492 -0.8554720991110623 1.3579888126677515 -0.9030693892740511
Ni 1.2334328823781626 5.261192236967945 11.280147065705473 0.2593410052313211 -0.39074417426737224 0.47952770886068385
Ni 2.1335181851482705 2.8864592357630974 11.17356896485434 0.20975008167707104 0.4303306783107428 -0.09948163773710608
Ni 5.5413375538912195 0.06537366933697042 5.432670118539693 -0.5497568774905758 0.13732493383712477 0.6504387061833702
Ni 6.999123634116178 3.4616369519179546 9.693063782708165 0.030751422250243816 3.0160585314883477 -1.4615885863382894
Ni 5.020207018109214 4.836299662634897 13.350844702356815 -0.5623429416857025 0.5454482228128928 -0.020083915234068637
Ni 0.6576416825106619 0.1811172903260977 1.2520504599570659 0.2034663055508883 0.8445150858789261 -2.1595754746142677
Ni 0.8290571136445964 3.4297688608569863 9.060907389158364 0.129175565257113 -0.42583613287449884 -0.0625431128395439
Ni 4.213494303758949 6.844586352190269 1.5215966518389967 0.5041905017146866 0.16620973519227503 -0.5434931559690511
Ni 4.387281014752234 4.804899949857533 5.645222020417226 0.07299156186637751 1.3621681408564217 -0.7795222259473091
Ni 3.238854198904422 8.653500019024444 12.632474561015997 -0.9807758401175946 -0.12384643973471574 1.0500452159373788
Ni 6.17508092327253 8.861230379747221 2.7370355426276047 0.1740837386237131 -1.2571609453153962 -0.06217878752158969
Ni 7.186438212006524 2.0940090993430016 6.296209057745532 0.4169768827116561 0.18085730990212076 0.2346872112383829
Ni 0.15631344584844295 4.5218157888018355 0.4484924111052006 0.10088648850443271 1.8954578739299097 -0.39190811266848635
Ni 3.0465435859889562 3.538184657679674 3.8668649854499235 -0.037971594147766866 0.23077373511658963 -1.397025100634607
Ni 2.0317515231751915 7.006158492258167 6.618335763100476 0.8048810164270719 -0.024873109092595873 0.27171546763627397
P 1.2411932676653434 4.559928923644203 2.7525471293140527 -0.7291784833874344 0.2941930799134998 0.11656019048594767
P 6.308853434625283 6.533243368023736 2.3903511209910957 -0.45026829777493427 -0.8121644374623626 0.08570669544020078
P 0.38716057083910393 7.8848545200769795 5.5073112491705025 -0.15899419128044232 0.6504929564600732 0.24891980989799709
P 3.2830103319940855 1.2880678315774992 5.317154257970828 0.09234451247169258 -0.5717781189566733 -0.11322469835481144
P 3.726022717181108 2.2211600275098893 2.021998234210711 -1.5056835197749747 2.0758446719535155 -2.1444267918982876
P 0.327665508155772 6.783458394235859 13.33782011251743 -1.4557264711305575 0.37615599204055217 -1.605152044885958
P 1.8921196913334177 1.3323158035463012 9.134997486514344 0.21480641315405585 -0.22879732811650919 -0.5378387858967512
P 3.2471288819147768 4.485925154834613 12.359973912392187 -1.5526452332364937 -0.48870706136710673 -1.5430655599678587
Ni 2.4451458698401325 6.458954898688816 12.952974799821403 0.9072944830989923 -0.7193049330274643 0.8916773453870256
Ni 7.887205595382919 0.0399857295879965 5.109696658719093 1.1140057779497397 0.4697816852175135 0.25106410993450956
Ni 6.64561742053728 6.654424769046638 13.559699170960242 -0.3065906822469042 0.8347484934104655 -0.12123394181253315
Ni 4.111286815166007 7.445295276745556 10.112238468426066 -0.40425455004898125 1.143266988807702 1.5978938206616482
Ni 0.773987766546936 8.628023913951498 3.2857058030967927 0.02690119526621819 -1.7473389348010746 4.3033281232636655
Ni 4.873696454219986 5.793067921609123 8.64327835177636 1.2786132016519012 1.027589972257656 -1.926978056025378
Ni 8.135308327374862 7.58343931874529 2.0165815771191378 0.4572982080385221 -0.6778119559900004 -0.829862368962758
Ni 1.2664305916525307 6.862228600872723 1.7415268892664957 0.5175571528295796 -1.858320345647664 0.501538151693504
Ni 5.726236769260229 5.8189389338623645 10.959553151243345 -0.036209874261653764 -0.47046174200367363 0.4298064303761565
Ni 1.369124826304906 2.6476597822278563 1.0431096628072483 1.1891375260875716 -0.8011937973834717 1.3993856304469836
Ni 5.917004489006173 1.7032163008339805 8.49270667265164 -0.5892083986179788 -0.9487442656033467 -0.26973340420923875
Ni 6.785763550102229 1.703712230781327 3.6850001266476404 1.9235590030415 1.890005078345455 1.2371953008267467
Ni 5.821097147522113 3.9342122722995745 7.358952036134952 1.2338610942471913 0.05708980303445652 -0.5712484717054485
Ni 1.3704197545007553 7.732925462318597 11.153649111969258 -0.06507282123993308 -0.00964600773019629 -1.292029217947491
Ni 8.850604621430927 8.840199276424565 12.463487349846476 -0.4165523935797278 -0.7320200666012877 0.3456621943270692
Ni 4.904820650359934 2.59083906770503 5.678287690462156 -0.6589416014480587 -1.8277460724052326 0.1718005990164912
Ni 1.9301501711845612 1.5091883008786295 3.1331981603998385 0.5408143235853073 -0.007462626925632309 0.8117196366154601
Ni 7.158849812713398 1.7538470749028898 11.046519977843298 0.0002959339738640065 -2.186810913291453 1.6362292259067368
Ni 7.344612313546308 7.060416902053037 4.446518010185187 0.6777461357490715 0.05750015109899775 0.12081922287261773
Ni 8.16683661458302 6.085143108932455 11.621911678586546 0.8368557695614556 1.1284065267561019 0.434338256808239
Ni 5.774084825291251 8.02795786155018 8.513446646727427 -0.8303706760577441 1.715738534286974 -1.1279175029348252
Ni 0.5879690352412308 8.728945658236505 7.925499652817189 -0.16181957654437937 0.4384311959306901 0.9692745243462147
Ni 2.108547193910584 2.918961015090119 5.840513723349519 0.019479448880850323 2.0826976903196064 1.4302434963681045
Ni 7.682092642715582 4.921177154734454 5.6474399293484145 -0.2804016825563623 -1.3630472010272654 0.34484998283841906
P 7.181892187489181 0.09046680628391059 7.336101604616568 0.6235441957853712 0.2707325348977144 -0.06537184053759065
P 4.697705610127384 3.7578999921299894 9.071499167089376 -1.0625312642195313 -1.7672760400446337 1.1636121281229574
P 8.242071024373063 0.4791996587338611 2.6837928708360037 -0.8985671305283234 1.2190754512975843 -0.08323972195694695
P 1.6971733025866844 1.0147369594862816 12.961254993164506 0.30433659610540487 -0.4312012538411542 -1.3484693032130906
P 2.779274079920862 8.270660467448794 2.336302103840661 0.7518964938102406 0.6398442184969755 -0.017354432118047533
P 5.398619935710401 0.4348010710032724 10.207605797300793 -0.3337944963552058 0.05753331832977834 -0.29431572153429314
P 0.2444447894358682 2.566198696432241 6.886306918205186 -1.1237883112578002 0.12357878789562589 1.2377018081495201
P 2.398592742004961 6.765604916131386 8.945700107223404 -1.084504683166829 0.012030963022605085 -0.16289044101105496
Ni 2.8985268644818616 4.43266778882235 7.713056120817039 0.2445990710354562 0.24334000181737445 -0.0528564816793993
Ni 0.37481467031655086 5.96859038741812 4.357910941203826 1.6704094713328717 0.5237979915329689 0.19309678939110617
Ni 7.8230745060806886 4.989284867503369 3.3127101071186 -1.996719229275258 0.17888398822583385 -0.7141825241992346
Ni 3.54266639498162 1.8067003498469447 7.846315252835411 0.07516028738292216 1.2218393871959667 -0.4546597419744105
Ni 6.798538338190357 9.274808404170438 0.5013117056639742 0.7810569174242806 0.6258862136549866 -0.5558933294056169
Ni 5.030245007599023 7.205402940548569 4.111218854395445 -0.47459736143860204 -0.5515013709855082 0.3002503418511732
Ni 8.307607248526107 1.637432111707262 8.875037436836863 0.25492719243434164 -1.0032835343018074 -2.3813212952006344
Ni 8.207833490230328 7.075037651611844 7.28771169919863 0.35896173964945277 0.2783918512151851 -1.675996992722978
Ni 2.890876685849646 6.201310107154409 3.666155707037266 -0.6124367730183001 -0.645103924234018 -0.27789897073916653
Ni 7.392175669052 6.781557329437698 9.443682653518616 0.0519995329957427 -1.454973652124933 -0.015701212785340698
Ni 2.782084349622492 4.554841049739945 1.2708664095149076 1.0070939091868332 0.500206577366274 -0.028051763930893623
Ni 2.9965648679619283 8.535138071591087 4.481493010527402 -0.05490822200210544 -0.17371349976848793 0.810921566194197
Ni 6.123908299816704 6.324107872450145 6.499512784493844 -0.4417867426664843 -0.18299903883547194 0.3737833780433175
Ni 5.102981399876505 1.0908713902918792 12.376198168780748 1.148935499947389 -0.6513205945676911 -1.011119999627091
Ni 0.5577825140572841 4.98779707766133 6.861937471625855 0.02946201401485894 -1.254211889989401 -0.4206265636491014
Ni 6.957741035176489 4.451843746786413 1.0293843423200388 1.3014060311767006 0.7603996461852452 0.46251780456624864
Ni 7.077526485236491 4.0909169517731465 12.051786512112844 -0.3298128859996384 0.12635660775107915 0.7934768883551884
Ni 4.934218275572083 4.63157243325994 2.894623712118486 0.9290498724982128 0.5940017062415641 -0.5891677751880305
Ni 3.303398563162774 2.515182199070951 13.242358189597192 1.4983036823711358 -0.5374253525084164 0.536037213911638
Ni 9.092912320149248 2.1386978979316673 12.89313350456372 -2.728615625814488 1.2308192220970737 -1.0221425759898397
Ni 3.044660888966622 8.663253307988924 8.190190323159081 0.6084973287545777 0.34115350782343823 -0.3695482569160474
Ni 3.2791622829581937 0.5095276117916807 10.693155196138273 -0.5996751024772575 1.5312161168284404 -1.4442884044969448
Ni 8.763366870137517 3.213818920451339 2.369893092274262 -0.26720935223580433 -2.0277100212298174 -0.050036238621784794
Ni 6.558094968718542 8.195499528762063 11.355083917527107 -0.38005404154337774 -0.14185264650414925 0.7394580109365716
P 4.637128685447805 7.135733966834304 12.358468673163111 1.590653337049151 -0.9611364686201124 0.6884000159184918
P 2.2728010292493193 5.097076159947917 5.525834232703894 0.06956890933807373 0.004419469223934325 -0.3561867480074769
P 8.909794779035519 3.7911548502659445 11.09931814945987 0.9119656633224165 -0.9808167206578592 -0.7465583694267788
P 6.791237147298868 2.362215361978306 -0.22607242166426414 0.4295241232490474 -1.4524020347430147 -0.7270375257850317
P 6.188728180712471 3.736538268842436 4.473131998970657 1.2218712688751667 0.5745312562217784 -0.5412110448030938
P 8.45275859700409 8.43530002607991 10.294303535984872 1.4104537153356869 0.6049540914880097 0.17104263780454412
P 4.5098491828501235 7.570848208415438 6.489552858051302 -1.7650998583289212 0.680876453847937 -0.16205586092490154
P 7.757345420281453 4.7820320689521125 7.94757037225169 0.3421654940277204 1.5717197333694415 0.4036092031554985
