# total energy = -340863.96402942477 ev
CRYSTAL
PRIMVEC
9.24412808719027 0.00000000000000 0.00000000000000

0.00000000000000 9.24412808719027 0.00000000000000

0.00000000000000 0.00000000000000 13.52971586638886

PRIMCOORD
 96 1
Ni 4.223050394909764 7.6744287284761095 11.925889101537063 -0.48953752768820213 0.28868243450791575 0.5892837319406045
Ni 4.685783703182313 7.764706881153851 9.606612298976271 0.20553604359572344 2.4812050534721655 -2.1669720241886554
Ni 6.855842718244759 2.3633907051200214 11.913144222456905 -0.7046208486527284 -0.12817463479642444 0.37236541464986833
Ni 0.9639221884414118 3.4875506058813155 3.639709874864614 2.650924087369279 0.8739842989826367 4.161013449521434
Ni 1.0255805212655502 0.7350875009259067 6.473658118077626 0.027996485212925977 -0.29785921591117737 -0.03904502971760373
Ni 3.6592880132586534 0.7704370458613647 0.5047885435574266 -0.3343557681753145 -1.0237973379844432 0.3778930293363169
Ni 0.5725812796292561 3.669419577392875 13.308598938818838 -2.020982986918629 -0.3989925303190935 -2.3899267774814583
Ni 2.4677106880166333 7.005458927653855 9.865016178276571 0.05986710866927755 0.848845337823164 -1.6395127817540152
Ni 6.593087627960903 5.129788408411128 7.262872760860382 -1.7432326259421846 -0.23238607390903204 0.5911254131350335
Ni 8.267328601140965 4.485971879495094 4.425569823647087 -1.1763228908214065 -0.4357755034753979 -0.7236678379818505
Ni 1.670155068666079 2.1603064601704713 1.9160516429722156 1.8742195333764236 -0.9982932801760679 -1.219220718626197
Ni 5.970033410217735 6.307434832968593 10.683415457125156 -2.6487502196464128 -2.078610150513794 1.6592675957834389
Ni 7.945864054820214 9.1115116014158 6.281941377157138 1.1069239314022936 -0.16104387472061943 -1.161943996391915
Ni 8.86241008798071 9.009622824146287 0.015267601573065535 -1.1936444128189894 0.41681053233712084 0.153179127260562
Ni 7.7268152010569775 2.1237644227411128 0.5047940900341424 1.2474462891307936 -1.5012478526011241 -2.15626003708779
Ni 8.29978473405634 2.0325618572774022 5.064172664450256 1.7378235391114716 -1.2564243242596878 -0.23273214439454112
Ni 4.531314326646878 2.4588363252713297 5.784724698729584 -1.186145276228467 -1.9574062906082481 0.46340046428151804
Ni 8.475266013216853 7.935714002430274 11.570328514018625 1.4426364707158186 -0.293395780823185 -1.6540734531770094
Ni 1.223044336476408 9.019005613923873 1.533687706724606 0.3078428094864505 0.8659560293615215 0.6645880011005586
Ni 1.7332647295641892 7.322282921789044 11.995946648934517 -0.5283375312745353 0.9040564357776688 1.8169389544873997
Ni 5.579755576109444 4.154662337003771 3.4885831749632428 1.2847362838305034 -0.4801735699747988 0.4735928314334877
Ni 3.693925760348915 2.9044125322362926 3.253585427403682 -1.1830262709835109 -1.0202674704543138 0.1870778368905359
Ni 1.8891577017900167 7.056930231576614 2.8896764680151588 -0.9389213659756539 -0.22561224552030823 -0.4226708477726398
Ni 1.6409251363737365 -0.07397798202274858 3.9825939898490557 -0.1730540118076181 1.1597354187763704 0.845852316633111
P 8.60103237274795 1.7476393483860084 7.508829421997606 -0.4308808943872579 -1.2995183272356845 0.43249374740033253
P 3.3998792972600067 2.1137622763969275 9.745075468122652 0.5002392303764224 -0.530570534370112 -1.0270788369491923
P 6.796495417385542 3.221375188289375 5.663227277444095 -2.58317063397339 2.013090985765062 -0.1932276585420156
P 5.131304445380118 5.8794779337042025 12.889300089707833 -1.1158034932801106 -1.0167373458138684 0.7744080446491953
P 4.873827752104146 2.3922970929372744 13.212741030564986 -0.05874507924969238 -1.8116159996125898 -1.5697739224969804
P 2.6026841988959806 4.163296352424722 1.4299695165516597 -0.8291715135433204 -2.2202751064871697 0.42681058097262625
P 2.714168380883853 7.895113792870511 0.6363796280529129 0.6487314936842763 -0.720757606313591 -1.4379694042574525
P 6.184571129585442 8.590873076230148 11.246481755948432 0.7412109890719364 0.32568395143292944 -0.6032921304045545
Ni 7.3647781775600425 7.273594100352051 9.633143870346371 2.553338381103306 1.0485215802040007 -2.030920043526683
Ni 2.2758673025444676 7.246508805723157 6.8087207764799835 -1.6492549487424435 -1.1061888530084818 1.783715930768212
Ni 5.738560448611074 8.4038643696286 6.43473294448604 -0.464429933987297 -0.7105228159594602 -0.09592811605789285
Ni 3.2190086915572937 5.207660941501164 4.136994959838329 0.3096343541692345 0.44160625122456204 -1.1789670133124728
Ni 4.79355174577059 1.11441658999718 11.325440474061981 -0.6912290007268547 -0.5700241123800441 -0.4779266829221511
Ni 0.39841636427596316 3.4620275688607087 6.848809785769106 0.4901574206603881 0.39855878521578453 -1.745704484521445
Ni 2.5396854675321867 2.66042302150761 13.322345881358984 2.039118520177075 -0.007912312868541212 -0.5423806396311627
Ni 7.626636587441507 6.756024625615815 4.835953635850207 -0.4600004374610336 1.4192689996344718 -0.92473324740073
Ni 3.4728154660729684 0.030693277732531787 6.533296608964423 -0.20112223079874395 1.0306680969623476 -1.3898416955122903
Ni 6.645455612286052 4.66313558992607 11.946332490298767 0.9428492402751504 -1.2132899549640588 -0.461284960600412
Ni 5.982392809166141 1.374121118087337 4.275755789901792 -0.33528856440222904 0.3887405135737821 -0.04855014099456155
Ni 2.692934619190143 0.04464821314952121 8.69334238472925 -0.6949121060053968 -0.8356234398162512 1.209969632341574
Ni 2.991575413825318 4.781793215133064 7.401998733974302 -1.2406099829352504 1.035017889290611 -1.2914985422550016
Ni 5.333344103881522 1.6110388710033556 1.8608771414288645 0.18740128166822564 0.746097113519644 0.3732588729984152
Ni 7.465798006810744 0.7536339946508047 2.3734908392195195 0.2741826982298439 1.4609931188461354 1.1428862084295155
Ni 2.2112970694445266 5.123336007165063 12.826765413562596 2.3778991568929624 -0.23449514983223488 -0.10879751582139327
Ni 5.986303075250791 0.2407549903905765 -0.1410459784703782 1.0384220298761533 0.2976998075151776 -0.6492490567506431
Ni 1.3415632997655056 3.922865830922021 8.846782889833902 0.453910779623528 -0.6651377029564415 1.6232474689350884
Ni 4.894248030546203 4.595228226668781 5.776485407568242 -0.036937239345981546 2.013017195104333 -0.04452507899556848
Ni 8.398872540584367 5.173466912548167 8.782665618999086 -2.2764956195427954 -1.204926670601028 2.3576758878675528
Ni 3.5107810991927186 5.948753427884727 1.6137705107858944 0.7253575669794476 0.5736560527056765 -0.04981743774275937
Ni 8.567984615649554 5.66002233831514 6.502367605971468 2.1275269308191556 -0.748828139297562 -0.3919798464466862
Ni 7.774930886566669 0.9078824365303935 10.478643234428427 0.4824004024227886 -1.015075127620097 0.3191070695463601
Ni 6.74811165216792 2.0317206416421705 8.638777071211853 0.5035572390060618 2.976119272091249 0.2622538080027419
P 7.140201335336711 8.227310771636365 1.3717102495415294 0.034979858509294595 -1.3781724867044782 -0.31240471782552
P 2.435947864690735 3.7298761735952537 5.475259030370712 -0.11987974177748388 -0.5893114998547464 0.5843839806461419
P 4.973978633336038 6.46457576245548 3.4613481254630214 -2.238082824092552 -0.38507540601736906 0.9440111217937356
P 6.5852763399194645 4.305572724313225 9.481150995664546 -1.529513789425353 -0.580241162122362 0.9991620559342664
P 4.318117005818825 6.893087309391453 7.215100032494284 0.6272959495183197 -0.5998705063175153 0.6234698909040101
P 6.9849924285725 3.2638334675489356 1.9308256081175736 -0.9794923454194808 2.096890951100853 2.7783361329680667
P 3.1279447880114786 5.081164295869154 11.005936607260269 -0.7412858081739299 -0.09410957479191535 -0.5600459181214097
P 8.792968199498711 5.505294126199633 12.04491002096894 -2.2251671444721484 0.4539771140850891 2.678372927608852
Ni 5.936902455968602 8.278116498353224 3.928907792891115 0.4062247864014745 0.30502488042168113 -0.5494696852674601
Ni 6.924461879347244 6.988163164428374 12.932175279133865 0.862389909276818 0.9233039711533712 0.8857946613540034
Ni 6.46425221798039 5.881409956426878 2.2106333410642005 1.6153935201083083 1.2857323291951857 -0.8529411051590924
Ni 1.9276687384534892 2.954284602039325 11.044564119934774 0.0891198348868078 0.38293727662844373 0.3390138357726161
Ni -0.16073689522430584 8.682112618205299 8.588054541645729 1.690326779082089 -0.5820743586763589 -0.41328323591015276
Ni 8.740406088488509 3.43656924073512 10.68844796033197 -0.4388335735754313 -0.1125541546503481 0.23181143235248464
Ni 0.923504088200485 5.521286467396899 10.664391966402697 0.8279759505733224 -0.9928685096160708 -2.2664487768297548
Ni 0.6564116531248633 5.866591619467793 0.5741999264174878 -1.2056195829029948 2.171324901840712 1.9565174602453914
Ni 3.4073023319313385 7.716415557214825 4.797150484746368 1.3529165403511667 -1.3469461817003447 -0.3837677429495391
Ni 0.7523009914134371 1.47870918069188 9.406480628465108 -0.2393337088714588 1.9456164970621717 -0.48660672719465226
Ni 5.2732202962820915 4.054428258621142 0.7915450874161831 -0.4679955398513682 1.7315402772059212 0.6966663696923421
Ni 6.930036088446638 -0.10522220977571795 8.446696111653694 -2.541463998263223 -0.14061260344946105 -0.16195893033572106
Ni 9.163121567256455 3.669012835767048 1.8124813588450246 -2.3653773702768683 1.3418505123449924 0.6807448133660793
Ni 5.026346617661187 7.521244285713171 0.8013660488543186 -0.15509254223319097 0.7706586049090921 0.7110138966632659
Ni 0.9826323032294262 5.8988536256981146 4.866652460059454 0.369283433290435 0.209014231952311 -0.17112902687076334
Ni 2.0047740089311716 0.4317238813672155 12.456416994707011 -0.7406641154295308 -0.44649186145163744 -0.8886825244247597
Ni 8.758681729267119 8.316063643217257 3.1823242945588963 0.14990431316403213 -1.57196887326577 0.2545695519846068
Ni 4.2271178111680285 5.435574913881845 9.322488482731954 1.2089288497818858 0.9692251591655179 -0.801088382153859
Ni 3.661996542721543 8.706184327151933 2.5597951432781585 0.9009119766114162 0.24139161984175203 0.08290856386977334
Ni 4.793348374957677 3.5365352394098175 11.0263125138886 -0.7107254188885694 -0.27293905563072995 -0.994470821106184
Ni 7.628198845049795 4.920473621284146 0.3910977882494458 1.0155762356262317 -0.9296090874357926 0.9304575514790169
Ni 2.485052671881413 2.1461814328008635 7.6471169527146525 1.3253013497370594 1.4065690355693001 -0.5078453248584544
Ni 4.718378498015583 1.0598207708578453 8.0991178285421 0.7062041339794483 0.4162903981675927 0.8378878103703956
Ni 4.845115490971946 3.6854488951015787 8.082962790694504 0.9763437724881701 -2.6339069839859928 0.3815018297334978
P 9.518401133287957 1.6899744787972566 12.612008608364613 -0.6678867264564884 0.28040991008647836 -0.8587006333506888
P 3.714891442334695 0.6978956013080122 4.4056681407779585 0.9744995201905796 0.752627201328678 0.08265505309807054
P 9.251060955585695 5.948762672012586 2.7403218674244907 -0.8139135589429854 -0.41780657770180296 1.0156202014902898
P 0.6573582518176956 7.990152671395993 5.63961869930323 -1.1342197910037692 0.49394568405822675 -1.5754051526408288
P 0.19560482109827404 1.5004513694178732 3.1929855472194784 -1.031732790781436 -1.349647896902224 0.7053440999719982
P 7.583152209989521 7.240490878486497 7.439706455926767 -1.1422799423040844 0.5454487370335251 0.03025622778138015
P 1.2140405559410692 8.90393471032644 10.301228083719664 0.11856230851764099 -1.8698545715395085 1.5676154813930807
P 0.8204450043439349 5.839367662921004 8.110090608311554 5.283513895205745 1.963226496834451 -1.2057987887933364
