# total energy = -340863.67058090883 ev
CRYSTAL
PRIMVEC
9.30394715495841 0.00000000000000 0.00000000000000

0.00000000000000 9.30394715495841 0.00000000000000

0.00000000000000 0.00000000000000 13.61726711867468

PRIMCOORD
 96 1
Ni 4.603872148281781 3.3980712989204505 10.785488109133762 -0.2487004947983394 -0.7523281820310205 -0.14854239981949902
Ni 6.121625040283492 6.595698361310006 7.5526130431191945 0.3564515716330893 0.24289134431573012 0.36640354063947866
Ni 7.434002603786179 2.2339428286633662 6.403369957842883 0.326509018437386 -0.37921586191279855 -1.5878508346033493
Ni 8.51277666325908 5.993500384636121 7.573147784784963 -1.4855934338933188 0.7761831342717471 -1.479872986469774
Ni 6.718129001326253 2.2578725806294573 3.8936665104010704 0.6934005544568769 -0.35570569460600027 -0.7076249255863749
Ni 6.761103933025855 0.49728201709160474 8.242736111163664 0.4954405234361984 -1.555071326179483 -1.0542456271719713
Ni 5.332473550387745 9.17050059628352 10.974863439788274 0.6170228497270858 0.9178200652206645 0.34280749848709346
Ni 2.317901647381097 2.4630339183449586 11.814667478538528 0.2558383913947014 2.4140416682517905 0.7721770984361476
Ni 2.3719110603527755 4.349827872452034 5.962783403253521 -2.600636137748005 -2.2686424420469637 -0.8881713891162961
Ni 2.387141621771318 3.961006618791495 9.382010947506666 1.2424501214677828 -1.1914345496518641 -0.04234092686005611
Ni 3.1012102584919665 5.9152355815495135 10.18348272416505 0.7295248109832597 1.2824860543437462 1.2539316397448212
Ni 2.995619762744235 1.197669199587472 13.586778189387584 0.28030115242275594 2.1796398494643108 1.5289545744877733
Ni 8.049747127451754 5.956517194875152 11.94302380246893 0.05293901409087657 0.6350887060898611 -0.8406646017845845
Ni 0.9712855585147959 5.980995879720715 4.495264382486381 0.2619905270390262 -0.23116300013520835 0.6682551655395007
Ni 4.45149210251948 1.227506957968208 7.841721104421183 1.1396011099203405 -0.3115030319468571 1.7161267708643284
Ni 8.156193586333577 0.9669499191616862 10.329418856159187 -2.0591350725083184 -2.1042093391391377 0.552690506197603
Ni 0.120638699802924 2.251611024224644 11.474209072348804 1.2819054992499277 -0.40914170293795343 -1.1056422364763927
Ni 5.531503586957969 7.178255705635361 5.313280437895192 -0.22178618690599866 -2.548571812952598 -0.3096955464244731
Ni 5.988504165038225 9.298448476935809 5.693256429038558 -0.20317088579765655 2.065234243427521 0.12947741276824795
Ni 1.1425526169097417 6.8940480332760385 13.328839281297723 -0.32036999541918376 0.009162383225558415 0.19493949902679975
Ni 6.033442229577967 7.778043960007839 3.030822177028411 0.015511979592670058 0.49168954103419843 -0.934280781879849
Ni 4.098611996543627 7.869241249576898 8.048444574856399 1.530643789264738 -0.449100245608762 -2.5868653092161575
Ni 5.312600319361474 5.964220863081966 1.8136974936398922 0.20191464479305224 -0.5081140051388088 -1.1651956705599933
Ni 1.5207952827065758 0.3652143486591527 10.893963758880206 -0.5922721251449671 -2.199664886435986 0.8359594829994312
P 0.4158520111982842 8.277377497437127 4.43352338946656 1.7137006779213388 -0.3309238596756301 -0.2644238190708672
P 8.946359206464278 4.517001194118721 5.920419740879026 -0.3082192189892627 -0.7129944174284043 -0.6813140556059879
P 3.856802411163106 3.661633512643398 7.555949438552725 -0.34900128600263114 0.7069392123732599 0.9956126480201111
P 5.201139032987536 1.1491398114633935 13.195050382649983 0.4624296157278165 0.03133326289564281 -0.014352926287562379
P 3.5249399217080146 6.528654118437669 12.649868854653626 -0.7010866102472247 0.17027516351090027 -0.4084279647003805
P 3.2827023547604477 3.2054982016443425 1.2340467023916006 -1.4408906916693054 1.2224394826738105 -0.4747220599419244
P 0.45013891708686815 7.211024207355646 11.265946729061648 0.6815379986913359 0.06635605882773088 -0.9025122312190005
P 5.27489142172595 0.42256108745907267 3.275592278379232 0.7567185977892322 0.9006083293280682 0.25163180951252145
Ni 2.2786855103138057 4.509102143022605 2.863887966802442 1.682889091857121 -1.720714904455643 1.4331115619445187
Ni 8.047793298558721 7.032741972840003 3.957913056377527 -0.32565541218783917 -0.16361574921285368 0.3569010004656821
Ni 2.2800811023802576 9.168304864765638 7.87535580361738 -1.1023663939385981 0.6503721146114928 -0.14193337914341364
Ni 9.012882428298473 8.991204231532924 12.620428374814471 -0.6088801660152933 -1.3094003622360868 -1.170409867771081
Ni 3.0931623442420952 8.547601337290605 12.536192298472871 0.20379206432142322 -0.44062306137568635 -0.6799323447671128
Ni 1.2173191358831112 4.92770533138122 11.75166021831708 0.7290352729413508 0.46106178884601234 -0.4194076036403358
Ni 7.614480569819706 3.362753515692114 1.69479118878879 -0.45573369176487966 0.6737735242545686 -0.7714137379075618
Ni 1.8802346713947518 0.7502572693984504 5.154857478485155 -1.8801317850958008 0.14623226362908362 -1.0352307766323654
Ni 6.699260596587828 4.517736205940385 6.002941099768312 0.13751930923611802 0.8839491235048325 -1.2512093557176516
Ni 0.13814314589507148 8.225294001517153 6.911184973457353 0.09013130687045767 0.23703462842463696 0.12655355425323364
Ni 5.2509802776540795 3.2183469526028077 0.727698919236326 1.745540705250071 -0.4594867310494086 -0.7183885918607821
Ni 2.5008730712400173 2.129961915765609 7.074047776428127 1.3315591577213133 0.9246160050965754 -0.11362938999239786
Ni 8.544921800523017 4.590567503914942 3.6869700214124728 -1.8222313132345906 -0.548991460079461 0.5608794697662985
Ni 0.6892159332012774 4.257523413176921 7.841121930227319 -0.16262124651006832 -3.0498600534188247 -1.7319650234481656
Ni 5.179274757279794 4.929817327375116 8.969884236731097 -1.6071665042128258 0.6870805257761199 0.9124886257054221
Ni 2.916778114936827 6.014183059060935 1.0829961906712733 0.1440373128602939 0.06441513305127615 -0.43928531640086926
Ni 1.2481431126574731 1.8889245579951908 9.23676888996691 0.8456378866294597 1.2404498032083024 0.13998191184399764
Ni 5.613806303090177 6.376841613449058 12.282978865120018 0.6860106897507089 -1.5588562471432121 -0.8748664444772738
Ni 3.411292207763302 8.424724107813091 9.989613587056562 -1.4269578836382972 0.8577076733098002 1.455971754372144
Ni 1.3496026558885075 2.3598531448986333 2.384084344751078 -0.9342810389901652 -0.3078009005049215 0.3079227707947665
Ni 5.906601518631732 3.2483614859786276 7.819347902806542 0.6357793043989824 -0.9911911219136478 -1.4547813336084687
Ni 0.6461581963724002 5.782263569458 9.348553023305554 0.2588553238441542 3.839676719313607 3.5053877998204857
Ni 1.6144767261539201 9.166853449016527 2.758272350397515 0.31071833126203263 0.31115696146134797 -0.13333740994428647
Ni 3.6022650261365454 4.475607933427765 12.794021419986837 0.10588188483649506 -1.0078387577726577 -0.005690365516557942
P 7.443166991689211 7.783030875658626 6.201548737139756 -0.1716954408971946 -0.42980463060394364 0.2397936792270128
P 3.727170516083967 0.5832337412802285 6.0119966314901605 0.8150327601490932 -2.1568958708995756 0.15853499225583664
P 7.143784581594006 8.085799922501755 11.41807835943612 0.7021680162368616 -0.2908118221460927 0.6307903358248234
P 5.087147072999765 6.968516825941898 9.77305770531584 0.43660262736238353 -0.039649496070822035 -0.18613655602318913
P 3.0413393588411908 6.540674818103372 3.117319112517662 -0.012793552220242484 1.452246483001757 0.4662140224709132
P 6.172787445439609 2.0306888001053487 9.493359656120578 -0.5462748324792462 -0.042422687940585 2.217732542570974
P 8.473160456466074 1.6957467041569543 2.58216072674256 1.5729541199971748 -0.42056408584228216 1.1141379326522296
P 6.667106155376782 4.341212417428471 13.027952422954884 -0.7760118988012055 -0.09923121228919685 -0.44078144133042146
Ni 5.111346639432037 2.2103480187932236 5.489392991944857 -1.2718910524367193 1.4852630471370936 0.49790646847818765
Ni 5.717201067320025 8.374054811853787 13.360745307120942 0.6351131315698934 0.3742500332670909 1.1593698079068355
Ni 7.6292831496712035 1.5107005000925757 12.774521277239662 -2.333677982291058 0.5861683262400744 0.45784431034997924
Ni 3.6588888482460433 5.777732547215588 6.973538166196992 2.5906170629491063 1.6750767949015541 1.7524965677426139
Ni 9.078996276459842 8.05854866141751 1.7487838546556715 1.1566719493596984 0.7052613104502048 0.37957041703873984
Ni 8.144144974826544 2.52994790595776 8.600979012253536 0.4043370824604585 1.5446915256070557 0.872057514273569
Ni 0.42716281969951925 1.5395706479739055 0.28364943553274186 -0.3658301846345119 1.72012535050076 0.4405891228139573
Ni 8.235239920977397 0.48820415589669225 4.697589877122852 0.2616580834002719 -0.037839953665909025 0.013851561171111628
Ni 3.594775348713255 8.527923489153636 4.153824409876587 1.2501276926176987 -0.14552392470814937 -1.1771011637483275
Ni 0.42180653734847784 2.011457541429645 7.0584562218617295 -2.451769521819868 -1.2388192095834147 -1.9372652968839992
Ni 8.263049418888224 7.946129068491275 9.478706869817547 0.31637552954781 -0.5512262629472506 -0.0832006411888954
Ni 3.61165270877021 1.637885457081869 2.556955403627732 0.3232213488250498 -1.1264123791442084 1.0934348957769233
Ni 6.654843553086226 1.0433725407205783 1.5699350097610492 -0.7175532404436803 -0.9122119750052677 -0.6017623240235895
Ni 8.740676847710635 3.76403275453251 12.699585426428897 -0.5851540260429471 0.0005093355362507356 1.3827680764949606
Ni 0.38129529084351954 2.6941253566551313 4.620134517434786 0.05776060384923601 -0.017919560592898173 0.7236673237612181
Ni 7.170440390063232 5.943649836022469 9.736931409083672 -0.4460231493453351 -0.5351578966304783 0.0620818569324092
Ni 3.6673089203803015 8.703200548752854 1.4192864285558602 0.4213408161073066 -0.8657541977633605 0.5094432654731935
Ni 2.2081615912224493 7.571868492057382 5.694345921245102 -0.029224701193072248 -0.05157812918760794 1.7446112514572663
Ni 3.8785085197699836 5.464617511186496 4.747741873622858 1.141903275690956 0.29248381053187694 -1.7486106024246466
Ni 0.5820316713136582 5.705710692639573 2.234824842849364 -0.6942551891476882 1.5463671135372659 -1.8069964985627074
Ni 4.9033103820596455 3.7359348342612835 3.194842391019629 -0.5648857627122142 -0.20539668980438175 0.040831689304381295
Ni 7.124395155817437 3.5677380784125314 10.77681403924341 -0.5032785314233784 0.021617578269775676 0.4680456763630133
Ni 8.30009773627896 5.327347075530313 0.5398847909068186 -0.06589454581028006 2.366260801323086 1.8992813614410582
Ni 1.4878779178325365 3.979688944587728 0.500127164117744 -1.2465500025687692 0.5957042907549676 -0.8109503625496033
P 3.09302278503545 2.9210300187659493 4.4194837332780565 -0.5194448567705957 0.06429454831301186 -0.24770213544081213
P 7.342861137899778 7.424131115902811 1.0036902759030921 -2.7479606060000026 -1.1198236701830973 -0.15982105805711186
P 6.31100688370098 5.295871822458274 3.5964565719559736 0.887625029694523 0.6496182671646038 1.2148822391518432
P 0.09011337973078266 0.23350581258513425 8.726585089418316 0.49397653729616214 0.33117505645448775 -1.4713438659528402
P 9.15377209938032 4.064271127761807 10.177558901040317 -0.05881964124136967 -1.6400552845210463 0.09307933375518809
P 1.4053984267052444 9.026661573967905 0.35763442294889836 1.0545521026687967 -1.3948316925277138 1.5093658537225683
P 3.3708386457304242 1.4583192778650906 10.416215378745369 0.8302464917750539 -0.9624194490975941 -1.5313847811958206
P 1.7014872395236253 6.185887402970035 7.550719689882374 -0.3896285726056903 1.649686122742591 -0.809263975986116
