# total energy = -340870.63984856964 ev
CRYSTAL
PRIMVEC
9.25496831670638 0.00000000000000 0.00000000000000
0.00000000000000 9.25496831670638 0.00000000000000
0.00000000000000 0.00000000000000 13.54558163803247
PRIMCOORD
 96 1
Ni 6.2825129447704136 0.9615171411497022 5.453356654753296 -0.5949237038352012 -0.30959784450434424 0.8626968989942755
Ni 4.096674589586793 9.097032024948819 2.298834111158334 -1.6172760818430016 -0.0431762782771579 0.35273658467534735
Ni 4.969020113528458 4.266938236891023 1.4723238165080856 -1.2300602324438623 -0.18668162989338172 -1.28100278493
Ni 0.06983706344474588 4.9688072492631985 11.033594294053929 0.04678996377034522 0.8363598037616434 1.193051773540313
Ni 2.3533717869116835 1.2583147116992133 7.458075285104402 0.5552574955938309 -0.5491938058982542 0.3668442277213231
Ni 9.1061481684828 2.233649520154738 11.39600588612478 0.9881124829883241 -0.3406086910635618 -1.2185355196337144
Ni 4.112130386238316 8.493802462104744 6.5372328030587585 2.7261280835059436 0.8718582537785694 0.4187928528744723
Ni 0.8265463890256619 0.1555695345236177 6.0783224355708825 -1.0152887862928 -0.2529487285517321 -0.4505488051298305
Ni 7.0634841691069985 2.402589707027131 7.227543285827288 0.6226095997862439 0.3874904432167649 -0.21404665216989588
Ni 4.264985438631459 6.268214019125741 5.081556823087653 0.4515170825803707 0.849485285400008 -0.07924294209272804
Ni 7.6620769929556145 0.2997434268813552 11.712687755540037 -1.643973645738846 -1.2045420335680996 -0.36926774956115116
Ni 5.973221167346916 4.655998583978876 3.6506425101471773 -0.1326918059404876 -1.3346478239489659 1.8071782755562102
Ni 4.4409131263852295 2.225236754192921 7.606764676376079 1.6257805197695872 0.41230338849538667 -0.12953911924411884
Ni 2.664829226860004 0.10619335445443262 9.598520798469623 0.3653959253105707 -0.007718194579864127 0.6038559733278245
Ni 7.8868709120387495 5.981874562478159 12.983277331370337 -0.33378858281793483 -0.7531326802101869 -0.3241729141050417
Ni 4.399867343062174 8.90355691776314 13.506298713567451 0.07946354274396636 0.33664327865791055 -1.6024896675624467
Ni 1.4992307851338176 5.302837556297186 3.8258816282776706 0.7138323399486673 -1.0682257435011475 -0.7567088275972192
Ni 5.808390186290857 6.858986394968048 3.069957123987802 0.4510260018765652 1.283729439832544 -0.22930332121865024
Ni 2.146736115152073 8.72634278944975 0.5110250926044768 -0.8112465536337835 -0.11605394027349046 0.46397227762458804
Ni 2.877591687471894 6.968398627311942 9.44156857171862 1.630774887660385 -1.989791391807173 0.10009381739980826
Ni 8.080234959607772 9.137781649294121 4.5372545673453235 1.208621602954112 -2.433603135323486 0.03522282775803611
Ni 3.897017163740505 3.92750302851303 5.440636626658774 -0.029165308710046543 0.33740098275954156 -0.2846794839961097
Ni 8.872682344332313 3.466633384287953 13.26898004621575 -1.379177788040541 3.488104587260006 -0.06150284450048763
Ni 2.9468743783301576 5.849269380188926 0.3819932534812043 -0.13521020148696714 0.15953952226095106 -0.04671000246202923
P 7.772701626114687 1.604820715671077 13.307626016322192 -1.0499377438252369 -0.13399278414009827 1.4791618193353624
P 1.9908084133647346 0.9877642305531266 2.062490917439608 -0.7519481729837824 -0.6712754404230633 0.21684606929190398
P 3.2847177322027243 0.7103558180784301 11.783477155197623 0.02815666493987409 0.5861444149806744 0.16661776926397112
P 8.066333997589455 0.21279300200647114 7.074640107600259 0.6159152184852038 0.03276639579774356 -1.3153162134998895
P 0.5693508267826575 1.194797865939093 9.58945833375036 1.7094082211935722 -0.8819470054731391 0.6521909129877865
P 3.019498112656205 4.535795058883081 10.459017186810724 -0.3796256957567075 0.7810759435876742 -0.08022356083844248
P 6.371860406371492 2.9779803259623536 9.11927819166215 -2.0470416316788937 1.9155111930363589 0.3729272006906093
P 4.720320611959764 7.004002489418773 1.0375309702742244 -1.0384994200813082 -0.05097777659944768 0.8472031742340507
Ni 8.325482358092023 0.4098433033517206 1.7389677756382396 0.962537462732697 2.1092309607234445 0.17090611222667984
Ni -0.011553902119617375 7.1372925393440605 6.517537305541329 -0.11067442112913196 -0.4009239430138515 0.3083040653935851
Ni 2.222321439255658 7.920133267227715 7.259361865999704 -1.6101458985561237 -1.010572354653737 0.8020813421947478
Ni 6.125937395219239 6.317589273698121 8.462479948220066 -0.20229233984744516 1.7290812741424673 -0.41866738304020157
Ni 7.789110684475855 2.029614494418528 3.8485701824640226 -1.4478270137778229 2.1315021134168193 -0.3631120143724004
Ni 6.803188192565634 5.642670728301535 10.693247471322538 0.1943023796634331 -0.6869344871165589 -0.13828112710280702
Ni 5.385604735611298 1.1584721163239873 9.856455832660208 -1.1719309324012979 -0.7065072670421639 1.3412308764831224
Ni 0.1568643045544848 1.9421643012686847 7.585823460158473 -0.14421729008158388 -0.6630440536522064 0.8917714477627288
Ni 4.8427268194526025 2.1692997272696855 3.9104877697442726 -0.4213313030256099 0.6106524274243678 -0.8277247537944649
Ni 2.1624973257494045 5.635118674368816 6.1489896696501445 -0.538844087232814 -0.5633166184528815 1.3746816999424003
Ni 5.827159261505999 4.713980958842223 6.82633671866431 1.2977591784527327 -0.8343209189547437 -1.0519984830090077
Ni 3.247901469280714 6.97812559873754 2.9072334991578206 -0.305926309190028 -1.0014523946303397 -0.16503448393725126
Ni 0.6150703689733894 1.2551865324966895 3.95288477840333 2.27377642083942 0.32038722181036433 -1.1900494963788795
Ni 0.8694912917935637 5.35840438449823 8.511000043744183 0.5482514965896429 2.3963172543888343 -0.32200418858849705
Ni 6.2024852360005225 0.2993352827901383 3.0604883661709317 0.5452589896202222 -0.05626525025063213 0.620042610390016
Ni 3.7071422391281454 2.3990265443260315 0.10718826352032405 -2.189590018698487 0.2745035719043724 0.44891075530577523
Ni 6.973525879614303 3.0869205549354524 11.435436677522272 -0.3327154043584141 1.1919132890604955 0.08706732323315328
Ni 0.9682917777658188 8.224742030815483 2.833085471593147 -0.09924561046690004 -0.08788004894243574 0.1557774841153575
Ni 9.039456868679881 3.507577362962406 2.149114641942158 0.641656846225682 0.38383356319046796 0.9292051671291545
Ni 6.0269647668411634 0.30012750805562954 7.7350144706987205 -0.3324150995091759 0.5702930497707145 0.17716443443156585
Ni 6.814636588049427 2.8017194593586106 1.6514768606289552 0.3047669987746041 -1.2699933211933743 -0.7408561768356788
Ni 8.375061221961609 7.338449270015226 10.84843940314952 2.086731494069348 -0.5568032428143959 2.6281541406626157
Ni 1.4312160248990626 2.856138671520858 5.671670245204459 1.8645611843510534 -0.42080551242912684 0.5329482905736692
Ni 7.093766424582317 5.150176858233193 1.6740848965932302 0.9037856986147855 0.9537874844542089 -1.0819081260842465
P 7.745066291503043 5.599885010984177 5.85003846803428 -0.42162775122010615 0.7594959034240533 -0.3560173123091482
P 8.220003487171422 6.633192939334994 8.754969331140066 0.8966195198836493 -0.4719856348473678 0.21923565257000308
P -0.012307256519278423 3.552732352101795 4.398548510114364 -0.36886408636482926 0.7864477494225488 -0.8988666640466133
P 5.010325035957049 1.6886151964392728 1.6455175866984666 -0.012626944735391157 -0.2929260402756181 -0.4953389648613276
P 1.5758341557234308 7.223169387924588 4.800120648515507 -0.4767465465711208 0.4869258010969679 0.2210256545908903
P 1.414140608837949 4.212519024728775 0.6755645421668106 0.5548247789317864 -0.24290060028711072 -0.28377651256586617
P 5.305752871234449 8.392488326808804 4.765118359332237 -0.3365774584169816 -1.1453459828239179 -1.0504851316882746
P 0.9956587183038744 6.825927649076288 12.321182469710488 -0.7979562642827805 -0.39011219711032813 -0.3435027247819052
Ni 8.378541089950216 5.673434242115704 3.6154106977561495 -0.6629360673194324 0.2033989426480626 1.1058638655688955
Ni 7.013424046898563 8.406537368315998 9.566567095763608 -0.705013970326089 0.48213146503211807 -1.0516457276552793
Ni 7.670721133118801 1.5191197114835915 9.56621448148072 1.8620376465982513 -1.8233656839493502 -0.3412000447906576
Ni 4.799783767678312 5.6581913097294425 11.946389581375922 -0.43313189520496376 1.431922169622108 1.1220255629304225
Ni 0.8146981789219018 7.890471094612069 9.210426670046694 -1.679282348342469 0.6219010037549935 0.07229736401283032
Ni 0.7800781199192963 9.20010460417517 11.608021470814647 1.3290104231575304 -0.4855235214328025 -0.4218792051092799
Ni 3.3915570834273825 2.3831542741120426 9.85153866813269 -0.2966960488410116 -0.02302679991247647 -0.004149760502315433
Ni 9.065666938211088 7.948721863549006 0.17393601862837632 -0.43132055302783784 0.687686534791235 0.015492439208644286
Ni 6.814442233720276 7.742317565990766 6.417219004808087 -0.06710296429608444 -0.918728950188179 -0.6075388214960505
Ni 6.438375861781369 8.45148874815818 0.9621344475189577 0.946345683464183 -1.392226650804699 -0.6921756809108401
Ni 5.001995564707725 7.671415255722912 10.707077170086833 0.16481208351380003 0.1376704901020016 0.6402823344756586
Ni 4.589409088824561 3.4869572941363023 11.58400482871243 -0.20785209332340976 -1.102643558859385 0.42060676615475945
Ni 9.042446223361583 4.022218371585895 6.799109528143883 -0.41181050801936825 1.8820356869867327 -1.536096070628561
Ni 2.574195324699308 3.701589258295263 7.93841460562637 0.7502635861925079 0.8142269764183461 -1.733096051728815
Ni 0.6179394090703787 1.529957279075767 0.055867614662824645 2.2361624671413876 -1.834314726761686 1.1045245779321815
Ni 5.496840196661988 1.593529654644216 12.616204937387089 1.6739606790192396 -1.1657363735548116 -0.0625701094227374
Ni 8.403649818282899 3.9720194248566374 9.000307428311254 -2.5398958824451547 -0.26651001217593456 0.4897267608808727
Ni 2.937739724860066 7.647009904962394 12.031632464644693 -0.06378341300454822 0.02588175286276833 -0.7868213307118836
Ni 1.9575182932716044 3.1937876710642743 11.924297047132297 0.6177635845478522 0.2487033230118168 1.5295567268481465
Ni 0.12321324070721727 5.938052288738662 1.502489459385914 0.9856077142885993 0.13364619943395692 -0.22054665807194274
Ni 5.019866908021552 4.581107382479401 9.354849521045105 -1.7814111938944353 -0.5428794336444521 0.26635728864815417
Ni 2.2231914062528095 3.1369899321119417 2.5078964355419138 0.08127642758298906 -0.4321294220823784 -0.19508579479667693
Ni 1.2238584656311777 3.4121401323812663 9.701792359509156 -0.42586312945769234 -1.283128058803119 0.1657803609643403
Ni 2.8214603062195076 8.93704139218542 4.642219787538884 0.34458027411680014 1.0186952408711876 -1.0629418693943886
P 3.443070235620422 1.8719838785091054 5.614007166739002 -0.7008135590914962 -1.8108541817459005 0.34078635429200665
P 3.8043934434480264 4.447659998097182 3.18731567190355 -1.1000914818614924 1.4314974233798636 2.185860376452726
P 7.953978685404134 7.776884871675459 2.62364369351932 0.006561455267601604 -0.9989625383289505 0.0586751452437054
P 4.593638609225606 8.373876586050594 8.761282144850247 -0.491990874324701 0.1112061252628859 -0.4714616440230977
P 6.440356424945096 7.5927110073848585 12.39259472871816 0.5138874172874763 0.13554315934635366 -0.4953487350533404
P 3.95867376092161 5.509954486395645 7.467597721735991 -0.8146900320976939 0.27507487102681016 -0.09291118360843997
P 6.226603682751342 4.35235233706881 13.236050869876756 0.5166948048292843 0.2753075558629065 -1.4257504935937575
P 6.416867316022004 3.1322421334998274 5.330402553151614 -0.5974894076798485 0.3109204199705097 -0.9936020453479857
