# total energy = -381173.10734801396 ev
CRYSTAL
PRIMVEC
9.20201108641363 0.00000000000000 0.00000000000000

0.00000000000000 9.20201108641363 0.00000000000000

0.00000000000000 0.00000000000000 13.46807337850073

PRIMCOORD
 96 1
Ni 3.477946133592426 5.61353048303049 2.836173949028965 0.5634436309490489 0.5626226777096504 -1.0408776905054977
Ni 3.8662157931042698 2.0070690613700344 2.0001169419274314 -0.7585443381440614 2.544370630387057 1.7182489594136539
Ni 4.619501629889098 8.888296209882112 9.154855468589732 -1.4438083795367327 -1.3926552537016854 0.24209173123257013
Ni 2.386550800209891 8.551263348591862 8.512886360987128 0.14924765341663973 1.1671623073680608 -1.9266073029495205
Ni 7.317062003786747 2.370557704787992 6.066855600945207 -0.42389109333298614 0.8705968705676427 0.6524133134112376
Ni 5.471110956077254 0.03665897211838846 11.681775587663099 0.6240938976412541 1.4709931674816408 0.2979420054329708
Ni 5.80044173401415 1.4366455906519306 9.51112697464325 1.389801072082342 2.2370597821446765 -0.5405510426215916
Ni 7.247577617405415 3.429838019170283 11.078675775263084 -0.3562785363903348 0.3672311787470966 -0.06236364983888615
Ni 2.07440017713645 0.9852777405141043 6.614911743100591 -1.0925499220688086 0.7056451761521847 -0.24626128922922746
Ni 1.9535225583435516 4.029910369893771 1.800008166516793 -0.24589053615337006 0.14518556753212417 -0.3758011798042947
Ni 1.265948283358365 1.835405542903109 2.9550298859667476 -0.8385907499746912 0.956802617131449 -1.7644851075630577
Ni 3.5204410211979082 6.4553028592727255 8.98324532178762 -0.943944016001226 1.577995281965508 -0.4563157895205948
Ni 7.913766418420238 6.562313047225118 12.88618542128962 -0.34507803968882506 -0.29092289380266023 -0.940423147332161
Ni 7.897819333054214 0.2008476969079787 5.439512169903919 0.3456786493873014 -1.1571656011666651 1.3772378907053506
Ni 4.36467033442383 5.250327101958952 4.895429456173838 0.06468458466257893 -0.6274730985261323 1.4498468724213287
Ni 0.41366721035444415 5.7018789923202755 10.967321317835044 -0.2689816136448787 -0.8427819052379034 0.7214926847074026
Ni 4.921769292960744 2.330473744110323 11.37385512912674 0.9631321588939026 0.5339278808781192 -0.21615341410025354
Ni 4.147880153155415 1.5973771198431275 7.40968944827284 1.0512844876611185 -0.8157187304725241 0.6277767458094802
Ni 3.856774529638869 3.7815572902956016 8.42201742083655 0.4363177491321131 -0.2296761311770367 1.0679318664098125
Ni 6.7781830273760475 0.3601437123558984 7.584869055209678 -0.26788580947753865 0.8980696220666146 0.661699366698854
Ni 8.296634497372443 2.3341361445579154 8.995326642259089 0.5199397941291433 0.28324429421147995 -0.9650242337102929
Ni 1.0466735590727387 5.9184391233093185 3.529321882182761 -0.4439801507733773 -0.8857905475889455 0.18031557846603782
Ni 1.563274466429114 2.2928099123716406 13.647333456422245 0.6187724854283408 0.664556633641991 -0.6737696675998267
Ni 4.485575559250254 5.075396869524953 10.224638038325883 3.050315652899005 -2.708383357928013 1.8994217436736647
P 1.7548327330560765 5.030113772533491 13.341810121796934 -0.5763138020434978 -0.6776178377013233 -0.45000578814216696
Ni 6.586919225106681 5.1318972181385645 5.376724087054529 -0.6878600842546218 -0.043486610428725106 -0.221082990191387
P 2.4121691993206884 7.979091495750535 10.58497683331869 -0.36394505179665704 -1.5659764031277612 1.171061642422467
Ni 0.7679520021953121 8.987723940626424 4.371642698291018 1.1761508840199162 -1.4881835632179983 0.13087737843956815
P 5.450194784676809 3.2049868761126943 6.726683051634853 -0.5905358591801507 0.9070296594733798 0.1354760535538441
P 1.4943053926735737 4.770000522653856 5.466947046020633 -0.5637341656062743 0.4096932045660492 -0.8754215456497956
P 5.378906804105204 4.033002245648522 2.448616525182055 0.1324472940298493 -0.1959219175447271 0.26894150443556264
Ni 0.22628113559416121 7.0939224348076815 6.344688243543143 1.1507324439468118 0.5558771314557006 -0.8494266642479307
Ni 7.313022320880986 7.81413624343008 1.643980705438182 1.2024663819859935 -0.36539001177329977 0.39417685409800507
Ni 8.046845904030995 5.484288236079647 7.191614666244416 -1.603236058810168 1.0310115963446953 0.9973347729175406
Ni 8.936864424862998 4.230597031606189 12.556554657788427 0.6258885276478318 -0.6829970997353657 1.1499803962721356
Ni 2.58530503957559 7.741780829562193 3.3324052844486802 -0.8255362307835782 1.0714457931003418 -0.14249567940478686
Ni 4.287539076756194 7.474388788843248 4.796061538502164 0.15239982589237624 0.7642249334686064 -0.11494168104591818
Ni 7.7045310883263785 8.84025250953819 12.97243495183042 1.156880980046711 0.36286390291733633 -1.6604019664981986
Ni 8.084390109624405 7.2576446176307075 3.9473039155770944 0.64134882806696 -0.06224563620378313 0.5419517796238602
Ni 4.168658294388238 8.943646307098867 1.9992952023295165 1.7592606259393249 -1.9710969007214632 -0.27632596982509183
Ni 5.618379942919638 0.9939184290072933 3.241051398309187 0.5739877250134824 -0.09312124273671704 0.22820983104415538
Ni 8.63599546748993 4.333006213971154 5.0199013805316355 1.8169955187569482 -0.3183678773874904 0.3474527105685887
Ni 4.199227375511108 5.883600309001317 0.330919965266793 -0.18302552119803317 -0.8067561219625977 -0.6944421083475137
Ni 8.31906900061674 8.082476091300034 8.319578792035825 0.10731398929733131 0.08630164871172234 0.2539074929205756
Ni 8.90273416541546 7.9231616718297655 10.904547038002416 -1.5197793357464084 0.15728055102344526 0.17525461900336267
Ni 2.9011180630966233 1.0192147577269706 4.037876550967843 2.087445489417237 -1.129494617613958 1.43881632563878
Ni 5.119428492996636 5.4127149931616225 7.3250557908943446 0.0916379733229712 0.20914972908891077 -0.9782960111185344
Ni 7.608894586186108 5.1140361144481705 3.0839325787052383 -1.0428674672420168 -0.3559080404247935 -0.08872439922060205
Ni 0.9177993925688904 6.85399839744568 9.089144826991207 0.43364354473405964 -0.08817135493060944 -0.8426176117458972
Ni 6.671936606351169 7.392619717543485 6.457550910602744 0.1178215736968745 -0.023964481235397437 -1.3695834594838865
Ni 1.7315700488060422 4.664609888668239 9.312957062987156 0.7079727958440969 -0.8575778326001553 0.458413552589888
Ni 6.200996078444425 6.957180548749332 8.708388609603633 -0.7008099595470705 -0.9110976588951664 -0.056249566521348285
Ni 2.806199317827991 3.4929270077850907 6.506318809226123 0.012327925437733606 -1.561846697230104 -1.6669281976524903
Ni 0.9064477915835891 2.482306928495435 10.842459228203433 0.01012577558009224 0.8393129728526965 1.1626363944732494
Ni 4.271803637647191 1.401383483829885 13.481406471721725 0.4473238704346296 -2.538231093148222 -1.2403690705690382
Ni 6.540623906885984 0.8023067907155168 0.9565012111680968 -1.3017194486520614 1.4716454563536592 1.0320446655948998
P 8.540819065908401 4.663487243304906 9.159111398758101 0.05736748217587539 -0.07765400033905336 0.9796191008053323
Ni 0.35282811347188847 1.9332137196806458 5.086285609348159 -0.04294385055137766 1.163451434175377 0.3229968915190696
P 7.5896439788083105 2.0637074401512683 12.934670818169934 0.18748998472729003 -0.23413442405870646 -0.6526948492073984
Ni 3.2323076472908396 8.6504978371015 12.799464747776666 0.31572581177895304 -0.9865361396401396 -0.9848543810623425
P 5.931846453591083 5.599911506491704 12.179920021206067 -0.9189179262705336 -0.36806138795787574 1.3757093698759661
P 2.503250705929406 8.195964495119524 6.176997233300403 -1.6923371246438983 -1.070652350664769 -1.7154009484418973
P 0.45353584397062213 7.853060750699718 1.895698960522996 -0.5536523558902401 0.5155352373035443 0.6978537051322239
Ni 9.161853598088209 1.0132978645415387 1.1091092048941318 -1.6504345708728414 -0.9865258552274946 -0.2999443805749802
Ni 5.7276538256210445 3.2594627822678377 0.22932516089080335 0.40285458437766103 0.15351414200247757 0.05547386469758833
Ni 1.1567848247910568 7.363228493850997 12.76271007474206 -0.8664455674034304 -0.9288678383943938 -0.5748333608432293
Ni 4.696522463422636 7.196488051362619 11.242366671248115 -0.025340021426685393 -0.38866852268526614 -0.3228997038195729
Ni 7.948154334180672 3.317352634568852 1.1436213478054265 0.32977740477601275 -0.08344798131301112 1.0739312785263568
Ni 2.029521968636681 2.2376070473336833 8.792119549685877 0.08625434041355468 -0.2982945036763831 -1.050163743793114
Ni 0.4161315089470704 3.905738431100273 7.437312965618639 1.2142705737097732 -1.76034614569402 -1.0721708441918243
Ni 2.1692637103380332 0.16484574838747493 1.2634839847657386 -1.6426742102011322 -0.10297422427139687 0.12153013289671329
Ni 2.7805441106724946 5.740205368863547 11.617789402958744 -0.7011238912430634 0.3738294007899045 -0.3449883081884962
Ni 7.868989432043392 1.2044604446879823 10.92384641603944 0.026240935974399967 -1.9351307670394995 1.0791449615168125
Ni 4.254779916973709 7.849076279861006 7.142132691553867 1.918938216440037 -0.1071088152650607 0.10414613309231097
Ni 6.386757078031229 3.8722983224908494 8.727352114232776 0.1884325511462174 0.30501562445030056 -0.14365961780590095
Ni 0.9501076538038074 0.3273357819141869 12.285698059862147 -0.20007347781925544 1.6364315717255302 -0.25235840326590087
Ni 7.304308016298398 5.9381130232011605 10.63121233846675 -0.16138891676486397 0.00872915234288174 -1.0193755547676637
Ni 8.938474776818598 5.652215738009581 1.2397713221692543 1.6616867467478929 0.3336165760164448 0.131886793540689
Ni 2.6752454967986257 5.819425483067876 6.838575826716623 -0.11651133952588322 1.4795539125674582 0.5177592415380567
Ni 3.13657912503882 3.6863624846917236 3.830643578505632 -3.645713468157147 -0.7526148600335038 -0.3761084266320684
Ni 5.5434939759786666 0.4013917274471872 5.611432424482623 -1.0443108845567628 0.37120379024159944 -0.09787341270972176
Ni 6.402722567419603 5.498477737311274 1.015838539826916 1.0544250901726293 -0.7896539150646723 -1.6309916316568813
Ni 4.775429709247021 2.6908152997064807 4.619253175587376 2.728950126335771 -0.7121032730727026 1.6990677584995124
Ni 5.623137382697038 6.505582648332135 2.786867732751855 -0.5866321532503703 1.0151340058824905 1.652749335048947
Ni 5.520176079661582 7.812047386893387 0.06867368919682745 -0.07164044715512177 0.01018773916627923 0.36004957339699284
Ni 2.2266842600691303 6.72716707742265 1.1670827954968375 -0.21775469714910242 0.1745128557413317 1.0862859434369678
Ni 3.6005905385308976 3.3853186891063336 12.818952767042775 -2.6262116722242643 2.723400143051819 0.24050510347174064
Ni 0.7648251587980963 0.3823463249185892 9.71658211854648 -1.0312746201980947 0.3128466904589451 -0.3494293746789853
P -0.10609826864496386 1.3813046954463508 7.175910513973407 -0.20730727656353326 -0.14019377074448758 0.48001159047563774
Ni 2.961713306683045 0.820319727590296 10.6297308146676 0.7209761500823002 0.9551599393217034 0.5228104308087189
P 3.168648133983191 3.2187806908638024 10.600222725433191 -1.1654759208045735 0.4579726083977274 -0.6809348178896983
Ni 7.421587648721928 2.70770099021234 3.6843122766019656 -0.7378909235597679 0.23146073388128527 -0.6014357939221062
P 6.543458126327839 8.57610877876397 9.945808817917712 2.2989922579834148 0.5999494391845667 0.850175112378181
P 9.286301597216953 3.6474563814444356 2.8838642921437696 -0.15347866077885178 0.6081453447317979 0.43442284610224535
P 6.2022659559865545 8.237014666970556 4.029715287256863 0.10957347475546936 0.3511239887725888 -0.13774222388020146
Ni 8.010139081454497 0.5144071478922898 3.2335628016150904 -0.03451911682279216 -0.22108581840486438 -1.5252763543052377
