# total energy = -381159.7680449168 ev
CRYSTAL
PRIMVEC
9.38195486208394 0.00000000000000 0.00000000000000
0.00000000000000 9.38195486208394 0.00000000000000
0.00000000000000 0.00000000000000 13.73143928319898
PRIMCOORD
 96 1
Ni 9.10214729223674 8.15220561399119 9.625120902630632 -1.2294128286678503 1.3378426767371798 -1.5254378195837666
Ni 8.47097628915562 8.964101210641266 12.13125960508085 -0.5933681864226232 0.6852923235274456 -0.5575272654646141
Ni 4.4515780164242 4.381457286925452 4.231768199535497 -0.22512142192681872 0.767889269694071 0.48175428419835736
Ni 4.961796859390538 7.500816498511115 0.8367802933215331 0.3487022667049737 0.00859082699280456 -0.5392696048060067
Ni 0.7545681005931909 1.1856257625027145 9.548787442723258 0.5040701740867384 1.7169608367298492 -1.4979175026763107
Ni 2.8579591894697787 8.331522914353723 1.0788628706905719 0.48888703858839666 2.8018483571573936 2.103553450722693
Ni 7.0854023078842 4.713944379875162 4.4104691054736165 -1.395743662819022 1.1282669158544438 0.13670066998956457
Ni 4.645484256359994 1.0060645313177345 1.892769020234891 -0.2967706108326889 0.5398676434013219 0.06281359289211118
Ni 3.3840241539404508 5.342319560452851 9.283331601586461 0.35824980118409266 -0.5153879130924027 1.5523901798028943
Ni 5.381564277002659 7.075354234390333 3.5880938654130383 0.7656421255311072 -0.6618742017138214 -0.8349793784743491
Ni 7.613681413666312 4.411948639731303 6.884916503110638 -0.4983993489542062 -0.2948548818672148 -0.2289631642704121
Ni 2.7155598808890997 6.008344525279734 7.106157068092539 1.8161082310559886 1.2583971317153424 -0.9931469600884378
Ni 4.870360328791824 2.188584866811607 12.993251087097732 -0.653669554415842 0.5775628439592505 0.14844084124462825
Ni 5.652571420741063 2.7064218570020535 8.81609149314431 -0.4053765794685663 -2.562976418413702 -0.4236218988319995
Ni 3.0265904434182 3.647488206092423 6.627273015660435 -0.21683424221736206 0.6586389826059754 -0.6847022553519304
Ni 5.158996165429365 3.0071041234865836 5.992304197312915 1.1708099314229772 -0.2633511548319787 0.47894946775971065
Ni 8.418427960827753 0.9172371223237291 7.9617763264707335 -1.0833142624031535 0.2720941911319314 -0.04652359748283601
Ni 5.619865926623772 9.012502714987537 12.27130685761586 0.13204620193668873 0.40350173104335674 1.427653367043425
Ni 4.132732285622093 1.8992922933444012 4.204195572839769 0.4552714074164804 -0.18822789133457907 -0.6985358188009131
Ni 0.8680165733313179 5.53041837042347 8.259995829844021 -0.2450335874697135 -1.7652345841345727 -2.754044350300237
Ni 1.3010238054294738 7.323610137958219 2.4689955437553364 0.6075161957882311 -0.937592105641269 1.4046635910164713
Ni 5.208861254710318 3.6600975532219815 2.2448296852950156 0.4500698086108829 -0.6462488364717387 -1.0026857528168087
Ni 4.177653084771143 8.376481241321612 7.173427559750544 -0.918420932029457 -0.699049525212538 0.9656569821982852
Ni 9.59070320177886 9.171292298445701 1.7382632372970823 -1.8891923526361725 1.4344349087416328 -1.1585740514784177
P 0.6258082777691719 9.151562047691638 3.7519093620090764 2.4126514727724837 -1.1310437072686328 1.8229892744465377
Ni 6.9738790122524605 1.4751528848376576 12.917851131683951 -0.6849313406436011 -2.599616181123923 1.2433422942647492
P 1.2530163431810002 5.226170961149332 5.773425070331393 -0.04001227872687948 -0.6050826466460741 -0.33283933153078804
Ni 8.831609246233809 9.168111815799183 5.937542665869077 0.2440581109303216 -0.6815189725279424 0.6671737595498639
P 5.678268594690364 5.336446456804709 6.027936861299568 -0.31035323461313 -0.9284865437955752 -0.3572288161187461
P 1.6631297293970524 4.320530873042007 13.781009728866696 -0.7363888850929448 -0.23815768628548661 0.2971974139574624
P 5.293674125284132 8.185042455474413 5.480176126563195 0.13326259084229305 0.6894096881299289 -1.1987207989006325
Ni 8.53422942780702 1.1825672452674199 4.184711129299094 1.3924040569228278 2.105575623359045 1.8232078182152471
Ni 2.100356964723538 2.2228571473653838 13.484259439600914 1.19779648731415 0.41694782924593354 1.4086056063833547
Ni 9.0693948883459 7.0182368941189415 6.887305148779675 0.10654188701799716 -1.3893724691853555 0.4897817824885242
Ni 4.647482612713117 7.698766360926701 10.756591207963742 -0.9219312591755606 -0.4182855742207506 -1.230149706833875
Ni 5.103192298817302 6.943884903046213 8.624071964300594 1.349092024398754 -1.1004097844328597 0.1640093851068466
Ni 6.162715208069726 0.25021485571122704 9.862413992120475 1.2539329252964018 0.14181562261862674 0.06264775673820824
Ni 8.118149118395731 5.886810683972967 8.857355206347599 -0.8331096722554618 0.22995561009066848 1.005519622721178
Ni 7.317624450853562 0.9469019249196741 2.5146518881536113 -0.06754802225330303 1.2053570732702272 -2.9422861255918877
Ni 1.3324158258874363 7.468326789352143 5.425195057379154 0.804373223552718 1.2544954826680912 -1.3275135268970297
Ni 3.112632350058957 8.870262899636918 3.9583208093771534 0.033377804129497354 -0.08206292804002642 -0.42567955269197655
Ni 7.957454998131541 4.778614193687695 11.653391618343786 0.034415244255076215 0.6165515665176221 -0.7526403139548005
Ni 8.493136466179443 6.456501737842779 2.030619018976937 0.9854742740345285 0.573634969659754 -0.07679628032444838
Ni 7.7448599044144375 3.476821067972043 9.330842758430803 1.1104831095084617 -1.181688526008694 -0.6649266153869
Ni 7.378203732412756 6.994209708107932 13.432518897573532 0.2933582427170302 -0.9791822703782298 -1.423674584901335
Ni 2.8486053806244147 3.3076456606504707 1.96760512017063 0.8145092835454553 1.2185123797052628 -0.6172581056663434
Ni 0.49869686438761074 3.5138985529839575 2.4628437960523217 0.4617876112684434 -0.5194515416388151 -1.5229435924070032
Ni 6.444558509497595 5.8544429402252165 1.731149839236345 -1.4618405544480952 -0.8838041132865359 0.07529655585047033
Ni 3.171419678268638 0.608555801253886 6.139642166852671 -0.5839852025458265 1.4315868977698765 -0.24365907571969006
Ni 1.1503871406138602 9.269024120654485 13.396831818249565 0.8899979008020736 -0.28683843932064146 -1.0971678804567944
Ni 9.151168005593838 5.820480264176854 4.332626089053485 -0.08702515714130818 0.9120854767297325 -0.19464073683945834
Ni 5.761974394608457 0.8983765787712361 6.899443521782817 0.10178354639740535 -0.907776050721101 0.5203858805276264
Ni 2.1816140744624537 3.9765696494825873 11.40593787190356 -0.6961804311948591 -1.291397240790447 -0.5675314278651774
Ni 8.545347044137769 2.7905873727009123 12.785562755693693 0.8050717922816394 3.4430979406423288 1.0150545587948065
Ni 0.6626043041398021 1.6361753735166797 11.950911227895745 1.9249707957873625 -1.8347281601500207 -1.8962711138598243
Ni 2.110104815666701 1.5760276618741225 3.0419393213229298 -1.3934317268563936 -2.1245876456851733 -0.586865352307099
P 8.356629025156325 2.0073161198694995 1.0611928971907134 0.6025663079821236 0.38019956598230653 -0.31403711122262046
Ni 6.542309095615798 4.023976666629654 0.02430020089305691 -0.41047199171360277 0.0470136497453771 -0.18204233134915745
P 4.011902090918537 2.736172035385855 10.24550734877319 -0.29066012705957683 -0.149724078832426 0.3200753469969004
Ni 6.162837173480949 4.961018157149651 9.911243313601501 -1.7011228412563284 1.1941370361846917 -0.4700902175968678
P 3.088089156538924 7.809679829502323 9.155107488376354 1.9227329075957786 0.4790715951598717 -1.4005511115099942
P 1.686434504895432 1.4321835322681813 7.523976791906969 0.05232092089090345 0.2519120597571017 -1.1449973412352474
P 7.497241973766799 1.953144713376889 6.169068667798994 0.8251130272032307 0.815684277690163 -0.15095666568794647
Ni 6.975436416734237 8.615777378141932 1.1996377118613417 -0.2117329164350547 -0.4129793315164888 0.13213284811322407
Ni -0.15305157995783736 6.884497129735124 11.331431078578124 0.24384290959572197 -1.510362927528515 2.49207053543176
Ni 3.1327754068202376 1.147947832389392 11.63408543194259 0.08393957623744898 -0.21839438761563032 -0.5601436200415385
Ni 3.883922846726348 0.357856836679649 9.35569649465172 -0.31017942803942705 1.5059727688806195 -0.26031262511597103
Ni 3.472580424443352 5.8194388672041 11.790871029874806 1.126761277843195 -0.010554892697710854 -0.14398254836295846
Ni 1.621971094086508 6.701699124175369 9.809465054326513 -1.3038413800910706 -0.31515836931125724 2.8674582818477194
Ni 7.614938595597383 3.5683795639819813 2.5168632148786387 0.11566981746119433 0.44137588038131087 -2.1822860288379062
Ni 6.517869103597571 2.3821627383325685 4.091831654066059 -1.290018101054733 0.12062253348077935 1.4945488433143936
Ni 3.3910324741084414 6.494357925095582 4.518316551250176 -0.5847102536373091 0.07364307940744737 0.7961212679565709
Ni 9.107579444013536 3.493530329309649 4.622991019943986 0.10788400286818839 -0.4784915542866856 1.3613785550755908
Ni 8.858863824664885 4.944656028136296 0.14614739948712172 1.1341531994318919 0.3138095685928467 0.5335560993609972
Ni 3.818286691578737 4.24854313455607 -0.10906803808426488 0.8764715841808647 0.6725779612845707 0.1474363112395138
Ni 4.850742661494274 4.410597638253137 7.835722259384933 0.2882900841655035 2.3649613657853723 -0.8645437223950272
Ni 2.364918705576521 6.426235551949956 0.3393274761284011 -1.3849452866519374 -2.6935987434196704 -1.3734300869234863
Ni 3.2098669286681387 7.9757029000415045 12.460813898988372 -0.27223380203358927 1.7047627520017608 0.6278176263497446
Ni 6.877132295288173 7.416641600857547 10.701816541783312 1.0245558134170227 -0.7374062706138655 0.06483627974909478
Ni 6.322114618584006 2.7671137220177613 11.070135196159516 -0.2535002301798279 0.11128428679898901 0.8143095088298234
Ni 7.479481933501729 8.004102076947138 8.108250217981746 -2.0892033526486085 1.0210426580574417 -0.5468921543482711
Ni 7.961123342422953 8.234429065065184 3.862585467130548 0.24210175853489915 -0.6545822960380986 -1.2067909775032764
Ni 5.787352582097634 9.35473765888041 3.6435271448140756 -1.69729472575949 -0.5025100286884701 1.6589469792192266
Ni 2.217546960999811 3.251579099306543 8.68144167915367 0.8407867291847455 -0.1656705748593534 2.3460802126101528
Ni 3.814477617966683 5.735329643233499 2.0138666006476673 0.9551537686741164 0.07976950402015939 0.6751701474917791
Ni 2.0642082932278627 2.4326564185790582 5.086908040028036 -1.745460229721123 0.35436203609391226 0.27810748720554684
Ni 0.202061973164756 3.0842894648815795 7.5592942222153825 -0.7543557539840106 -0.11883998765905986 -1.0006653799526701
Ni 7.11385777651809 6.987623575901867 5.636261830674081 -0.45594040845904704 -0.41745433656870684 0.49551148588344984
P 3.7208175641018175 0.5912385892511043 0.018029302365232022 -0.40121447767107676 -0.9627050986588129 -0.7928875915106215
Ni 1.9348029919198309 5.156772642163215 3.2202283594493024 -0.4546011208223332 -0.38954783996642584 1.1981919229803557
P 0.2536599094805527 7.327006405563054 0.19048651744418396 -0.7638770632108846 -0.34217757821257844 0.2728755493826462
Ni 1.3345642935159103 8.663925569711047 7.772049747358018 0.4254188428314222 -0.06558987008566769 0.17839753550771859
P 0.274901593138315 4.156806381406651 9.660781712481414 1.3348170025369788 -0.11879216514025995 1.5694137109440842
P 8.40367952802443 1.5840773790148672 10.672760628048014 -3.119035583973222 -0.36977708509740187 -0.18082645666418534
P 5.772810552297922 5.143262627381546 11.971686628404445 -0.5685606404606401 0.06103336106323682 1.047438374442151
Ni 1.5962551562277885 8.940195990041477 10.570832257497672 1.8810591820060765 -1.4708450719395507 2.4504952830931344
