# total energy = -340891.6956105946 ev
CRYSTAL
PRIMVEC
9.09769895532672 0.00000000000000 0.00000000000000
0.00000000000000 9.09769895532672 0.00000000000000
0.00000000000000 0.00000000000000 13.31540203062572
PRIMCOORD
 96 1
Ni 6.3770137120056685 2.067470226151886 11.432417469886541 0.10812620078598154 -0.1906889512805619 -0.14614947410729023
Ni 4.671131520891568 0.1852245967883201 6.105457413124316 0.04202802360532762 0.5531317075000796 0.2221556544302755
Ni 2.757894580888771 1.3443760353646628 4.963262265394707 -1.046716665784778 1.2681788936924547 0.915515585457204
Ni 3.727381745708661 4.515415309853532 5.105830482264002 -0.8236292435688525 -0.7457127335970318 -0.23636125650669615
Ni 4.950931244569692 4.616809161922876 2.475653034878173 -1.0265054809442258 0.10393016042676294 1.141089264430093
Ni 7.248172949219862 6.402305314406097 2.715143584903212 0.822942501914473 -1.9357887123384727 0.2382301913946349
Ni 5.04170808225008 4.389839774625791 11.538368359237316 1.0767774897259004 1.5321077754047743 0.18516930701391338
Ni 5.520792896065396 7.9892896811420675 12.455932228237074 0.7174439685593257 -0.6137261812536849 0.6533615362571199
Ni 2.0456448469581345 6.641492911064253 0.3000839527112171 -0.14122066934710517 -0.5403489539131147 0.03618236345782801
Ni 2.770667749870858 1.6870044663008315 0.47970436709714 0.16878443789798675 0.06290178173054328 0.07635019392596529
Ni 0.5381470738094114 -0.20121016318320983 4.57064470938313 0.5687059077892528 -0.041144078338477524 -0.3427141674423388
Ni 8.866662646571907 2.404821991839044 1.3615397537418745 -1.067161563902691 0.2815892751065602 0.2551426508792574
Ni 7.131431279434861 0.44765408432862536 4.613333841017494 -1.5402000654946055 0.09759521934767063 0.08109799302359581
Ni 0.7813758682324127 7.503026783048356 2.375627476694089 0.8125207923605169 -0.6586518381217817 -0.07596298578987562
Ni 7.846564983855043 3.865866915399066 4.107042359224306 0.14163744516954963 0.5880429175549678 -3.2069218035632447
Ni 7.5244336681016675 3.6166718501652007 12.888616049346309 0.5853288610579145 -0.019584349889830786 0.14165929954642056
Ni 8.122862093531669 8.977454421403712 6.585438350262094 -0.5332930755075976 -0.13013201563311136 1.3991598875894224
Ni 6.98624110579873 1.0274849940654773 0.3338236781292855 -1.4749233557739825 -1.3096651858616994 0.4195999221567999
Ni 1.6339739805482776 6.653856683604606 9.299476564772625 1.0635499352920328 -0.20113148677012455 -0.5502716123434652
Ni -0.1167471284042239 5.114935459128157 1.2362653523412759 0.09570931517886744 -0.11064588188404172 0.024251159237880817
Ni 6.417798695301037 1.8892736016133251 6.771906602463413 -0.09276823027267249 -0.051080363615583 0.9894954793787797
Ni 3.4287770788069074 4.142791766286352 0.38370181128049086 -0.37997048069063594 0.9968611757152315 0.010621741379904287
Ni 5.989742873523131 5.530336382007141 4.815794937772668 0.18265759633565318 0.5501170890434719 -0.317341235895189
Ni 4.924702579202629 2.826418447536264 9.470473270555898 1.2233308841398285 -0.14564168123293628 -0.09079285171385654
P 0.42971615179160183 5.5735140600619735 12.23725357377003 -0.7027010059221962 0.48260146269000104 1.6134569652072275
P 4.133284671139427 6.155239110669247 12.895194595280032 -0.8865539081175312 0.10745077198551173 -1.1443363106124809
P 2.5163324848685606 8.614874737207062 1.4550140590883514 0.02383129809164283 0.7983660981266895 0.5432095632903612
P 6.294097286006564 7.668704974168574 6.02500646347432 0.3385839473240491 1.1101385816848492 -2.1149629781112154
P 4.69779687579648 1.1093278916173683 12.733905134015197 1.3035305337188712 -0.03433631138802474 1.492785580766384
P 3.9939807085655548 6.399757958768643 8.18666880340052 -0.026910451237598818 -0.8215893303206884 0.3968567149230133
P 4.768167575281126 1.1825552684954443 4.025898164932974 1.105315192154277 -0.11184812972225898 -0.5065255776057663
P 0.16685816264228212 5.730331092643338 3.481391799728634 0.4250349771294422 -0.6214636591072588 0.41032723860562237
Ni 1.4815875272363415 1.2146428518286503 2.4675169629261213 -0.12297586420430433 -0.9958641019092849 1.368303050109566
Ni 1.8470147911277168 6.405853416901121 4.801254085932162 0.4620053837062043 1.09635926851257 -0.1579896612753279
Ni 6.097514212384815 5.7042025019620315 9.32598725879955 -0.4151087191546657 -0.276980058469323 0.7776841442973058
Ni 8.703431736403383 2.214197910869194 10.196828076559061 -0.2493880077836673 0.3746074166065097 0.1848422626917978
Ni 2.4911591525512993 5.4727479492032876 7.036736972692019 -1.4466605042735472 -0.6948694256929194 -0.3039082503187347
Ni 0.37865804711833334 9.010424481511322 9.198052690297553 0.8951203096303035 0.5463349962932204 0.07529732718141871
Ni 1.5409318158902972 1.3080216313387225 11.697567169339699 -0.012322526121094907 -0.16755442214562757 -1.4657727996229661
Ni 4.1244508056966875 7.311411052919639 1.7270206940556105 1.0077863072681676 -1.3843032821925643 -0.9826566020800753
Ni 5.615709186656646 7.829388528699644 8.041237540748703 -0.7588382152353963 0.8586985764681598 0.6900583774575212
Ni 5.6753991878614 3.127270246018199 4.5390211086838885 -1.5106272369334952 -0.9139032466647616 0.14733475266464302
Ni 0.5625643873642714 7.2549234416591135 7.012822761875556 0.5009000038888729 0.2983587812554152 -0.25844549000024525
Ni 5.292149532206557 4.4392220831975635 7.423522903833569 -0.9675711685018626 -0.6893682933690322 -0.7904483859415097
Ni 8.211464581221518 7.11058845170127 9.202713441344223 -0.8948688557411297 -0.8089708702257293 0.015273895439934983
Ni 4.487558156418239 0.46048911766190775 10.764410754529116 0.18234186486744727 -0.7738179764736801 -2.5846937554861356
Ni 8.120260151701984 7.065709503988567 4.9715047804216095 0.07284963697187453 -0.07145789883067047 -0.30961224268204746
Ni 6.943809439037723 6.008575109842875 7.063847205063614 2.4010545119635034 -0.9351788682140862 0.3833414540453979
Ni 2.342366290227913 5.38821213283466 2.598088044512882 -0.5287319384994765 -0.8247024220283732 -0.484188861781779
Ni 2.5213817076499407 5.248234940556603 11.443682240423307 -0.03994491582405379 -0.24648934607963355 0.09792766298642488
Ni 1.1127213332344044 3.2046916619993673 4.04967954934834 0.9576379685485507 0.6152901833066952 -1.4096214492423789
Ni 3.4184602884752215 2.6423356119354446 3.016844198674341 0.6875793197894093 0.9164193282183959 -0.7366472809606539
Ni 1.1646418997449248 3.166563206725915 8.212114156909069 -0.7554209620237313 0.8988229552928714 -0.23320805558969512
Ni 3.5983217918768324 2.6042071566619924 7.1427943051176435 0.6259052398183801 0.3736021152704469 -0.3063340861514079
Ni 4.1956402980648 6.9150516134306175 5.792519321912535 -0.4420088859796194 0.15745075805272238 0.8898233228974224
Ni 0.8261565607990999 7.555302159808378 11.405307237514945 -0.3461324490952684 -0.18469391003939162 0.8157439272835048
P 0.23795212917399103 5.366122920378459 7.932943084211472 0.002897119042136946 0.2483027451392885 0.9751762345426302
P 8.447286029358752 1.4949884374290867 8.027083341103168 -0.2951202197134595 0.6581072784722214 0.30899492081302266
P 1.8990354323239944 3.236852026922215 10.438875079920258 0.14126617787305992 -0.4328531876222803 -0.0881674982758675
P 4.070810774130886 6.246352563201727 3.6764355427294664 -0.5042082423264993 -0.4165176836870504 0.7290843810117313
P 7.05221761680877 3.9736837427542753 10.449634018409018 -0.6208661347325759 -0.26912328142906555 0.2824678210567716
P 6.233206388572727 7.753668382376346 10.246680736153891 0.5607992513476665 -0.3089725522155195 0.8716929318452988
P 2.2012245925155924 8.415525963178933 5.913729781301526 1.0276064273178882 -0.6335964378150507 -0.18090101865586264
P 6.862594282696491 4.114006647583129 1.7871664899654933 2.2337548861411594 -1.0959761741415384 0.45694236736100013
Ni 5.373910550470101 2.9348721138008362 0.7048533048833169 -0.3198508896909201 -0.5910002004110789 -0.6502924104134931
Ni 1.2426273730458153 0.9306854798422535 6.990000274903715 0.5623316288317928 0.4773669537639391 0.12263879257985974
Ni 6.700500584866116 0.622003292084761 9.264576882769644 0.047332980758008805 0.5905150332445442 -0.36667890578805235
Ni 2.6571739585236105 1.4947064087692257 9.077069673376192 0.06577216129980286 0.1270034973064587 1.802757006560063
Ni 6.6000074049685855 1.9032112760296767 2.6066498887643363 0.42708954566562574 0.5433136929683934 0.517729930962018
Ni 4.1139611590896035 6.966298950236954 10.416026209622173 -0.157324002666871 0.17567293748770393 0.035895428345028506
Ni 8.059614892133188 7.450414791436241 -0.1394413378243209 0.3467232886017319 -0.18977698098925383 1.0040767196270644
Ni 7.654976546822443 3.835489699422436 8.276334812069006 0.5035623812123844 -0.5185534553045779 -0.014166778418685277
Ni 3.0982030986551163 8.624117999091535 12.496397882307889 -0.22459151756527773 -0.81068759580652 0.4444475773280991
Ni 0.3267547662353527 4.821461894296131 10.173712643688914 -0.8481511399696168 -0.762342628844229 0.0036599653500904703
Ni 8.708344493704185 2.375827626065603 5.784583399331999 0.33139282889224864 -0.3126733981058744 1.7614360363240888
Ni 3.7304203770761943 2.617371526688403 11.611350098250352 -1.5637454569147133 0.3258024792886647 -0.2596593078026883
Ni 1.113758470886796 3.4644582531286634 12.820507947529643 -0.543448932994677 0.5180700879102562 -0.9664262562641422
Ni 2.92835816152792 8.463452639957875 8.165110896548702 0.9154273966187717 -0.9291010374511225 -0.9433986850207172
Ni 5.6149449799654105 7.911003983783906 3.599512680637342 1.0960841604743121 0.23257504999138656 0.1684746199670518
Ni 3.4248923614597913 8.524188876513726 3.9250874753506317 -1.690200795027186 -1.0184329883487364 -1.1338400390668473
Ni 3.3948244672391374 4.4930986549297 9.084339644411509 -0.5598168328297392 0.072784588061894 0.9186253347307792
Ni 7.290058754058558 5.7974448159915255 11.702120567541646 0.3266337169407084 0.16403920990351747 -1.3383183308220177
Ni 0.7571741701368657 9.067630810969558 0.3487648287128194 -0.40416327588675555 -0.43847953267012224 -0.05890962985201467
Ni 4.728992884656576 0.6145613745439155 1.5999121965960452 0.0989044250773974 -0.6732613605048404 0.5626067368700504
Ni 5.98704085700769 5.5754245767900645 0.5095948561930423 0.39047369421480493 1.3712155957706706 -0.8022132397869216
Ni 7.923040239170872 8.878289505517138 11.205150587841796 -0.3080063316475083 0.18209426763301545 0.05180695736896239
Ni 9.253815214971276 4.928678273536796 5.712679737615527 0.14994750769714174 -0.20435153636931902 0.9995204677149495
Ni 8.212410741886858 9.00724938466321 2.3517796790781733 -0.7133983377350422 0.578745551413442 0.05063607698931279
P 8.694024715942216 1.613340399884906 3.766647413320262 -0.060787306490701756 0.4707926429805312 -1.5934959487042686
P 1.7113135172410994 3.3566323280747494 1.6078481191765828 0.8944947602311627 0.5382475912993956 0.8771727240129474
P 4.753356521789077 1.034317365793075 8.297678923001252 -0.239354020586433 -0.34517137073357973 -0.8963842639443917
P 8.650410348349535 1.3472782012516185 12.534439909443643 0.4704419445093317 1.8711879456389515 -1.1089666728639354
P 6.603291674201159 7.851213907893396 1.4027377725584578 -1.6227610162169728 1.4603264317964142 -0.9628305684930838
P 1.8618804308119976 3.2143534180242797 6.0655112376495675 0.13738766875426014 0.1601804982790596 -0.23765529272777133
P 7.045094118722607 3.879850078308943 6.055817639679186 -1.0345304081312312 1.0385958364498564 0.9872578482975125
P 2.3361161712174474 8.593140335000363 10.331739670198068 0.6141347295460132 0.7283058509744941 -0.2662765560088898
