# total energy = -340866.1073634633 ev
CRYSTAL
PRIMVEC
9.27126550269662 0.00000000000000 0.00000000000000
0.00000000000000 9.27126550269662 0.00000000000000
0.00000000000000 0.00000000000000 13.56943421707358
PRIMCOORD
 96 1
Ni 2.860667560217078 7.46384168639425 6.305214398935216 -0.46081984803853543 -0.22030266038193674 -1.6619682825440536
Ni 1.4612534510661863 9.217297617092271 10.73103477590183 -0.04276670154356506 -1.4101906914822875 -0.2826490838296422
Ni 5.699148981723017 8.993415094068203 8.812275887090925 -0.34000088227623376 0.2851062871208832 -1.142710859193916
Ni 9.042506445708606 4.178466717811697 10.72031441142557 -1.5126072434780014 -0.6441207343851423 0.7110432072393045
Ni 1.8103907730821016 3.4797099679658343 12.150736268557825 0.8311911150765103 -0.3374804298472252 -0.8977652034523184
Ni 6.136483853909875 4.857763081048834 9.965677889227104 -0.868108299817834 1.3718378027357019 2.6175874208903624
Ni 1.3437030738332 5.934259007454644 10.750560988496701 -0.8138305123108759 0.6689439640764093 -0.5692486676666003
Ni 1.355162358182121 7.455961110587954 4.102107646754942 -0.03820093654975357 0.26412762798668704 -0.7191200707101679
Ni 7.862459753208056 8.2274323969618 7.819128638918774 -0.02503380304017624 -0.6589434012202716 -0.9012202518804544
Ni 0.4249058134504809 4.649094704963748 6.8650885164037305 0.4678302179180975 -0.9154183977577073 -0.4522305637076276
Ni 5.273440276666859 4.644292189354734 5.0860679977900825 0.25462611625415504 -0.043984633111066186 0.030938084339753168
Ni 4.077419193443663 3.9432083518295995 0.13353867485411433 1.0257719452123109 2.5205766132912526 -1.2072411776668177
Ni 2.5221087523129095 9.098922097216038 0.33753247879621917 -0.9228730542635395 0.20927005671685897 -1.0030109973667112
Ni 4.609478586822211 7.819960271447981 12.83208529001086 -0.8344291623978338 0.5528933662370284 -0.019776668406294974
Ni 7.802604462142817 9.194128724221759 10.034420615548713 1.0071399319334202 0.12142677454962959 0.1592001366436613
Ni 7.843462929882054 2.519012149584318 0.8098682330818219 0.42694684944017436 -0.08033720359817131 0.2880779681546974
Ni 0.6842963568045909 1.3808993916389214 4.083857160314125 -0.4952551468982696 2.158303292770064 2.5367509090582696
Ni 5.500966407093132 2.2380742577226607 0.7163044743500726 0.9197131684783193 0.5676648681192482 0.12579353615875755
Ni 8.471433566456062 3.2471958966174586 4.936750555918631 0.10472231731075513 0.7286200397808033 -0.31040259979382673
Ni 0.704792343786921 5.337254398166555 4.506314432505261 -1.5522621388654623 -1.395983289633654 0.5714803852105964
Ni 5.481802700985349 6.173355677417691 1.1187404483603873 -1.1304356413709886 1.8917140906167615 -2.4778675044585006
Ni 7.187372544578047 1.4474763503036485 8.117506708603049 -0.9398287082812717 0.013875729540827714 -0.4732637302288431
Ni 5.588209016901665 4.30781941622282 2.21468100022331 0.342896458656474 -1.5905834030431638 1.7042475029282391
Ni 7.717642583685283 6.757426871117798 10.388976065213098 1.7266567238613746 0.0993127162594096 1.2259333547596822
P 0.5158865975708957 1.7021672890975093 11.228096068561328 1.236416256568877 1.8266991191979571 -0.0871331434740822
P 3.668241155049419 1.1231860202417043 12.071898061065065 -0.9146509234640635 0.5683914618726276 0.5082448742897182
P 1.5525939602939944 3.3893058565691274 5.407243182592126 -0.04531286500418648 -0.3493116181541984 -1.052071245228472
P 1.2771817427624 4.21120355683762 9.163493681119704 0.3065716560835107 -0.38192091954878743 -0.36920758574717705
P 9.229452246365277 6.643631356474871 6.123953738377864 -0.06681577207296881 1.14002019973563 -0.2771497512779678
P 5.5241723850262625 5.409959663428885 12.331522240313669 -0.4652891966637987 0.3428519785717838 0.46573296906943656
P 6.554747732645496 0.23676401952438358 13.251407947284221 -0.767717005782265 -1.2355770484970334 1.3664824519610594
P 1.838176756248539 4.30842204849036 0.5359143856376751 -0.050512149816938814 0.36450709494771416 0.48049495786995966
Ni 5.695403390398613 0.869336912369269 11.323204420151113 0.5703670975417596 0.622775693050463 -0.16253228634068784
Ni 2.1886862255813155 6.160895096378087 8.32297557091078 -1.4712687897405308 -5.423516632985351 -1.7605934858181358
Ni 3.7972879016939443 4.304389047930667 9.219697947770213 -1.8956069979132644 1.1622664127283402 -0.5437070717520701
Ni 3.052480775342344 2.0643307393579504 0.4978141194306433 -1.146480096428361 -0.7293499759682923 -0.0012708962926236177
Ni 9.070375870265934 2.225270639853842 9.286717145806659 -0.23701945891598536 0.802991769824159 0.3892771028035425
Ni 0.8588103173451873 0.5908002783121192 8.172693917411262 0.935108419987467 -0.7854231648127764 0.39674744303865866
Ni 5.036401827679104 0.49554544072499523 4.219972319893615 -0.3641466262845019 -0.7095193143956103 -0.02304891139966353
Ni 5.610079932580553 7.5869548230199175 10.552582381711217 -0.5884733202241672 -1.5466447926786848 0.5278544209905296
Ni 0.5731144119496582 8.848755536061557 5.85006849829956 -0.5671028249681911 -0.4527041609099365 0.6576791897958674
Ni 5.041436124929478 7.227582023721471 4.937591459713492 -0.5426122960259946 -0.12443496524833408 -0.8997845478751922
Ni 7.64455719653112 3.790918542189326 8.075902831105193 1.7388890042615086 -0.23469800987166034 0.756360186008549
Ni 6.567486451654735 3.431054365811192 12.61415955516979 0.00479562161643045 1.0301662176252646 -1.4496560965667613
Ni 7.944130332358256 1.2712852178061589 12.047879920260604 -0.0641330830344831 1.3732843053742414 0.8876540831602454
Ni 5.537281954661679 4.2908993564034175 7.781025591332046 -0.5398203351031542 0.0646249350692371 -1.7728879869147725
Ni 1.4261709818296833 7.080549021707279 1.5307406600198503 -1.1245233896516118 1.6535921426652167 -1.3155751235882311
Ni 9.119291067858901 1.9381673563319646 6.779479503603513 -0.5290358428931404 0.531432111039459 -1.515529559331119
Ni 3.8532029048560346 9.024362578822815 10.406534915236094 -1.2681372418212418 0.02858269673369916 -0.26019384014991964
Ni 3.3245182521757126 6.131514455519081 0.5669916681114483 -1.2998098903341744 -0.5249881551863281 -0.22625373575904903
Ni 2.456690701854991 1.0231212500330427 2.6868563616130907 2.9475442886670336 -0.3995905689144086 0.2775397876275349
Ni 4.977436578116693 6.969887194855563 7.328824244668248 -0.5344822107196924 -1.3000055512847482 1.1400757355639142
Ni 3.31899257784565 7.9427025574474674 2.1181615620009167 1.9575204475886094 0.14412730147093888 2.006948363202434
Ni 4.45225646385376 3.4837615110568367 11.185013424191586 0.4107435002074346 -1.661682375872519 1.8144632392533975
Ni 4.686337379097741 1.9128104447669976 9.287151968165851 0.31092787616967743 0.424934446995836 -0.13580695453070157
Ni 0.8202724473992647 2.4499041353959212 1.8400152482278198 -0.22809644539474266 1.431239798843103 -0.08555114369894298
P 3.6545011393494993 6.731365343363091 9.633213084237616 1.4803167588754118 0.5676833800620095 1.7469201020961012
P 4.259108186474251 2.523805393927677 2.5349735605350476 2.3769751024167967 -2.6193262579583405 0.484754761587578
P 3.058015720938061 0.9786562599542195 7.892811095581084 0.25743736045070503 -0.15371623071095464 0.3832730627013077
P 8.726031792593378 6.242250452496035 12.43234261867317 1.317622493035563 -0.9360993231458264 -0.5659046908950318
P 5.748462843739126 8.791820693677474 6.566303438157225 0.41212881059073536 1.480658972706179 -0.7551314558077704
P 0.40923273886160455 7.937232510711332 9.071180616124742 -0.8803369806735418 -0.7285272229566808 1.1328432223712168
P 6.613759338536179 6.2886160520340235 8.591853400409105 1.1354737180155283 0.973112410035066 -1.8619489435391867
P 6.6892645260261565 3.1335487222250027 6.16057709196614 -0.8010192194788205 0.07587068318638546 0.4227289547040849
Ni 6.405693594718631 7.875606407906091 2.5042801084593695 -0.1852947768481841 -1.0874156861660371 1.187385062172839
Ni 7.307806285429572 7.971647448820713 5.019605075692906 0.6155156690539398 -0.19107050298969674 0.3774744537416596
Ni 7.588651464634685 5.855119483828114 1.1577873107907404 2.5409461780865397 -1.2446368447064564 0.10729470602362166
Ni 0.5969397104285072 5.228140872679133 2.1972983042477496 -1.1613410727005935 -2.7019962234547465 -0.14561159932594922
Ni 2.869734858027147 1.5164452955072276 5.298199191597114 -0.5147358813307006 -0.39879275560346156 0.31920554279743735
Ni 2.858219946084299 3.9425593632337863 2.4835866435185996 -1.2097343764023165 1.6585052636961177 0.25100960254749033
Ni 7.3204893768448835 5.502765032630098 6.224150160558819 0.1536072159369161 0.3747709387675675 0.37750967785496914
Ni 7.592387784693434 5.523810805665738 3.704143204169777 0.021384379213047044 0.0904462670077152 -0.48849520246661676
Ni 6.411145098923458 2.3309630683147646 3.8459574107470686 0.3082385022629724 1.0465865679648167 0.1521681694975444
Ni 4.8379967426735115 1.8033446111847067 6.878835021989608 0.9895201619691281 -0.5941752557049509 -1.0431142931455002
Ni 2.01121565842351 7.229779313681578 12.6184067219661 -0.7376705800188457 0.315711670711566 -0.3170185624484476
Ni 2.4569502972933157 8.15736017114534 8.51765638850297 1.692366949440569 4.990338972144115 0.1305143386731946
Ni 7.193788260410939 0.7211032814528247 2.196091185459538 0.06507770633593954 0.1467950781110891 0.27391916015581214
Ni 8.990642985637518 4.1777157452936855 13.127735753339591 0.1601427030625887 0.9475957538212002 0.8361163202922697
Ni 2.337082103646713 2.4169540572599457 9.940831824399698 -0.3574242199590038 -0.9916400365256082 0.15328711359333602
Ni 4.9343622778860405 9.470968716664139 1.1407291091130867 -0.6614764520547705 -1.7205439260954174 0.8982801954155241
Ni 0.3736885605955092 9.219346566801908 2.5452869164490766 -0.5873055251683111 -0.7196546030573993 -1.8633476236589266
Ni 2.9218486422709056 5.278845424543413 4.653271410141085 1.467708326082782 0.18227270219240865 0.3894827910564454
Ni -0.168633196735968 8.368513246425824 12.511344000441447 1.5564365819581258 0.929282043113677 -2.9971192713816834
Ni 8.187371258068849 8.144556553276521 0.8080297411025411 -0.605402491879338 1.6318838044538477 2.676502707169332
Ni 2.253983749585726 2.976808705070585 7.451723215057297 0.28590281488024955 0.3055833240283124 0.18952449865881552
Ni 6.862739177686888 7.185119627024012 12.860866079982022 -1.1887001814398368 -0.4803851717649727 -1.5964383191620442
Ni 9.03053724174869 5.707650732328163 8.75801116921533 -0.8363009254992501 1.7431326100292108 -0.10128938036980621
Ni 3.4661924626416214 5.67300401257742 11.520381989584054 1.271790779413429 -0.09132455584761046 0.6748289621022765
P 0.3500162379999589 0.9476160625430642 0.43202521834654606 -0.28424522467216856 -1.4712253380971048 -0.12213794168404128
P 8.764859853154285 7.269349075494844 2.661888843205611 -0.7960140529547453 -1.61925197462245 1.2014600522086663
P 6.7575381263056515 3.0169440140887724 10.368879669780476 1.0106906253991563 -3.8199944103933303 0.029874933182561448
P 4.556382048419078 6.262517439216699 2.9712579983232557 -0.16801105006707195 -0.8448362166637708 1.5333879276687785
P 3.1305448321529554 8.64868162323816 4.275552630365579 0.2970683445787658 0.6490418258358435 0.6848819754629043
P 8.064888567507687 0.6981179596422702 4.960673202686852 0.5327765408824954 1.1893272735008744 -0.4182976584056086
P 8.29110744947668 3.4083675787547114 2.780159597779949 -0.5326197035896569 0.7784369633029303 -0.21833165269849492
P 3.7494110858542773 4.997425426867724 6.976765546844611 -1.2803756928689627 0.5281261865946776 -1.7106189536722216
