# total energy = -340866.5473598395 ev
CRYSTAL
PRIMVEC
9.29060318099507 0.00000000000000 0.00000000000000

0.00000000000000 9.29060318099507 0.00000000000000

0.00000000000000 0.00000000000000 13.59773686395135

PRIMCOORD
 96 1
Ni 9.094952560671501 7.550380458609991 2.1453015873703944 -0.08691871347043095 0.6242929010259378 -1.1029788307116164
Ni 3.265907223977474 4.665304357666986 5.057854647801444 -0.4308842368213676 -0.6268046117041979 0.37798713171202003
Ni 0.8217743080400431 4.630446013795763 5.036275363337241 1.2671275696098048 -2.6072197045027936 -0.23443010092225433
Ni 0.495735447482901 4.926175209895154 7.908063114269848 -1.1745783973264738 -0.9098661004809104 0.9904951242878877
Ni 7.895396305625385 4.2303740511671295 6.142614349398304 0.07247785545475259 -0.5960076809279993 0.03246609094850538
Ni 6.467309788707104 7.602277769074985 0.5039186109375315 1.7932662934608081 -0.5372548883688231 1.8598712350745517
Ni 3.8355419888432336 6.300562039293267 13.00766323022603 -0.038019930887199044 -2.7841229148531728 -0.7981457545857673
Ni 3.920541719141161 4.39897063065303 2.598323485826656 -0.7245877786929585 0.21712811930869702 1.1066362249585457
Ni 3.199209982332614 9.244187522719335 9.74870723569537 1.5584171027232645 -0.4235882173805866 -0.7771298144557326
Ni 1.195226833872346 7.792930240978337 4.012909826977539 1.1853199521136941 -1.257736615313208 0.08492919384422792
Ni 4.990447604058567 2.449690554877667 1.6607325160865403 0.04138781891816743 -0.03553341701991945 0.31990256886446194
Ni 4.56729778264099 6.6926812454310225 1.7443581661449812 -0.46363186356603375 -0.905642549317866 0.2944018534901962
Ni 7.644512852027699 3.5905209059765544 3.732592812820571 0.26244844051205124 0.12866263017643648 -0.16059161767454921
Ni 1.8844595360126954 1.6571091807694354 8.955333373119064 -0.04478656018707126 1.6466041413831578 -0.8816770396412041
Ni 3.236576789115679 2.289204672140056 11.060018300645051 0.6558002276055996 1.1587059490705915 -2.6869598979469145
Ni 2.3021371920411067 3.5013589853656453 6.976617878663745 -0.4554639830432608 0.723892809508463 1.2790641731463908
Ni 4.12368076198346 3.7501427626000865 12.887894345849299 -0.9985249365708997 -0.34961115167248824 0.29069303718004136
Ni 0.7447022496038733 4.270760304047783 12.804199945325868 0.11453673229801564 -0.3783146902547678 0.9266047533918299
Ni 9.112465348037508 0.5165343212634202 8.746173090228007 -1.2525571279947976 -1.2331440135755083 -2.465293781558548
Ni 3.202954095493622 1.4152004500341155 13.036938850527898 -0.7797826786975474 -0.8689220539683811 2.2837900963216797
Ni 4.601645143326468 5.559339120654151 10.686937398947837 -1.4259299565944152 -1.4042398732154913 -0.7155148698574129
Ni 2.591186444312297 7.960718537970421 0.7067603544717598 0.024265300305267887 -0.5453494924514994 2.389080370320763
Ni 8.60204888909797 2.680348364923207 8.84836043677374 -1.1971040892328157 2.6099674424512602 1.5229621043497643
Ni 1.9575858751945723 5.901753598723932 9.84583584870222 1.8695051586198899 -0.12172065164096457 -0.9001560722819981
P 6.617603879539936 2.094232069666309 7.683197066369649 0.9324938651827553 0.366580175426659 -0.5409030266443716
P 4.718437318381146 2.9152333995053694 4.333707858169608 -0.48537439744944794 -1.4425266846108318 -1.9711352101585669
P 5.650498520991158 8.507377640684386 5.544844850325395 2.2944784292734615 0.485238643202532 -1.1868469302811817
P 2.647264526297027 3.3336821756140878 1.2608175646549822 -1.043535954063951 -0.23826850083173803 -1.40160603513707
P 8.299788398824411 2.7581107151903024 11.98046346185256 0.7497023143723992 0.23706985253794652 -1.0494284082889862
P 5.9153085890512545 4.585191484745462 1.7543121186033046 0.22102822569405156 0.661203400899042 -0.5328194783052889
P 5.974731288251774 5.185252975671524 6.534243011677745 -0.2632853345910498 0.4335586983297372 -0.11064356789119655
P 2.5722614852329575 4.922115216219321 11.756794043667343 -0.02167517098058848 0.4017189281113211 -0.3419536351272304
Ni 0.24696560615352517 5.3622854230239145 2.5989218006841472 0.7207000136027781 0.41196683109157434 0.09438879659523099
Ni 6.9870633040407215 2.5569134084538367 0.018942611225756332 -0.07444397804218793 0.4250493753071454 1.8465385225213875
Ni 4.879722193009195 0.4341591864195493 11.220213387496957 -0.011485374931780219 -1.3159636172759015 0.8587314865886243
Ni 7.328539431169405 8.005935904607213 10.024755217600518 0.5105295565588369 -0.21796115673295363 0.22203764079517246
Ni 6.2410557246623535 0.9998175730398711 3.955173372289981 0.19042721297874302 0.27937401262279626 -0.2887204868347028
Ni 2.607064085483918 7.698760685147121 11.476721372379195 -0.31575537946530785 0.1662354462238879 0.2684154567287635
Ni 0.6649851563862169 6.556155828803189 6.222813624931237 1.617182236577615 1.997449165462747 0.5219714798471914
Ni 5.7302676415877265 7.592327532858012 3.637068687016961 0.7414400743636069 -0.34682407584565433 0.48532657493064796
Ni 4.286740141856552 8.747047336005803 6.979826853070227 -1.871288732882874 1.5470345719179357 1.682916602660947
Ni 7.362217868411726 4.313469207772734 10.656818191859317 -0.5959886547646058 -0.6166351273703637 -0.6438345706032912
Ni 4.561816326648447 3.1863517872585807 6.414515005955875 1.2949811014869632 -1.9705538837338 -1.2512659199871998
Ni 4.580369661592699 4.5670283551430515 8.056727633270322 -0.6391798454400992 0.5759631035722983 2.4185819793243057
Ni 2.366734757322721 2.3379710492669354 4.936862190959937 -0.8196185797475626 0.5471369233692255 -0.48908192820802215
Ni 0.28019809443374016 2.286408200523521 7.000114743665001 0.8180471214953846 0.21080809062794018 -1.8598524660214746
Ni 2.001753403649742 8.27676628365573 7.826911551890754 0.056326699616186866 0.48767347789626975 -0.9281435586338596
Ni 9.216538687068812 8.689612825928002 11.634713657170368 0.9548467789566586 0.7799292315777406 0.26472129570662795
Ni 0.995311630401933 1.8209025183093266 11.971406981680474 -0.4743924445166475 -1.1460347813608265 0.009190408250016428
Ni 5.632381844405634 4.8828531263473085 4.281573637318496 0.9023692778832331 0.4167786506579209 0.056618776935308944
Ni 1.137346374832441 3.6157077317321216 10.511717548314337 0.10537717728593464 0.00400989249034148 -1.1342930674438658
Ni 0.5206054636633057 0.42924167005200164 2.708709789852761 2.612121512679785 -0.5493591278315249 0.6150569842499666
Ni 6.9623967520742776 9.455047056968079 12.613737001731408 -0.7180335225142086 0.3979530333109856 -1.1836500206104388
Ni 4.905968147549762 9.180630505015966 2.2861192627584903 -0.8155161275434148 0.9036720558550565 -1.921514976028278
Ni 4.518020422328365 6.591543737066914 5.566451077539392 -0.30935281837307366 0.6247862957225885 0.7411837353784266
Ni 0.24637193659772263 7.3410724551252375 8.936745662942318 -1.182082676123319 -0.10658533866142288 0.14291759743355387
P 1.4414278233679283 0.05094873986018202 13.446176922448467 -1.01373738264528 1.202075060084846 -1.8251806256709018
P 5.014510266805494 3.4865962165992874 9.943603655221423 -0.08324126461884374 -0.14840484580037022 0.8383056146341046
P 5.199411855218364 1.0919246149213504 -0.0055390577334817415 1.1847831057736178 -0.22534716478437966 -0.22093258065645177
P 7.355491471566639 8.996249190392216 2.166568707561124 -2.028352539909823 -3.216448512106757 0.8939561141188733
P 8.99481843747213 8.45036120775856 6.8971934394524705 -0.24710486817644542 0.07449128634035558 1.2341930236653131
P 2.8936141654466443 6.170958122181441 3.678092275289289 -0.17452288304366073 0.9213419623309939 -1.2062708433337483
P 7.9945734966769075 5.783642157989693 9.11656250412685 1.2267797619203777 -0.4678839539741684 0.2056957091020393
P 8.36198898843471 3.7838490716525386 1.552575956870962 -0.14140913120882745 0.08680327093848922 -0.23870404570725984
Ni 6.084982878528908 4.933533367769891 12.533183754209805 0.34946177057881755 0.3418207090937919 0.9122189169838031
Ni 9.310578174452747 5.653174214763789 11.012345427535667 -1.052285418121807 1.4712124825812984 0.2882785142012777
Ni 0.8406184388700013 6.780198729244169 13.106084166162647 -0.2949870365697049 0.32320823619892725 0.03431265723894091
Ni 4.11160297759311 6.855238932721747 8.221409152493072 -3.616296191337294 0.8442728879611332 -0.10833471725236181
Ni 5.816651671788856 7.191270766271397 11.636045929694657 0.19759262037893066 0.6894521113320901 0.34388556204262066
Ni 7.725341101409267 6.549457303768234 6.886396829267835 -0.6995326354965437 -0.24346958541670327 0.9406380915564445
Ni 6.123771147628685 2.2982815916395722 11.444317605920226 0.04127186216559344 1.470333679520771 -0.18742622136889014
Ni 4.52448668227889 8.270857459907837 13.31843948755512 0.3457771226383787 3.656506959228225 -0.44975253448078023
Ni 2.6927884828452666 1.6068841789123367 2.696458271179258 0.6662630748101365 2.300826740088992 -0.7193062185790451
Ni 6.66106532213844 8.782398081856016 7.606519858577011 1.1862746027174795 -0.15021207421243807 -1.0569668827578764
Ni 7.049802748646898 1.0280795885132885 9.517599760446375 -1.4208749106690108 0.5052654799464202 1.1640600142936532
Ni 8.025306812648658 8.064596774330802 4.886128993098107 -0.2824017437055265 0.16747986015395028 -0.2105823477703793
Ni 0.42958356425628236 2.2424171935325177 0.7286378673043709 1.0848553816380284 0.13755041958436953 -0.7270339262406059
Ni 0.7084744707948516 0.40997017146669273 5.493335887081568 1.8301459400959772 -0.7292784993004086 0.33647615695242694
Ni 8.118714539002944 5.486974610949204 0.19117739099416392 0.016164525575004418 0.4207173235906948 0.0734913843209315
Ni 4.511925786512927 1.7743287235794643 8.376776841830187 -0.3330162234282845 0.3074404318417092 0.9734034589129238
Ni 5.98728289341436 6.368513512394046 8.894905430633132 2.5859327700995594 -0.3605134004072888 0.598210345006273
Ni 4.042462307260049 0.6229526085871258 4.8426303880860955 -0.24616512997099543 0.2059931857378001 -0.49058653777800665
Ni 0.6314451491342168 3.133190954734289 2.9225348846995045 1.5077113488382807 -1.6261625856993542 1.1984099525284329
Ni 7.580268329674418 1.2057159250851954 5.936690912723862 -0.3007943872801014 -0.3642157889595405 1.3520045700598586
Ni 8.728271026580497 9.350434862940899 0.5658088943950323 -0.09547560190150653 -0.28261668792981004 -1.3500315054938878
Ni 7.294758797289936 6.20761884310784 2.5557901745055345 -1.1693264048989154 -1.0950840013445722 0.5249503599698572
Ni 2.2398436963970356 5.594383276592919 1.0448649216348609 -0.11093050300399604 -1.1032490536538677 0.8443317662235265
Ni 7.996942600538091 1.596292891062338 2.3299997115693047 -2.006312272280332 3.0619735488529076 -1.011375567281323
P 2.8639399782598938 8.94270744312946 3.086605082220036 -0.4888556711298291 -2.235920012113278 0.23722309028635918
P 1.2000579476284856 9.17505614298965 10.022823701158401 0.6522076251583349 -1.3819885180164586 1.7434588830203779
P 7.87000508659552 7.362961116681902 12.475719514201199 -0.5345691140065439 -1.3177014259026143 -0.0683103543406243
P 2.435513094124072 5.682736914710013 7.394327122743639 0.5394938050016709 0.43134189318407656 0.0701378944676663
P 5.252433328691998 9.054445529946946 9.196407807671113 0.5138938450453795 -1.5211147667283802 0.3555126047585877
P 2.9103929951458527 1.3612684974295175 6.792341547858159 -0.49514998877897304 -0.8574557051999941 0.463324359627944
P 8.651679292338928 5.96713157468923 4.571205410421436 -1.8392275906822713 0.38113107665764046 -1.1339842779541955
P 8.80551310305847 1.5535746967340103 4.3107953721207775 -0.10686636023695144 2.391176333617843 -1.0506106015225456
