# total energy = -340897.70411204745 ev
CRYSTAL
PRIMVEC
9.02242831272867 0.00000000000000 0.00000000000000

0.00000000000000 9.02242831272867 0.00000000000000

0.00000000000000 0.00000000000000 13.20523583671651

PRIMCOORD
 96 1
Ni 6.286331603755543 2.010891687561768 11.379651010075259 -0.13701151636176404 -0.7709074876951046 0.2008409521128993
Ni 4.670450836895067 0.3825707969612459 5.877953955957589 -0.11637147151390925 -0.6155863743908753 -0.3199653037815973
Ni 2.747257149589495 1.6991848446758537 4.7425147738957145 0.38753723729430034 -1.0931942405210269 -0.5445128554828171
Ni 3.4179573805611936 4.418788252415015 4.95914687938454 0.21202705063670582 0.038766836355552586 -0.4034706206951051
Ni 5.306486899452741 4.659885573695477 2.801385401949269 -0.6478637463673423 -0.7549530212483773 -0.7409906455310142
Ni 7.214901849678101 6.134123243228585 2.6664405551764463 0.810237652753295 -0.007621263990683648 -0.15088467479943046
Ni 4.966197004631474 4.685509269243584 11.333538282759477 0.299402134918265 -0.38731252287800394 -0.14319861900908243
Ni 5.434388838921038 7.977071455814134 12.13364358970592 0.647399405136414 0.054875568991957106 1.3636570666971224
Ni 1.7696770747171775 6.378784423572955 0.43252256739523853 0.14284406388314108 0.4904276436026393 -0.04569904469901162
Ni 2.7741981196270467 1.584455650102006 0.3542105989977373 0.05298015174145714 0.6846546899434466 -0.08711951662732739
Ni 0.8289906102201284 -0.013635595451357027 4.798175034531569 -1.1416672484207497 0.13437099341512343 -0.9217949907080125
Ni 8.618448795753666 2.317311387633883 1.2901999874728338 0.08705343927608233 0.17579737888071015 0.7021181368355328
Ni 7.16258078964871 0.5100802608111124 4.778327497395397 -0.5957508277221869 0.3358151263296604 -0.4722635710991028
Ni 0.7982881899452507 7.255935852267112 2.7268547331307156 -0.6311919421386162 0.809913693754973 -0.5261893745832809
Ni 7.53588374855819 3.7749658344847994 3.8371375814153965 0.6137372369972784 0.38869269105498216 0.07333094748366727
Ni 7.513995338206181 3.78191310405242 12.5942818472656 0.9141891533362965 0.13216241579957885 -0.05174113712803347
Ni 7.989026172927247 8.786311068877797 7.047620620917809 -0.24592113228098936 0.3845820113207183 0.013602421274783024
Ni 6.870407503404222 0.6226882825598333 0.26946834615758264 -0.10280504568338424 0.4305872744062391 -0.3421711504546752
Ni 1.9356897500992785 6.3976954326817 9.30374821748818 -0.053644010577701164 0.30450448914183686 -0.40865499310952197
Ni 0.09441249118116204 4.8589744701618605 1.4879003322684936 -0.5591257202999854 -0.4886502399872423 0.35712134400660434
Ni 6.353178772880868 1.83413330041988 7.075694807913404 0.6100183933847946 0.5633927231064555 -0.7138251408598159
Ni 3.5116643178719813 4.386208264871278 0.5577195829461685 -0.008564087519927186 -0.22211400255906263 -0.2678832383743774
Ni 5.933780229268826 5.572621458460667 4.8811299443829625 0.26629506795165103 0.38823374914069264 0.6346300212858876
Ni 5.27424976417338 2.7082892830147514 9.216343446142304 0.07781726538979501 0.4006601478295035 0.06910251122461647
P 0.16156912958722688 5.510402794904419 12.468752806363906 -0.4412396119137627 0.5103760617001081 -0.758511685133913
P 4.0868621483589225 6.248843415374422 12.586081362447405 -0.7361122343927903 -0.13985901311288818 0.20520411417760143
P 2.1975025660904635 8.31486213807666 1.3892436909514758 0.5154300791842478 0.5685675824391757 -0.339417498968938
P 6.307299726450544 7.816354945673842 5.84663079263563 0.2784694985306559 -1.1379494332495304 0.11894026068234999
P 4.623308650543356 1.032625908160698 12.530645760268996 0.33281593449202035 -0.11675353744367635 -0.5242211951133166
P 3.930467381235371 6.150670376198735 8.280844877750946 0.09926463663029356 -0.7029971970063764 -0.883254668540969
P 4.644899320771039 1.0037451161010185 3.6753077036586834 0.3426519467458357 0.16213325113005625 -0.28262388701866165
P 0.2012642038595688 5.453796081570326 3.706141851382506 -0.3012312177072038 -0.14235298317933548 0.19699715288677686
Ni 1.707566680297048 1.1502873918377623 2.4622088747444226 -0.9014925317052346 0.24465203576057865 1.0339359690803418
Ni 1.9283094039871829 6.490058028219012 4.73761559548634 0.07117893413767096 -0.02776482881809412 0.5720966786383567
Ni 5.9234675940535135 5.777484708853383 9.264846214637906 -0.06695229765083308 -0.6619081402755503 -0.22935268639934694
Ni 8.441961081452076 2.4764760401564727 10.20777926370942 0.7728432712652368 -0.09706685764802638 -0.006876929625491383
Ni 2.134273390597107 5.209766471186648 6.9193451529299015 1.1456686562706593 0.05388389450264913 0.8733065561893217
Ni 0.3021178063969962 0.16901894839499865 9.303273637774858 0.6113625661175148 0.30592528074876346 -0.1983922334620906
Ni 1.558859021837929 1.3371689432067546 11.426080424614188 -0.8499028325534009 -0.01532994548885102 0.10843910404071001
Ni 3.909634594960519 6.837980897136653 1.5607925281604498 1.113282783740786 0.4606007900491938 -0.46959965111369445
Ni 5.624473352233545 7.8407696358686225 8.005159176451743 -0.6471538647845113 0.6139087295781362 -0.6017217005936412
Ni 5.228136134614797 2.827737207437775 4.830382395798497 0.23989163825745782 -0.14144101288802735 -0.1687237598633804
Ni 0.8810148323679945 7.396721818933542 6.955937414209641 -0.1931672376177254 0.14378251653701044 -0.10213141665512733
Ni 5.146654587257419 4.425934015398854 7.260198949501788 0.16187254126950187 0.5268509194266797 -0.38476507386580183
Ni 8.144852527086174 7.149714807306597 9.037306895927918 -0.03615768086747967 0.12358701542574199 0.2858035702982239
Ni 4.560683977726662 0.3133561427261236 10.14559578762241 -0.6066954996591487 0.0208192507381964 0.20740266449081698
Ni 8.2248273289659 7.166361186984856 4.932537934697753 0.08631321867594811 -0.3977923393634052 -0.4843019903208757
Ni 7.1677596633263905 6.034055494170819 6.987404936379758 0.1707312772117124 0.49788230010847156 -0.2490558212552291
Ni 2.3841675791872183 5.1687324685976375 2.615693006591981 -0.4468479592394755 -0.5476305751761923 0.5945244115142535
Ni 2.455616186597591 5.18599237338057 11.604708258839725 -0.5727764783142006 0.08478778317035719 -1.230927208429848
Ni 0.9954805720439531 3.240152391770157 3.93975597087156 0.10518023078378014 0.7535170601327991 -1.8915063454813295
Ni 3.920398351576326 2.7928565007515136 2.5374649467749717 -0.9073430769487406 -0.5468836697078387 0.03995057225100861
Ni 1.1495565751689607 3.251475538922578 8.272155377334613 -1.1748573620194733 0.46930911645646917 -0.6387247601805517
Ni 3.623325886922464 2.6694657752881654 6.77406150590054 0.007332271995355114 -0.024520353738867448 1.1814234452727654
Ni 4.041632716745309 6.841165814224147 6.076336396310797 0.553548226212208 -0.053377644290191935 -0.12657720840231748
Ni 0.6316980791705162 7.374716117017403 11.22272031072792 0.43576290506990756 -0.3255389412146329 0.4075676735826142
P 0.267864158457423 5.588401685049976 8.051984675580307 -0.3576988137766291 -0.4238036758255023 -0.8489947189168345
P 8.370575631037772 1.8158989734118787 8.021731572220322 0.4639293402017946 -0.69729011931927 -0.014969991046270992
P 1.9181952621880884 3.350650067607363 10.41393903700716 -1.8935709413198423 -0.23644327469754117 0.6244960181756793
P 4.0620685161877255 6.178685015169465 3.709509021515799 -0.6066391924999166 0.21825503382428862 0.9994559330256013
P 6.7921379404183675 3.9027143926769288 10.410663895639566 -0.013463324593757459 1.3142638609759754 -0.560892325282105
P 6.346213458457227 7.815443680444842 10.16961619771316 -0.42028306426675355 -1.1038784597077507 -0.018999938141270503
P 2.5700205737630823 8.495833999099169 5.811307084734084 -0.06488667337105598 -0.1000141132018084 0.198467052564084
P 6.939429077679932 3.8740411164614765 1.6125307393404018 0.2913615240019757 0.39377936154927023 -0.40799036294232954
Ni 5.369788254370177 2.823316217712925 0.3955838448799201 -0.25177604839986967 0.12710916964638755 0.13038938305955608
Ni 1.5248715355246476 1.0226019906417028 7.058713696155977 -0.42032240214512123 0.4225284086575045 -0.03705885252551037
Ni 6.78584930809547 0.670877972803493 9.224200176453321 0.6993863397266665 0.4167776222166564 -0.3820307056537743
Ni 2.582047470300275 1.5850150406386196 9.242648335005159 0.8188840155743832 -0.7659241755479003 -0.8539392074063035
Ni 6.415514728001245 1.9580473267078027 2.6565763346332267 0.32033554263682246 -0.6542202847129894 -0.20791817067465482
Ni 4.007717409856108 6.873872115760022 10.407151464415314 0.09086124305794675 0.8685258469712268 0.23950494434200045
Ni 8.100768943829818 7.235942151797181 0.12549295118965453 -0.1123824049591742 -0.2717308942552417 0.42125339859982286
Ni 7.568923879930432 4.100585261361975 8.302316451928899 0.2600215762381135 -1.1278408840606189 -0.14897897313628536
Ni 2.9615759045365837 8.40582625727244 12.424357047098407 0.14684932838779227 -0.6980606789367074 -0.17630568597569637
Ni 0.2199298029264433 4.927012599784492 10.12504811007267 -0.004044088162386584 -0.8576122853825165 1.0161642469192178
Ni 8.710739211866901 2.113359402470166 5.715054018238903 -0.20960018636276806 0.5187128637005777 0.6951239649058868
Ni 3.7308281166603843 2.685552764429811 11.303549536540181 0.5518785518192689 -0.4927894589665965 0.7131851932829717
Ni 1.0831334601601006 3.5645086787259466 12.74877017535066 0.22468613416161307 -0.8367945773062169 -0.24626771698713074
Ni 3.0110729445988773 8.222228869699048 8.006110140363987 0.7839566075695789 0.5853080351223081 0.5564980528691513
Ni 5.573442499409567 7.864859518655046 3.660834826888008 -0.07356466076102813 0.4372867979136017 -0.21972107684685382
Ni 3.0739231781158187 8.31563806688551 3.4389074584001738 0.3844228600350347 0.20203651508289724 0.5734259389727415
Ni 3.373567034752501 4.13769450776668 9.136121429735107 0.7393171144833331 1.0816697848211951 -0.5825471845477194
Ni 7.296554823167668 5.973217262100085 11.282143826086703 -0.06285293077047885 0.3174047421432727 0.4219931049793249
Ni 0.52165603594781 0.13680978264246807 0.29050864827666195 0.09289524276884002 -0.18610827388841497 -0.3152144193601733
Ni 4.760666094566025 0.3643274475252346 1.4744307494925184 -0.49619539932435186 -0.7275473755419147 0.4847015397521394
Ni 5.952528834673392 5.4403977759756295 0.27134140221243724 0.12426810065316664 1.2700825384730707 0.8901534525433314
Ni 7.824475130882749 8.858201775260653 11.359447087032697 0.3238373851424939 0.4186221316245629 0.27995739593009206
Ni 0.028518090453681793 4.731352225961869 5.832000023374782 -1.0293486068199758 -0.029127770603891767 -0.0009554219347338385
Ni 7.876146576095428 8.761788109546897 2.2545694232530606 1.178037302409352 0.2769512621139166 1.204446645640816
P 8.660646691555954 1.4963606630133737 3.4187558654400694 -0.5239268038013493 -0.26507765060478217 0.6444734897388706
P 1.8682561231533097 3.2196534353316717 1.6799039160187041 0.19640862737315853 0.056681254742128186 -0.47541471513357475
P 4.495496935355158 1.0844507346495453 7.991821321124713 -0.11740454076411393 -0.7405766979220472 0.9352120354448668
P 8.554037682191014 1.7836889054165472 12.329239904289672 -0.33799156515568884 -0.7043272286717096 0.059375513744839674
P 6.326427273831524 7.665797689472694 1.3363172260026204 -1.2402541422577285 -0.4378174736060912 -0.27859342570302986
P 1.7240326114151094 3.2436170041259573 5.959192800001501 0.03244217968910542 -0.21663626727394306 0.7556988982754663
P 6.877796871944327 3.7002330632788247 5.982236081138777 0.16334398360870578 1.1784628199825447 0.30762503704868954
P 2.2478838040977274 8.563475141889365 10.198403156521536 0.30579004072247984 -0.36935156752420906 0.09624641862926005
