# total energy = -340870.8089055505 ev
CRYSTAL
PRIMVEC
9.29421474805277 0.00000000000000 0.00000000000000
0.00000000000000 9.29421474805277 0.00000000000000
0.00000000000000 0.00000000000000 13.60302275739992
PRIMCOORD
 96 1
Ni 7.647586385247319 3.535435541198047 12.956715876956611 -0.7507914336715199 -3.10981766491938 -0.35924404677656196
Ni 2.729162434844504 6.8650785853254295 11.666495810765639 1.8783039878584427 -0.3720769368751721 0.22886597657091554
Ni 0.5958548787349572 4.258915784941822 6.013120697104794 -0.5770090283383095 -1.2795228579503641 0.5464401544125169
Ni 8.25732403215473 5.478205194466993 1.4481501469413054 -0.18348960531864528 1.0099005253976931 -0.7220444434458145
Ni 5.64367938911274 8.306685605271081 11.654525791933677 0.6469900855131373 -0.5463594217732527 1.2466585031221755
Ni 7.534466500781278 0.18866511862238433 10.729493071766134 0.38969413573630307 1.3480404432057882 0.394562776682514
Ni 4.887836690541032 1.0973957865876873 4.566629567448609 -0.2431967913712908 -0.3670691992479355 1.3224548814271997
Ni 8.115234081146856 6.823375444942624 3.43015160896217 0.48312905305869697 0.5377439121900996 -0.21557440166833194
Ni 4.549722461883563 3.9998860273156174 1.2327734558963264 1.415164233437479 -0.2183969587187916 -0.7462781191821986
Ni 5.040066629549272 8.390147651323586 7.673914106611787 0.8627321231075851 0.4725286518350313 -0.26812157963742855
Ni 3.826167864423928 7.3418624940612265 4.733824121195058 0.600469573354095 -0.5364239078270955 -0.11274364495333486
Ni 1.0070746102471257 1.8899041612927048 6.254914333973274 -0.539136164551936 -0.330605814214579 -0.7966344601475635
Ni 7.47179561252604 2.928644160281577 10.375311005111385 0.9915179091254472 -1.2501801431221888 0.10150792413851549
Ni 2.5088059036798223 1.428632296528136 8.050145767704729 -1.268801357767802 -0.0978333035004057 -0.37983678332624904
Ni 1.747349499560709 2.7270712365859504 3.3227420898741546 -0.7500872085156436 0.3041602184285407 -0.019751728705630498
Ni 7.148319771678446 2.0497460619620793 7.736120284142903 -1.0313998329220495 0.7887779402176223 1.012783246262127
Ni 7.966666062644707 5.516804067212656 12.46212332385097 0.9064550179168325 2.3680798568096955 -0.4263459826313819
Ni 0.308583720982345 3.1240271371318844 8.527299586176929 0.4537660265155476 0.5991125451055682 -0.020905382694099483
Ni 4.6284909296224255 1.4693688386047654 7.256409627266579 2.4587708928383654 1.5783284969352107 0.38422128554718993
Ni 3.536838967584899 4.580114543241212 10.531677798985768 -0.4771224418533009 -0.056901598283050386 0.2917579881094459
Ni 8.005803999830352 1.0651076854756159 0.9584175385885427 0.1531199918878524 -1.3555030701314204 -0.5753843482506928
Ni 0.7167549501442659 6.206602077671991 7.59473018748556 0.18496387587132662 0.0037548390567419205 0.6334324014333607
Ni 3.601842703675235 6.255359526846984 9.029604478460117 -1.8829114047234667 1.6409741967908902 1.379925721950159
Ni 6.415675432454964 8.312866257901918 4.488711520334892 -1.2237198920481311 -0.6869949080408491 -0.7156560234209675
P 3.6444287944338742 4.922076576694422 3.9225135505920212 -2.015006714730536 0.9923136655538652 1.2475828147086578
P 8.624491975284373 1.7945083438447191 11.90230490292886 -0.6387844097738934 0.40557841106672726 0.3313326650782746
P 7.537728770064622 8.484809225827458 12.770000684532647 1.3172941631618669 -0.40994465845522304 -0.07412104748513042
P 3.734870795562708 8.436079659295912 0.7978488303466399 0.5100109650512056 -0.8532918036302917 -0.40191664594442394
P -0.2182253677838534 1.1821683168822197 7.89724850409665 0.812385295223917 -1.3697703786837119 -0.9005592212576877
P 7.840524983688739 8.944677664205175 2.969526621525581 -0.7633525581659821 -0.11576109162341999 -2.5363513596270058
P 4.9388991049076765 6.279505896072419 11.147717852733734 -1.0227694109405612 0.20328092901295958 0.5357543925638967
P 6.623289595564191 2.049132643806237 5.618211382587899 -0.6568975744348364 -0.2226912152187713 -0.6826338028586759
Ni 0.5009265602754394 0.5581863568589888 2.6850056218383287 1.1053529873707477 0.7738737694122801 -0.7943292090531545
Ni 1.3691865006983117 1.220999544989944 12.35357154580306 -0.34032149884044616 0.4894002307793894 -0.9244931063654659
Ni 0.4541701554785198 8.047451374926263 12.209133876216917 0.4357824454539334 0.32979514538782556 0.28440077641342637
Ni 3.3924161687419283 9.111378695162607 12.292507627231839 0.31643389358957114 0.3199395927499845 0.19445638874279414
Ni 5.052892645535069 3.952178824377142 5.878043230923939 0.788089655901346 -0.0692799173427452 -0.6919684499960405
Ni 5.01921970646511 5.748322949970775 7.513357480848711 1.8681998095449048 0.8213707865519789 -2.0888400557719184
Ni 8.620021458118309 0.3179392772803908 4.748175317777427 0.7297286994639497 0.9627002135628064 0.6605146023621334
Ni 6.95090136185648 1.783150813747151 3.4112704122410498 0.4051423519705732 -0.16802159159003321 -0.00327558542747823
Ni 5.583322760263634 7.835190104575806 2.2128307140643844 1.3717922942097474 -0.8561418714845772 0.946811567357008
Ni 5.161170244255746 2.770577454578353 9.75597894059373 0.1334677648745637 -1.551769772610076 0.10890241683037373
Ni 2.7091891679216937 4.43734611457612 12.922409072458949 -0.2956856052986262 0.6870668989293651 0.16064483950998787
Ni 8.989959077163729 7.920464522452391 0.991821874859958 -1.3629356151500658 0.11951490223889738 0.681690207998484
Ni 1.8060889350898661 6.742246246725217 0.37651420521320855 0.6346688449436231 -0.6222607010872574 0.2953480194535494
Ni 6.015122670904318 7.147929414670183 9.457338170264721 1.13402978648015 0.3957359710550088 -0.5947095309418662
Ni 0.46820070166124383 1.075963327991131 10.006982214592881 -0.007445657644767822 0.297494633482907 -0.0047840516522046645
Ni 4.525074205076075 3.1554601705115695 3.5658285519771447 0.3175757205034982 -1.3620017904818864 -0.8263026766359576
Ni 7.747852371084114 5.032900790183294 4.843383392092868 -0.020268006220416707 -0.5546016071773867 0.9737392449857876
Ni 2.6632664541638515 5.408331289987847 6.17163724278897 1.0406159522036786 0.43587860471216544 -0.7612650795093341
Ni 3.7478826958381544 6.37922352325475 2.422059282229215 -0.46222238481301686 0.7606277030356513 0.03657239980739508
Ni 1.1583844220216004 6.8715473586052225 10.062128506803118 -0.9288932923156905 -0.32043478721884816 -1.0352716571726301
Ni 1.7198386246926225 9.088645046538506 0.5855884894176302 0.350292494010229 0.8987098267537749 0.5987628750756334
Ni 5.954515098264185 9.080549785724282 0.4039516557868834 -0.9611287553106286 1.6200333328731649 -0.4326127894767001
Ni 0.5771456249817621 3.9878500195608297 0.3594639687451327 0.3470989267735958 0.10187224945646972 -0.8206092257956061
Ni 5.762738276633073 1.753288502615002 12.361338720846053 -0.30579389737722174 0.29658497718444404 -0.2388112607090855
P 1.855134504913816 4.662925994279945 9.078548741346207 -0.44373615308337133 0.31624388906595213 0.24961169375869915
P 5.907477078768446 0.654320134936882 9.42677228709625 -1.0184304172455751 0.04918648902697981 -0.7491806375409742
P 0.8861754682592653 5.758435055327693 12.218370466569588 -0.6663759462389168 -0.7571772825932056 -0.2846735704588388
P 1.1265982084915818 1.9368678270725832 0.9254221477543558 -1.067163363674904 0.2777184792972443 1.048730096670381
P 0.9060938993166288 6.517976851263419 2.3137240593787465 -0.23584883564665188 -0.32674761681075337 0.14108928597556344
P 5.715802493496642 3.837971516816654 7.990986233680964 0.10174497984998607 -0.5293739429588495 0.3047312604406623
P 5.31455266585981 1.9116805058251123 1.7955716019815124 0.11515713949083393 -0.056429800852954425 -0.15953463716494462
P 2.0835770026782394 9.013213201798846 10.397755603665082 0.17237266946987734 -0.14068330878639643 1.6944145759982172
Ni 5.324943597651202 4.386543938214985 12.303212703472738 1.1577124748090706 0.6061632813047625 0.8647347553599107
Ni 1.2889216644277735 8.037543742287959 4.267676511512991 0.3499024576606619 -0.08810090670399019 -0.7737313302971449
Ni 8.08640342782226 7.220359228132006 10.830046248830438 -0.8694509298886575 -0.8540628774683613 -0.6090516585961511
Ni 6.235488496283482 4.8528346788000825 10.083076736825138 0.6758301496732813 0.8602324966141831 -0.7630915911951116
Ni 7.174269218513479 6.923511311776665 6.566518674662419 0.810333812011527 0.20386714053373273 0.6220241595964191
Ni 3.1505249426213826 1.9368120617856883 0.16777451273015542 1.4933733349490539 0.2948201719745374 0.5310346184907242
Ni 0.634720495436267 8.742175319061301 6.506380459853652 -0.5656105566933808 -0.41568721736595504 0.14178245538784615
Ni 7.8312400634207595 4.550205761036651 7.367002414814837 -0.5073365035428359 -0.07832377271256834 0.508700473769898
Ni 8.70637400487486 8.46242875735369 8.675409399905092 -0.10636319534828778 -0.29011273919653907 -0.08394266156124253
Ni 0.6496739571170994 3.4884997580616157 11.30506425681457 0.6478557759475424 0.04346501316217031 0.27266111937899495
Ni 2.0826382870155107 8.45472385354773 8.337319336205274 -0.09101936590236583 -0.3573270322595072 0.21404305262547005
Ni 8.085436829516084 3.218093881908879 1.529401099368433 0.4906179052365744 -0.8925430358214306 1.6724028476138166
Ni 4.201923661735368 8.60801333300697 9.999676962009666 -1.4191988085181688 0.7038232924520975 -1.0291128366600857
Ni 3.067118661855772 2.620568832831423 5.4719381056414695 0.1421619502144519 -0.17656639583625075 -0.22026512227578193
Ni 3.2066155270230383 3.709962300749711 7.638451101832507 0.3525244686645413 -0.34130828823374765 1.278592375716295
Ni 3.8500632898583365 9.166037970533964 2.830353195022304 -1.3435430695560668 0.7097638263062486 0.35884038358024006
Ni 3.33805430823401 0.00723275771025161 6.171963469717304 -1.7239164421120763 -0.5412133587959388 -0.8591801440902688
Ni 7.057515296184797 9.316520597219498 6.340069785904484 -0.1591111764742808 0.9146005298421023 2.6275543022950876
Ni 8.784677761889599 4.941259835386223 9.90027998522698 0.37331029506164093 -0.2942622425885384 0.6369118753415289
Ni 1.223639101902963 5.491449450104501 4.250808441648771 0.5168354441722067 0.31084842908199367 -1.9432269137840723
Ni 2.900835870550052 2.2799637546926528 10.082315540659026 -1.2753149905166035 -0.19704651806747353 0.9431845121273821
Ni 4.275031952854411 6.275955506140119 13.738372326831907 0.432326625694849 0.6532746329702684 -1.2784080276196306
Ni 6.560786003169636 4.213727314128094 2.83216277858204 -0.47807709245708635 0.9622428143104139 0.12873436395463636
Ni 2.4088001558485357 4.543337336534112 1.7563676758730415 -1.2487943185182557 0.41500921746232394 0.9450927848936885
P 6.041852831755877 5.927366697760914 1.3669131358359015 0.41058666291459606 -1.755381602599893 0.3809246170737891
P 8.673323778175227 3.2473148922417376 3.831060338927496 0.4990506093849599 0.3731897103233766 -0.23392770736453908
P 3.851819896395522 2.959751896154376 11.929619669871366 0.25903195863133455 -2.631426126545668 -0.07745422562342144
P 5.835307503312133 6.227634885045801 5.048789249841062 -0.22435574740538783 -0.4949910946036055 -0.03869484546703659
P 2.286813590766227 0.8081031371851396 4.289278124813128 -0.10200928925496626 -0.2558715586254819 0.22277117652708733
P -0.02671157242259461 6.709911674540733 5.609002674878675 -0.06538006806770676 0.018721230558587112 -0.271683585957074
P 8.022998296622907 6.370979555008807 8.66682526340909 -1.3465875128093454 1.234728327343493 -0.3783511999196581
P 3.3298010457735843 7.271523878857957 7.096982248563122 -0.37697334573552493 -0.35277823654656015 -1.4628047181335775
