# total energy = -340872.09592250927 ev
CRYSTAL
PRIMVEC
9.23613164682585 0.00000000000000 0.00000000000000
0.00000000000000 9.23613164682585 0.00000000000000
0.00000000000000 0.00000000000000 13.51801226762025
PRIMCOORD
 96 1
Ni 9.439788161652343 2.30139458500406 3.5918982758467926 -0.8880037531901803 0.8063030935855791 0.31399854467520116
Ni 7.444460501065715 4.1073261338125535 3.976701373759115 -0.07708218699598338 -0.904880474340861 -1.11109554628148
Ni 0.678574884126347 3.5454460762673063 12.468121709575056 -0.3262791618147671 0.5052456824520782 -0.7354514608803399
Ni 7.888866202534395 5.110785636598836 8.470683373455449 -0.5002263748606159 -0.08875550956885359 0.38589533081550315
Ni 4.793321325956191 6.731006290082889 4.505918775998979 0.7095113439758104 -0.3776330908067109 0.8733592638041282
Ni 6.958963250718613 6.96746972779594 3.303234070331749 -0.5436499932618896 -0.11413743997706795 -0.3252923724214655
Ni 2.932637989835653 2.840904732146175 7.811693706096172 -0.38989622444478017 0.9792450052953651 -0.6537194338171709
Ni 6.433953829973244 8.200714945247599 11.006338578818658 -0.9626567619193808 -0.7439139898253962 1.9610999374097515
Ni 7.894527951121149 1.85657325761955 8.54618135925945 0.3289474526755496 1.1320515797078567 -1.2344167096403451
Ni 3.216473545821894 5.183861908733264 0.09899285701931396 0.32118940599668555 -0.8777949309779786 0.5922412719070317
Ni 5.967187454232895 6.306966258489894 9.761424432876778 -2.063099456472705 -0.3971282234168451 -1.079665867017289
Ni 9.03323212691861 7.299323931257775 0.8618769963652638 0.3841878612060932 0.1756881069963555 1.0832353295361021
Ni 1.6614692165973453 8.744778505200921 11.127784471424272 -0.29166388573374286 -1.1322454408862177 -1.112853152402535
Ni 4.137001824202837 0.17136164148368535 11.553615388907922 -0.16668281817395164 1.0779787091228532 -0.15805753839878586
Ni 3.2340499039957846 6.694385028832508 10.839079626930792 0.3335037045876644 -0.845980357570543 1.1164295568998839
Ni 0.7722135557366205 0.5156153514344578 1.9727240760574847 1.0140564565475954 -0.5361403151484057 -0.1514814278431649
Ni 1.3681389174672474 6.256130590918118 12.470231242001184 0.9097290606824138 -0.17856748542667955 1.1456758553595108
Ni 3.0262277099491732 1.2007247985708036 6.056556262267872 0.10840747947182619 -0.7817323462247505 0.1554383556083839
Ni 2.57217948723323 8.299643149346672 2.7863727647629473 0.3062440975407629 -0.23194307283434248 -0.3329378047818653
Ni 0.24186565100569812 0.608704473222689 13.193498842663335 -0.7848312968650483 1.4803686951592698 -0.7173298115789646
Ni 3.0091223944798906 4.198237375801834 11.564091932826283 0.3290798644883558 -0.812711053994452 -0.9495855305577194
Ni 4.338968310901973 4.150902202054494 9.34971925485248 0.49672067570020256 1.523825223681008 -0.7486149948454913
Ni 2.0974515661718645 8.528366708893817 13.295289323902761 1.1067434399603713 -1.056936286630257 2.204155318107172
Ni 8.792797152676513 7.72049152596581 12.039398035717229 -0.2129809299095429 -0.3857693467606001 -1.5968867195533725
P 0.7904115055579635 1.8523523455410067 7.2434508775861355 0.2418636743821641 -1.1024705236166303 -0.47047922550517035
P 4.699177437954897 5.600605396470573 12.16621104431593 1.5244062929954585 0.04252501784640418 -0.6739748416320973
P 8.667407431936246 5.507662205559455 13.015371734883079 -0.2548449171331804 -0.7660141641585453 0.6400766462227557
P 4.880842907698589 0.7348284664142584 8.184642229275868 -1.4262845117203566 0.4971199680211504 -1.3475133670577244
P 2.253653021472353 1.408454631302786 12.313475618812921 0.2675371678888683 -0.15807167946617293 0.6696453610188079
P 1.3853273581196959 5.72110920366697 6.382043076699187 -0.009047454914248933 0.9430672698232274 1.01300153292052
P 1.5822416809086277 4.455297386677142 3.3795162036969497 -1.1233070007460075 0.674482120285819 -0.10659022375742934
P 9.140999308827675 8.013045990053024 3.1760977971318467 -0.05404870221528756 0.7016921050417076 -1.0366474544742341
Ni 4.473594163105138 7.722625072333739 13.088909813590652 -0.2149138852661976 -2.34800571176764 -0.19517886873111548
Ni 2.292740329823327 0.6147559865571781 8.676644487012286 0.2781691936814177 -1.333577987923555 -0.8394690388145866
Ni 5.872840371339416 1.6216060732034885 9.811535064128718 -0.03947080440111266 0.1473031280957592 1.3845357099183446
Ni 1.3319425182641598 0.3457628938318096 4.326615908683497 0.33607506485926636 -0.3709703340745547 1.0938105339487871
Ni 9.094439970123219 6.836390550074527 7.566937145942587 1.0015282421735978 1.5982990265198667 0.3671483892253032
Ni 9.362666463937167 7.498815134724855 5.190484214992161 -0.6498571226482873 -0.4827331031718589 0.711146308476072
Ni 6.46344479773427 6.8103354232176985 7.132008638967984 1.1578454008425092 0.5070050883453462 -0.5031556326922689
Ni 8.531359215487795 5.15507288696342 5.932501162523991 -0.47347738890154584 1.7658120539045976 0.5103115270107599
Ni 7.787213339653767 0.5021232105934601 2.485286886043456 -1.3440184665305885 0.3326737524872012 -1.4196227834294648
Ni 8.068231875543825 0.5719954687234108 10.955226750916141 0.6003451319610886 1.017371894074074 0.13718403738388632
Ni 4.962444129173271 8.505978326227758 2.8905969666428453 0.33899969470522906 -0.20587465788206483 -0.22387443689359507
Ni 5.821552133325959 4.292436680591905 7.111001057955629 -0.20506398905531137 -0.13466461339614227 -0.724224738926585
Ni 7.336037553822784 8.919295209192331 4.469027819709882 -0.3583048227917442 0.2220420116705466 2.770552889478222
Ni 1.1717325819087745 1.639404098532488 10.501656959809976 -1.5911446748632727 1.7289612036248354 -0.11734077740571404
Ni 3.260963991078662 3.765182879901053 2.0928990769738034 0.40754916163985294 -2.2994583989865562 -0.44994048212187027
Ni 3.1609643957298927 7.567901398067313 7.124695470075664 0.10964006632734667 -0.4809194470018879 -0.11500107352894387
Ni 5.2669686196363985 1.5437547211027425 3.273237886179704 -1.218792887060159 1.2524779380174302 -0.8086407405798202
Ni 1.0803502972148864 8.934230033767832 6.814484293470832 -0.5340708342138867 0.3706044660947037 -0.4801915676969278
Ni 6.143237356047146 1.8367709917631019 6.385746765415807 -1.5058275015520066 -0.5394027879497614 0.6965529840429294
Ni 3.3767943157548346 5.78410885637538 2.783736772843437 -0.14527478481182077 1.861315680830562 0.6073269625955605
Ni 0.9637533736272936 4.688454289326476 1.2133866111932867 -0.6941649434267271 0.8423515025687042 0.10068208580311047
Ni 1.0244624657329058 3.764213086097449 5.622303840116353 0.9700440555223874 -1.4500849565740637 -0.19859277950867088
Ni 7.113945536665999 3.773929496396415 13.18240070709752 0.7648903349667472 1.8631915576970364 -1.0001267338403808
Ni 6.676051307878661 6.492243055635578 13.025780855041761 -0.47270940038726983 -0.0949508397462881 0.0567758713384635
P 6.183996404192904 8.035674512137119 1.086393498031059 -0.10536714998360563 -1.2253864811172768 1.0641001513685482
P 8.754873596889865 2.420706931241744 1.4903477145316952 1.0056201528547841 -0.3018531675619189 -0.7434265086660165
P 6.545470881256245 3.642249970129914 9.091809519882586 -0.16962801684520462 -1.1765051820355417 1.363020204444072
P 1.3656082174464137 3.8549396054574716 10.203328066332158 -0.34954430299029476 -0.5932763980397653 -0.5627265502773664
P 6.953135251765526 1.8725055843930447 4.305865092125809 3.0001146065645816 0.6941891117964432 1.2096569861971618
P 2.1313851131665427 7.6392505136181805 9.288928884789994 -0.49876727381658614 0.6728199020920477 -1.217969105607283
P 5.741170081204379 3.7109483159509304 1.94426847863345 0.021188975372789316 1.2096783263534006 0.15187403529589327
P 8.030086652602067 7.119967494379807 9.550948698260877 0.16521600382043805 -0.05968636011703914 0.7559529232678014
Ni 3.538602102853301 5.114683284076177 6.127471279639983 -0.24817213309869515 0.5102053404501987 1.0699689514444992
Ni 2.2953356827644003 6.498209596560608 4.561936836934587 -0.9786994172045402 0.9432076520558337 1.1929337599052101
Ni 4.348047428129999 8.299366065402786 9.399330211392277 0.040757641533336254 -0.3151012908210767 -0.3785352909060061
Ni 6.753985785162574 8.887005693598049 8.94554429480988 -0.6847721893579175 -0.7170351631566813 -2.4851141587185843
Ni 2.6457452743351926 2.8819223919728936 4.238761826208434 1.1355783619141928 -1.9293889794597159 -0.16839851531347771
Ni 7.214517772165469 9.08200813717416 13.06217121300557 -0.5165639356783749 0.9033380695544055 0.693008975445413
Ni 0.5179142245555725 3.738582821287914 8.073551887266452 0.34289928686995136 0.6786673620117601 0.6885609669763884
Ni 5.1344486054067735 5.935784607259049 1.4824120303787753 1.6743342603085745 0.10504627630907715 -0.5916344915609681
Ni 4.752303666129473 4.293775919654025 4.057660684097126 1.3030098853287106 -0.5702843080199662 -0.311416899990954
Ni 3.494785895193324 2.0879106423706935 9.935725011391956 0.4197230779982255 -0.30457108071371414 1.6452198594411214
Ni 7.524279149168057 5.323096590536414 1.715395293756607 -1.0012878440280173 -1.4318290956876696 -2.0973504072357754
Ni 5.311311286789759 8.903861633517833 6.170202241853069 0.05665374393830242 -0.6509264444530661 0.7536193900386183
Ni 9.007093874878615 5.764676035777448 3.237077507889322 2.3684189853166697 0.4833565956884708 1.5773715323385802
Ni 1.749803577908478 2.4505488719983592 0.7792588768165173 0.5807427843491288 -1.1096341312446052 -0.4309575132614643
Ni 2.268781804808576 5.4978811423402485 8.513644315341962 0.6054965942550411 0.12952266418388664 -0.37026379492583333
Ni 4.997079622159128 0.5246159615450494 0.45804007873420616 -2.010660007726066 -0.40673617882025437 2.195376800583593
Ni 8.224174719163353 2.9439891954035513 10.71954007185912 -0.06705154223285871 0.8757354773457886 -0.35093244158707304
Ni 0.5913026779334475 5.862551320889751 10.319271995425327 0.19657626329927436 0.9292442478972062 -0.9339478240204626
Ni 7.626772500011809 5.4338378067765305 11.032563650494403 0.3410144111424127 -1.0455442427432315 0.909696921892898
Ni 4.4316898346579805 3.0168899810401855 0.1928411888137951 0.1765442843490637 -0.13214261830523694 -0.8476952833791208
Ni -0.26777577059855884 9.120051762669828 8.920062731716898 2.8099054231339156 -1.0400135427329895 -0.3788883033700507
Ni 5.710506124747566 3.475722519853908 11.230615864679564 -0.41056480853772515 1.4033407584399895 0.7328068241686412
Ni 6.6707128238931075 2.0112969318859752 0.9179052170454803 0.9308956674577 -0.3222052488557096 1.3625540634409308
Ni 8.017608638995695 2.9455778100151693 6.046701309996962 1.284045685521382 -0.489027677931319 0.07247091347621712
P 5.749676558281705 1.6508938460723301 12.44324880754548 0.9395446013819496 0.2860974473895589 -2.332796093906737
P 3.6248675707167446 8.49032308339815 5.004895236603031 -2.019229494562632 0.17296582296918597 -1.4528720324008977
P 6.5698265599239 5.510220613974677 5.292896287879039 -1.537685269492552 1.2108034410967792 -0.8571790544998399
P 2.382099901726841 6.6952162806641695 1.215220906901818 -1.572568197412666 2.2405533971202316 -1.3165529141204682
P 3.5146528139700126 1.325920560550352 1.9668434311550593 -1.3713091839257414 -0.11102563382096364 -0.6263430986867471
P 4.1762738551830685 3.1305405786911145 5.812988392233562 0.605900257451363 -1.7565985057261295 0.8617358206325869
P 4.707628498243446 6.035479410269544 7.9442654426619885 -2.178552529937403 -0.08236348999958074 0.9466004797874665
P 7.5115240516177995 8.91201713759957 6.728455270572838 0.8907057255023756 -0.49316818246225397 0.23614374117925135
