# total energy = -340896.2390308677 ev
CRYSTAL
PRIMVEC
9.02099608661931 0.00000000000000 0.00000000000000

0.00000000000000 9.02099608661931 0.00000000000000

0.00000000000000 0.00000000000000 13.20313962903202

PRIMCOORD
 96 1
Ni 6.273823106328274 2.0922396153541234 11.557975287802229 0.13552953249959884 -0.21147246368481645 -0.4051786045251473
Ni 4.722608708458945 0.36115828341562944 6.09434497718914 -1.4157504449582519 -1.0043556843200638 -0.2625541128519801
Ni 2.7300601205237776 1.5407500424439393 4.974388316790682 0.7834125621406508 -0.32323883232654654 -0.7427729342424176
Ni 3.356405918709728 4.205877033353958 4.784276237500297 0.4415838826270589 0.486340360907143 -0.6311623744522614
Ni 5.0587220005232725 4.6035044975266795 2.6795245006159876 0.6224005690992314 -0.7937998189122457 -0.6116387025970369
Ni 7.187776300783445 6.059150463174815 2.7241639975013334 0.863389554185926 -0.9334775692522632 -0.9472597106380203
Ni 5.085045267015762 4.449894976678793 11.54848249365211 0.07938692386976005 1.570262946318257 0.5805216694772583
Ni 5.530023939488374 7.6597908984370005 12.304124424114814 -0.2061417955005224 0.8487283526293256 0.5659229457274769
Ni 2.0164001015082125 6.38512415567178 0.5507191798469699 -0.7556384773511761 0.1869179142739039 -1.4120763385407746
Ni 2.5059785784835222 1.6107710138334908 0.24594121968405352 0.9076852907795079 0.030085249421154637 1.355260615103311
Ni 0.6255781114215533 0.034985226905817964 4.7324542235548686 -0.16032036629103355 -0.10903765685665737 0.23929462810340726
Ni 8.584921107006014 2.2958615383385292 1.512974395586373 0.5322445796384253 0.6007400534066621 -0.8529449618138343
Ni 6.84591663423121 0.6136406273401576 4.922513078968521 0.38487948795647914 0.18307720037157502 -1.286206954838759
Ni 0.5380825685712054 7.436385931100974 2.240295811029706 1.3192633710730957 -1.4686210677050386 0.3895388411053614
Ni 7.502681231119243 3.7200061857578173 3.920817166371058 1.0279843794825974 0.20970714425427756 -0.532755972057205
Ni 7.690128508174576 3.985313679775688 12.670590661610012 0.16913513636918615 -0.3690605186463515 -0.7031573767333245
Ni 8.029886282645677 8.780000146725037 6.852363038013093 0.6495884423679329 0.17934447280202015 0.8831058016679306
Ni 6.869181783060591 0.5919785095099939 0.29955660764548886 -0.19164463032561188 -0.2931512689125467 0.11103180446855071
Ni 1.8626913497037072 6.440946079268604 9.187510112077511 0.5573344327275175 0.16190468005901795 -0.4387222448085476
Ni 9.218736289926639 4.865320866070734 1.3350884722511878 -0.34780186637789134 0.05810641722442896 0.4419525788203873
Ni 6.390888572151801 1.8326875168202172 6.924426362909807 0.636366287250704 0.7243864613154298 0.6724656040764225
Ni 3.4813557350865225 4.1442365673007755 0.4012475898901421 0.3208412786286475 -0.24523644750913895 -0.727995775933243
Ni 6.046575194672234 5.32654635244087 4.913363984768149 -0.7077498812000134 1.515729591157067 -0.3628867857354718
Ni 5.274486184199554 3.029304601705716 9.068140683861188 0.48649668397934925 -0.8120101712726855 0.6028419302410134
P 0.3700728317185352 5.61208794061318 12.371038564462552 -0.2227621776660228 0.2554146735937214 0.23028831083973886
P 3.925495454925892 6.095712560191286 12.662405009788461 0.19862183297439343 -0.07041814471224646 -0.30790477307263747
P 2.310926601752669 8.547492994368131 1.4222159584624356 -0.4508668505908816 -0.08264631134732218 1.4925809209547456
P 6.4314740334094145 7.689307597533446 5.915745493065896 -0.5030569023308756 -0.5978779013675187 -1.1302718620996146
P 4.538210528070666 1.0336618121232133 12.69594056262802 1.3572005124385011 1.5900848661401905 -0.23883208664469188
P 3.980541572861868 6.164605907073791 8.084599525827173 -0.45465177155461056 -0.14102963638222163 0.7349585804043214
P 4.885257267355314 0.9986242634402684 3.84170393305629 -0.8447040619612808 -0.2592931827125212 -0.07910821628707666
P 0.40911750684972015 5.4765023698859245 3.4990693629428127 -0.7042778634910128 0.975989731582861 -0.021669000333001395
Ni 1.4565751282419415 1.121291767814801 2.784964608821668 0.21216666153836364 0.06221992517217026 -1.2075679648786173
Ni 1.9565999186505292 6.602457992661869 4.610773616148903 -0.08314664802250842 -0.721873465085589 -0.3769435209388541
Ni 5.932973791334353 5.542499977034335 9.181793506876591 -0.681470378678194 0.8496742614823624 0.08415709156489377
Ni 8.347434364825991 2.328418313105972 10.213935281164305 1.3177839583140918 0.32976429214989017 0.42123565798801
Ni 2.5247332292847173 5.133902981657068 6.807683848745099 -0.9847150272710009 0.05758551172395244 0.9339784201480819
Ni 0.6288085301093398 9.09036751604448 9.08832877093574 -0.15287265176373674 -0.38500752889391116 0.3056486300486091
Ni 1.4923163146172833 1.2565074777037457 11.330551466723088 -0.83462533756904 -0.3451556870042959 0.007632833954909436
Ni 4.038600703480672 7.024424104194679 1.5592647347500352 1.0014336255772625 0.17555286697007186 0.7575611482951857
Ni 5.563798548723427 7.734989921562908 7.945821424595566 -0.20200360496243275 0.6465332004813769 0.4819782272837055
Ni 5.290074465384962 2.8788163454933353 4.708569332296415 0.06964655665354456 0.07635790723544915 0.8048990141492008
Ni 0.8413332741017782 7.153334137840221 6.7595054151068386 -0.3154581599398632 1.0787762653234838 -0.2194930199964478
Ni 5.013084781474091 4.454495684667543 7.086719494561554 -0.36560418466663486 0.18406938908151527 -0.23790546106536448
Ni 7.934750858235188 7.297850494663283 8.971968747003823 0.27164707629218376 0.07511992106328999 0.14224833928067113
Ni 4.649935564228821 0.28731601809659907 10.663370325688764 -0.5916396337672908 0.17332449186018536 -1.204428647918687
Ni 8.227031130461608 7.256281744835526 4.52872946121542 -0.46867816774068966 -0.6908348506122296 0.6999838641013493
Ni 7.338697564806532 5.969310363449416 6.921521602179655 -0.09039330228259271 -0.2552480661088701 0.5127509896901878
Ni 2.552535939130453 5.000338114046439 2.43248001311424 -0.6469144950801956 0.7985270491845861 1.5773463355275996
Ni 2.3660809716413214 5.2238423123390865 11.284076197140271 -0.5442151217367401 -0.23038344165670643 1.151966316353913
Ni 1.1091675491150383 3.3627386579413003 3.926666380214009 -0.4298203143332275 -0.09528714003978428 -1.1431088659632829
Ni 3.61007632781488 2.533429469483059 2.550820145680531 0.7876335422005338 0.0829072783181927 0.47922843245271013
Ni 1.0412574908026777 3.6012357516796367 8.336594735964656 0.21698079509755536 -0.696892112549903 -0.8900174411860995
Ni 3.472560263931561 2.598001759254563 7.161607293323518 0.5608668713608083 0.2423915218611761 -0.1803304908643733
Ni 4.110272517148538 6.817211824779837 5.894330550527677 0.7411428548381622 0.6689583622541124 -0.029154252966453017
Ni 0.5416999879898102 7.383225201340779 11.029044519730213 0.5897640140111328 -0.3863265048156508 0.6328629020831359
P 0.23393337183341809 5.674404981370591 8.044897220083477 -0.9546891703328718 -1.5818012859751596 0.6002512866957016
P 8.366603981445781 1.6278026543879194 8.091478035320156 0.9404144055814125 0.32970721365970956 -0.8482861228855842
P 1.7827021776718655 3.201181639567752 10.428856001709315 0.037566131179232076 0.4797547372698254 -0.3378828074919665
P 4.070399714579379 6.181854051533573 3.72413058515479 -0.4393789045559401 0.07396678129545324 0.38494710796962095
P 6.853999446697719 3.995065376512625 10.520208922473367 0.19764558510405317 0.20539694691469787 -0.3936713752164962
P 6.121810301782368 7.670354484819011 10.172688580895759 0.4339549053268913 0.11293904879359258 -0.29938567985803277
P 2.3745967919185356 8.416679530554696 5.875186192696846 1.1204376496180124 0.8199646502330716 0.0765805647692165
P 7.0540490552438015 4.124579816893943 1.5427211300822565 -0.6710144734521928 -0.3707865001985227 1.331922711708319
Ni 5.557123011641713 2.7903384161724483 0.5732193482107704 -0.7157524397895156 0.1860997892479827 0.1742619160727902
Ni 1.2647707100913816 1.0616720048782453 6.94428337942909 0.42389494998772803 0.3561636080790253 0.7005729038355999
Ni 6.703691610406465 0.9278996543583198 9.23613779131938 -0.9892903053465092 -1.4655894799675662 -0.030932685023114467
Ni 2.807153552821524 1.5818677424688783 9.23009011556319 -0.09899827034278433 -0.5215169088082761 -0.05946215992137501
Ni 6.489118198209624 1.9022664594030068 2.659059468962504 -0.49448818682525814 0.22104956585029026 -0.2085321501095699
Ni 3.997086079629252 6.8319701743280605 10.433781465556093 0.2806852752350521 0.3499723916666489 -0.21562865194503508
Ni 7.979305557757605 7.233386456844457 0.005972801488923232 0.2473270114895805 0.017521296713214986 0.8529896990088407
Ni 7.554326433541968 3.9083104574385055 8.475187906777107 0.767709292472781 -0.6261091282990701 -1.6832531600647591
Ni 3.0785772821656145 8.477886988797174 12.653968574276544 0.3042610056724631 -1.4875374449935672 -1.4842276638940437
Ni 0.0664829367362429 4.867422758151869 10.23350272371018 0.13242801075613966 -0.2914779949751819 0.3421513529603333
Ni 8.611884864218506 2.3887417137349245 5.7925475541232485 -0.18503843786300392 0.2912946753197822 0.5508200286477676
Ni 3.8392547326269852 2.6956811045529476 11.169367917586273 -1.2538822745641245 -1.427908934697657 0.8410402399564483
Ni 1.1148417556344958 3.3664553083165254 12.656820111129962 -0.5813372234000181 0.5797235990559952 -0.523214351115357
Ni 2.9822420652796287 8.339658266225399 8.113236677808121 0.7688950852507661 0.2461347909536922 -0.5390821713855489
Ni 5.732292713064324 7.810964750349665 3.593603989015947 -0.7681553788712642 -0.06295191824218836 0.742127844459251
Ni 3.2245730823419225 8.489262464824257 3.752319393631738 0.4662484752532744 -0.19008319937576296 -0.7977868285844518
Ni 3.3981911724428384 4.303574420644456 9.275932111222849 -0.3390639722842612 0.6754182589468432 -0.5882732883982191
Ni 7.231843866518818 6.114810008842623 11.252269969244717 0.09579416158318986 -0.3787106401416058 0.11354840024281736
Ni 0.5531304920928378 8.984397875370291 13.3020315183686 -0.18926995944584823 0.2098650099883805 0.2216280640615796
Ni 4.683836467408662 0.4406855804493848 1.6405691680068955 -0.3082626706326885 -0.4557887133725312 -0.13870870155852885
Ni 6.004528332053488 5.735711670569689 0.37254999723561466 -0.3203157451424806 -0.7035268442576013 0.6673239119744829
Ni 7.76864725784923 8.845086633271753 11.124054552295519 -0.08060099878251925 0.6067194109185486 0.6153881423371402
Ni 0.1956843485544051 4.94448010646539 5.6381495982200365 -0.002644636711698671 -0.3917952412397059 0.48296141713258117
Ni 7.947452420682558 8.878771032546243 2.470598231950435 -0.8956862094361024 0.5530712865757894 0.20929962440321373
P 8.458933876082737 1.6089397516340478 3.6714362408907104 0.16016532877040804 0.48227544680915013 0.29226655231474824
P 1.7859677782442718 3.1672446524036846 1.6286993413959225 -0.5879935523742713 -0.6133268889327372 -0.36821848236103033
P 4.76346479959825 1.076448396418581 8.19108246117697 -0.8533121153452659 -0.6093871875586989 0.513358798477516
P 8.421316322527671 1.7026318166755166 12.343430708131635 0.3183815042342452 -0.41879002466099485 0.7992017066541075
P 6.296186155552019 7.704183220030402 1.48292365352339 0.2907691418336154 0.09745509422538055 -0.9826270343937207
P 1.786996171794698 3.158349950292103 5.9834652083614674 -1.0090014106221914 0.5786007983054616 0.8326556154371789
P 6.857237984281955 3.80309858043305 6.244161169195321 0.8229895531023247 0.8456890515823694 -1.2956632151556524
P 2.3931800437946595 8.52079986703733 10.38342446137022 0.04312331355203541 -0.2785427749707526 -0.6596550825753155
