# total energy = -340891.2242575884 ev
CRYSTAL
PRIMVEC
9.08159335240818 0.00000000000000 0.00000000000000

0.00000000000000 9.08159335240818 0.00000000000000

0.00000000000000 0.00000000000000 13.29182985277369

PRIMCOORD
 96 1
Ni 6.557555081245544 2.1199980342803944 11.599207901594262 0.05409395363092619 -0.5848485789873863 -0.7772393434504034
Ni 4.719349802270332 0.55929536598417 6.082141850824115 -0.9255184623061866 -0.547989758287824 1.0918397833756615
Ni 2.330100692889611 1.3295179992398307 4.72882099581533 1.3077078050250124 -0.25885223852036066 -0.47843704689966643
Ni 3.293049264331628 4.2601481238646075 4.577865845537905 0.4593196093439251 0.19334515795648638 0.7901465384303746
Ni 4.7389297172027485 4.3350349413658655 2.699038600193164 1.1966191791765972 1.4077484005893819 -0.9910288853041705
Ni 7.3973390857518275 6.335855228123945 2.752419296844952 -0.31393683819933027 -0.5673735621310746 -0.41389901511728067
Ni 5.192546215792408 4.628270504099083 11.475474826924406 -0.11365638657559135 -0.011925547792992364 -0.4266444877084072
Ni 5.701905533424356 7.927976576244005 12.464572937817445 -0.27564334193577045 0.8248386904959214 -0.24314691196996188
Ni 1.8522454220575486 6.31771020491663 0.456555302148161 0.857942929249058 1.0162226109609789 -0.4120323942221872
Ni 2.609432336438445 1.5293675391297992 0.3185523200880877 1.1005419391353497 -0.9554659005978964 0.11180827762325905
Ni 0.47290035358385873 8.866114235072217 4.7688690054948175 -0.01663426612257135 0.31128500239878 0.24760649040321225
Ni 8.641553680093608 2.4522390397941 1.5986746257709101 -0.2838374477107886 -0.5912326281368593 -0.23420178696153215
Ni 6.696330906886669 0.7121258652567467 4.826901294182034 1.5569618583339766 0.4424140918378381 -0.13915195974353456
Ni 0.6730468615713643 7.443155723429955 2.448926982755207 0.07124629704049665 -0.9329273531757482 -0.0802058202266296
Ni 7.851582214272069 3.7636755869789944 3.811618225624506 -1.1727541996335415 0.007625120645425578 0.45834541835611387
Ni 7.666581079258957 3.9200787850152135 12.888262862345512 0.15761428021378016 -0.08734680214678506 -0.37727005104033734
Ni 8.157304967650962 8.789965076116596 7.103792024371958 -0.09872959006242997 0.2967240738654697 -0.16958713630494018
Ni 6.665507979576547 0.7863687978003475 0.5472631631576581 0.8640097042684283 -0.1947258403540969 -0.07396935239861455
Ni 1.7895915105924531 6.186917099695539 9.341524741015686 0.6930285158294387 1.0416973581933158 -2.581913107417205
Ni 0.05191583566913541 4.806560341739719 1.4013706564540198 -0.06867673654110754 0.22453238219256813 0.7511182208833193
Ni 6.394140893261353 2.201105743121497 7.066042565930595 -0.24831354377256593 -1.0687371359199274 -0.17751153335833944
Ni 3.7211283228517336 4.4888408037477845 0.33280224797327124 -1.060318829949245 -0.6680883009443332 0.09501357466342346
Ni 5.9670335652133115 5.667922211681729 4.662015888099953 -0.629374172203587 -0.18434321156819222 0.560968429935679
Ni 5.5074686230797125 3.146027352067759 9.35173245176895 0.42226949856916307 -0.9118939295442164 0.2857025259439854
P 0.2049370483988461 5.665488344704972 12.66208941641514 -0.5719969198356988 -0.5301383319286999 -1.3647251029503205
P 4.144621176807428 6.217576558328118 12.478249817171909 -0.0660578108610217 0.49144580045450853 0.5371335322996105
P 2.409782591598807 8.396268929439781 1.3433120311465323 0.09082807582716615 -0.18467616942757872 -0.5733593474008641
P 6.433228070380613 7.934942158225993 6.010459019402708 -0.7630450542278923 -0.5080569266486282 -0.7589282038460413
P 4.799031700979528 1.1580847644628183 12.847231316122805 -0.8903210884694474 -0.05703092477206307 -0.7507562095582103
P 4.171947690736761 6.265291248984389 8.36541240023483 -1.3486287116090903 -1.0751839199865354 -1.1202615290514641
P 4.663325453838939 1.0210889310882763 3.9618023486395195 -0.5200871183402849 -0.49771183596887836 -1.0912214330653724
P 0.1897671551228212 5.575744040733661 3.626861385468389 -0.19367863003650518 -0.26413122753111284 -0.6123902360510808
Ni 1.1590837397144722 0.6782306349681285 2.484030064939007 0.5993804540549742 1.5594979944922691 -0.12543563859870654
Ni 1.711607869811068 6.591919829902439 4.658852769189489 1.7985311414041736 0.4320314630519334 1.0025140031256345
Ni 6.096900347928323 5.8816211811969 9.29734279011299 0.6047807991349392 -0.8433218369017735 0.7487471495479814
Ni 8.845789629497657 2.3937535796063605 10.069065702564773 -0.9586679524749618 -0.4117025216865942 1.5502399662291106
Ni 2.7003844923049374 5.207167580839343 6.891853975777657 -0.5497900447213563 -0.6076833174937146 0.6326986085911297
Ni 0.5357649580111213 9.131087879776825 9.329588803077062 -0.20901320351104652 0.3144279189031359 -0.36634183416360777
Ni 1.3383907157931572 1.1117868023452568 11.621977272057416 0.47268111825249565 1.0904051078116639 -1.8251325460417858
Ni 4.206366928952838 6.627991918080343 1.4270370551469684 0.1405966626098611 1.1601588794670343 0.5839232389596395
Ni 5.6917977201962575 7.903910354272342 8.110900750892997 -0.35796363740224163 1.388109543312532 -0.12372071279012886
Ni 5.375522155522622 2.960399587124064 4.675560176193741 -0.051052595701441106 0.5443074243402303 1.398448720455011
Ni 0.9459478289775065 7.19122324655603 7.044165007919374 -0.8539952574552195 -0.20453434180408644 -0.4169635129752174
Ni 5.327634914595611 4.457218696236338 7.2899038382330446 -1.6807504482475635 0.5888702985522697 -0.1934271761473314
Ni 8.499472154528828 7.100134866791584 9.119205523238062 -1.0369919822978464 -0.26463387819914425 0.030964566702314414
Ni 4.777453835543803 0.28168195986818023 10.683467267908133 -0.3125787815095391 1.3072882009890905 -0.6656316118737247
Ni 8.256230762344291 6.9837724131602945 5.127815343963192 -0.47652903124367607 0.17050219192004185 -0.8811659043327404
Ni 7.181796552817695 6.050929323165849 7.018989923418374 0.25292301752011925 0.07219863365143694 0.21663395328109786
Ni 2.221820857203521 5.19493467480318 2.5598468375836227 0.27249605455604037 0.28095652661856774 -0.4705476168492606
Ni 2.389176456635146 5.446522051135626 11.297550069330283 -0.29222772865701285 -0.9083067264135906 2.7904460288577235
Ni 1.0542004198840058 3.3866986533775862 3.6223959660934963 0.6525639800564891 -1.1100287955798627 -0.20215221472515507
Ni 3.470049515738312 2.4722003816407847 2.820313287584632 -0.5644944408110666 -0.9532148997801906 -0.42064584692281104
Ni 1.2154168623145576 3.1622470775173404 8.370542592231732 0.04809068485963976 2.2107018609764375 -0.8704983973165653
Ni 3.461385675828513 2.685363537157341 7.2690089086057235 0.299963920959006 0.8859509844262096 -0.696412087589691
Ni 4.104762064266436 7.134953695108322 6.246574993564994 0.5139784343393857 -0.24946668354040263 -0.7320820301874746
Ni 0.8107783039948516 7.443528068751027 11.263150810619239 0.30822230431305625 -0.5851648246762245 0.23089431985485395
P 9.301640200013743 5.4030303013158925 7.912639581653158 0.030834725992669478 -0.552598717814745 1.193565479951938
P 8.650072214512258 1.7006100604496779 8.02350676324103 -0.47709261705663 -0.19746355100023413 -0.10535506579874761
P 1.8576943779756607 3.365547622822113 10.534532772117007 -0.2922135875896258 -0.9977137535235141 0.5124229169268079
P 3.844120339516727 6.1834842574671285 3.705762267162657 0.8511385047327147 0.7704472602292345 0.6352488858168092
P 7.074016204757432 4.08200359171512 10.644628926442467 0.6088667962788546 -0.09513878738737809 -0.9457062501079714
P 6.493230156632227 8.002799822592884 10.196561281296086 0.23814817320378986 -0.7617736437146365 0.17408271018244856
P 2.350180095447855 8.431968672296613 6.018952125360405 0.020030693398630017 1.4276911622598958 -1.6384092642771912
P 6.793431301347432 4.22521123483631 1.9292164651974844 0.31469942739696766 0.3235620199939202 -1.331075018996043
Ni 5.578068928592056 3.1421585933658993 0.3274831588378739 -0.42122794467852614 -0.31160819006615365 0.3272350979701332
Ni 1.4166104779976603 1.2613152343314575 6.927196812021853 0.4163171376404701 -1.1843629875170634 0.560316655284293
Ni 6.950461129314234 0.9322255416570602 9.093100483593705 -0.7959618595605712 -0.761278706356089 1.1218982933239388
Ni 2.627241340697476 1.463707620316545 9.29090938949234 1.2638077612079526 0.8699828911327275 0.42564998500562184
Ni 6.1383214944991735 2.2007061530208354 2.5660141475236062 0.4876192276195666 -0.8294342802864038 -0.1167306546255409
Ni 4.207175190747358 7.0250028462740115 10.466545240967399 -0.39489830564506184 0.27955476117503464 -0.7887985090429125
Ni 8.123121850858004 7.299167063293836 0.3342307825831364 -0.08984025799260012 0.20166859022051722 0.4030970394057703
Ni 7.549800872340612 3.9807165827906075 8.261363678819153 1.4553300070230872 -0.39342043554795475 0.5078119005173576
Ni 3.0150798597623214 8.17578600980656 12.454962795896535 0.5171822859886642 0.391219571241894 0.08375034304477834
Ni 0.042520019347670295 4.797360687831308 10.176384705690635 0.34342893412117625 -0.1627875968846035 0.1856580737248738
Ni 8.555950582620063 2.226970120546137 5.869539029607805 0.23445169818880915 0.7002281189016715 -0.8616232063141226
Ni 3.9490581489063747 2.6371402772820467 11.34233049722465 -0.8897341056177257 -0.6566126962045659 0.592100118343477
Ni 0.8395905665711906 3.441551476286584 12.570468855289361 1.3908503392824627 -0.2667069586780891 0.2243529191919104
Ni 2.6141820096804 8.338773362910498 8.197390211862555 1.6498378178291069 -0.5036647111182035 -0.09407126535481218
Ni 5.579821676079049 8.022016473797427 3.5762859929551096 -0.15925464403068057 -0.9129097724032408 0.435393951766263
Ni 3.039164244920378 8.37479096152922 3.460581046671272 0.40601832681762334 -0.3720278288047915 0.43071865777778073
Ni 3.5178186959537636 4.278792634697749 9.535319582721312 -0.04483772513998084 0.7076259540276394 -1.3806222337965515
Ni 7.570025580390006 6.199549595832363 11.350438543630803 -0.09250880596369875 0.839057919419097 -0.30247254631347265
Ni 0.5935311560176699 -0.1814157220189943 -0.02132630530417218 0.8577945765966517 -0.19827242005477466 2.059186494571544
Ni 4.647178381134933 0.20095295346338626 1.6699723976407712 -1.3990835258255325 0.2730200453803104 -0.12335613036185852
Ni 6.307520657349761 5.813799843202794 -0.04455247990512621 -1.4476583494104422 -0.6796968317175391 2.6162974984343457
Ni 8.095995131979 8.936868927668908 11.34966751636839 -0.8133497160197154 0.5219223717768108 -0.05731554589201742
Ni 9.26140874215168 4.816849786831756 5.781892573664968 0.06236056451509261 -0.9127200249899379 0.28047598743772345
Ni 7.890124495799518 8.961734329841892 2.5740958573094863 -0.8485170079494677 -0.8621407693804896 -0.4617819548414886
P 8.56592217195021 1.497364004704086 3.6994087845621375 -0.023713284456539807 1.3785465822144451 0.40113528769370915
P 2.0938521274666515 3.2833682859837814 1.3365462442148761 -1.5848737542528963 1.019550132672315 0.5405947513753334
P 4.726978340555688 1.3099380843074138 8.31047693482774 0.5018173734968197 -0.8110673477434418 0.5642578993202282
P 8.387714068648345 1.5493742889424686 12.768862615789875 0.973958045864813 1.1249702473810435 -0.2532994270229315
P 6.254974559112763 7.776386622602119 1.392611459815654 0.25152922249638615 -0.3148668062127674 0.30810583333985003
P 1.878463981616866 3.191671439475147 5.731091049481086 -0.7974754679916202 0.07789079894020778 1.5623046107031289
P 7.006739762355138 3.956169036379511 5.990653880959008 -0.04478270353232932 0.9940293626933914 -1.1728241336395284
P 2.49652088822196 8.690585201763424 10.326210105774374 -0.1501269706977995 -0.605248482799977 1.210625006537386
