# total energy = -340893.40636784886 ev
CRYSTAL
PRIMVEC
9.02578597502365 0.00000000000000 0.00000000000000
0.00000000000000 9.02578597502365 0.00000000000000
0.00000000000000 0.00000000000000 13.21015011487800
PRIMCOORD
 96 1
Ni 6.669099245158827 1.7516523732855642 11.339263043060294 -0.5983538125626727 1.1130454709189994 0.19272012277797776
Ni 4.60028977169971 0.11149643911761564 6.117990157184297 -1.5501170674980012 2.022576299547678 -1.2537575760608022
Ni 2.7772073266769457 1.7794427688982555 4.7975041020592 0.6348742760862098 -1.1654214134175542 0.32769249722252597
Ni 3.218116981006266 4.497224319442054 4.813448153325787 0.7864557198423487 -1.3292562206197494 0.30300373622659427
Ni 5.196108994038327 4.408112732600839 2.7107224831814456 -0.28453627355002614 0.41911706898311046 -0.38452261883769256
Ni 7.319253700231577 6.433219349432266 2.5965074772698893 0.35848017202734395 -1.5193018818893578 -0.6012303627795195
Ni 5.1227835072057495 4.477475899305462 11.469712730553061 0.9430140479877889 1.1142713729063003 0.009487370665144951
Ni 5.551914510585228 7.906606735144177 12.513645087162047 -0.584804098902696 -0.11784934161101639 -0.7008079026645414
Ni 1.7033914946428033 6.582108718067199 0.4089376119847807 0.9792807436293071 -0.6091249350362478 -0.2976540418789067
Ni 2.8155308147482314 1.767664117948414 0.38783442134430196 0.6753928050255465 -1.6558063767077162 0.10872938158761919
Ni 0.4558337917588704 0.03527006461049507 4.513366938004347 0.28802346076767815 -0.4976745549730397 1.089973162480568
Ni 8.519800595857081 2.3567501038053584 1.2703550335882317 0.3958496138147376 0.3822078546615869 -0.4522524180844985
Ni 6.900664815096861 0.5504691597351841 4.790489261049072 -0.21388364422947034 0.5969577035460945 0.28183301568625013
Ni 0.7666917957654527 7.515690910401963 2.478422214249297 -0.0058757420544866545 -0.3924704129298595 0.8592302806019139
Ni 7.656068962680037 4.043118965734444 3.5196332963284913 -0.2571046597016346 -0.09069746378657283 0.6971631068231026
Ni 7.500906672658024 4.117897604140143 12.523037320248946 0.6673398528140829 -1.4359212634791723 -0.6927629208728779
Ni 8.017109435204645 8.415868668127253 6.828300574491226 -1.1193847828734658 2.032331322051913 0.7340859479913809
Ni 6.732731037646476 0.7226513747350641 0.322014778289417 0.49107273338580587 0.10466729570310361 0.46839097551757397
Ni 1.7391697110145827 6.321308626729518 9.322415923151626 0.10058464099329774 0.4198932850275026 -0.5353633277730651
Ni -0.008274840759245049 5.015728657461633 1.4364980950627944 -0.17769253902089396 -1.025680413939769 0.0018468234007516578
Ni 6.430872645028466 1.804471273943398 7.013572887171224 0.6036857662985474 0.6415594014158692 -0.996091901649375
Ni 3.3516715389409835 4.261091701702778 0.5171441520439923 0.8193393579442471 0.599135942144336 -0.21138710305986178
Ni 5.911339367385683 5.717754305644531 4.911177560800649 0.044173352083104564 -0.9241452361077439 -1.0209282439667644
Ni 5.029195130424977 2.816433393365078 9.76203669521609 1.044987598908813 -0.5796760336475114 -1.5360176519821418
P 0.04730143757305359 5.623904181064873 12.504067825458693 1.7421355362232642 0.06406957678639934 -0.40685213557282834
P 3.970109381417763 6.128860814045592 12.636776667229425 -0.29511404906587235 -0.5816133598795403 -0.4670622294038214
P 2.508437466152514 8.492091432319906 1.5657464504165393 0.09318089233005887 0.7171812018162422 -0.10084637929511664
P 6.059371286334612 7.682649902946154 5.921014107579655 2.0890567997684153 -0.7700415401503835 -0.4518623817349315
P 4.720233444092389 1.0783377509045415 12.407078532449644 0.020144593268674984 -0.12160700888123574 0.07081383748876836
P 3.824171444859917 6.069074006465707 8.290650326297726 1.0509453591541447 0.8244255142179027 -0.375979614363688
P 4.898673236642862 1.047117556547835 3.952159800464545 -0.6150063335176892 1.0984351772049923 0.690549972381959
P 0.21433083124935925 5.598370231994298 3.7511672760149373 -0.24641606963953688 1.6560254346970575 -0.8092045835030903
Ni 1.3385962950721146 1.3119431485166495 2.729626992311287 0.3659227443483182 -0.23152861100474323 -1.040576614325311
Ni 1.977017228125867 6.484891975246706 4.756750872351366 -0.7029164643671121 0.8461950446845103 -0.6545668694191308
Ni 6.185181719736789 5.554513937001745 9.197910618429407 -1.1127685631085287 0.7762867497291469 0.8770531677159475
Ni 8.817389791617408 2.2130234848587853 10.199358599543446 -1.339723952920293 0.3874662748470488 -0.7834873812426442
Ni 2.2204246295169234 5.306367997872246 6.936464693355445 0.25056711569343304 -1.4752218608510077 0.513742921289812
Ni 0.5078160020388879 -0.06433941412325743 8.940682933257204 1.6053433349611579 0.6471456372543952 0.3313964284366744
Ni 1.5746476807358756 1.1151088037548518 11.191401711469949 0.41863730113321446 -0.5309590280577823 1.2971624254089982
Ni 4.095242880857306 6.813945061590288 1.5564201055686684 0.0782587238025878 0.7966727695846666 -0.17736960846383645
Ni 5.3098880544779465 7.900387968474108 8.016989392248604 0.32648562139861836 -0.7873808027597795 1.1395589438284954
Ni 5.253070730547485 3.1595125514144486 4.845284808877799 -0.19989941413523635 -1.384998508487376 -0.1895782347148864
Ni 0.7301870036071122 7.061152318958267 6.7322490606650796 -0.25454024140856807 0.4035775785866146 -0.06363197502834847
Ni 5.11580657449753 4.543183622611858 7.16085295813232 0.16695998309473825 0.3956719505862928 -0.2155677168001126
Ni 8.40391852724021 7.111768927790996 9.2808702294182 -1.1961772065431722 -1.504130573465558 -0.5819964542505719
Ni 4.765290168645346 0.19017150941223968 10.285409542294937 -0.8950208079379618 1.0708485258359752 -0.0038520267562385272
Ni 7.8968137571513966 7.203100858029654 4.711334018930286 0.9797882793933448 -0.15706072170315533 0.39084701839382363
Ni 7.054220515180889 6.0732890486063775 7.05449760681626 1.38336251554585 -0.2585519336711225 -0.08229946953086473
Ni 2.188166469750844 5.277819436221404 2.5354633776767366 0.57619013198144 0.1721196729188068 0.0348423044901658
Ni 2.5147735680427736 5.178246963210943 11.170688434791947 -0.19049483299188483 -0.2760937992096278 1.5712016560824424
Ni 1.0347341779247066 3.6278244925512166 3.896386759993774 0.32272898256966354 -1.7348582858355606 -0.34683076071387364
Ni 3.460811345290014 2.708268371922241 2.780115434980424 0.8714463630521314 0.18447973714605648 -0.4038889391794463
Ni 1.0345626879875058 3.1740260155733337 8.116210762177115 -1.0374825487810198 1.1016187171392964 0.8848523520453921
Ni 3.819559268127833 2.6879152241123614 7.03571314064246 -0.8520993259840873 -0.6822429951781606 -0.5302154650235384
Ni 4.053940883350429 6.70508505461248 6.052745456708344 -0.42032857279270835 0.2899828984868941 0.07414007364852393
Ni 0.7922185242070942 7.5452503601036724 11.41269774190551 0.5986142653129111 -0.9016087455681246 -0.24754761214081886
P 0.12466235340154971 5.3836648306189465 8.009842774760417 -0.2657283968149036 0.30797470707862445 0.6986510042225387
P 8.371362516530573 1.432265903928403 7.94079280283584 1.3057468246438995 0.8004908577791763 -0.739502491021262
P 1.722101949370023 3.2432267181269245 10.367682290956308 0.7630190860859634 0.09951557629883506 -0.17901511448705945
P 4.08788686513001 6.074913690116701 3.5995277503344747 -0.47913792962143287 0.538636342097382 0.9421483575533839
P 6.999091013263929 3.807997236046035 10.265237812787044 -0.8966511444525331 -0.4612497364871024 1.7708167062080404
P 6.312291866347226 7.647611801040189 10.058155590409575 -0.2590281019765926 -1.1437750387923722 0.3511952083301565
P 2.2912680251531734 8.543168356247227 5.735226422509437 -0.29760621936010684 -0.017151314968305943 0.30224783189717624
P 6.8956013490563555 4.104241589667263 1.4148470392018904 0.6798613823198614 -0.7203621706473852 1.0828666333427737
Ni 5.468796045759871 2.8060988682021897 0.3659802852946074 -1.0054993110062038 0.3479250222193169 -0.15712397084092294
Ni 1.6564303292083005 1.2254309880919507 7.028182927242113 0.016877749591945126 -1.9079974011578174 -0.25980920311699124
Ni 7.0222872837168735 0.4471762576660826 9.285177334577789 -0.63922561107637 1.0711287760805552 -1.5867118359028995
Ni 2.807994283297566 1.7029853342652224 9.200301549185433 0.6377022324533081 -1.2261421283363787 -0.4156162549187036
Ni 6.412053880867226 2.1013564583825857 2.6110389930011113 -0.8913078778627488 -0.04540619604894115 -0.040818833788574864
Ni 4.234438555147312 6.846004654060661 10.487683728380466 0.16600481827032057 -0.6947480696237067 -1.1366998771131456
Ni 8.25584147936044 7.326880489543927 0.3939078728570594 -0.2506020826964264 0.38564490536759394 -0.1308876628522133
Ni 7.476076734908587 3.73307418506164 8.230808461422214 1.068406749163702 -0.22281231417766786 -1.2493517336836224
Ni 3.0277902280719284 8.088584635872689 12.20273112328122 0.4954904028375273 1.193755227365241 1.231097415459125
Ni 0.05305176594098009 4.71336482081819 10.351817666608005 -0.24677730963369757 0.2852191585496636 -0.10844476046766484
Ni 8.808517443813813 2.19176775843206 5.744407452199996 -1.296442002303206 -0.12635352242728562 0.026934362496998775
Ni 3.5311312453284938 2.8900296537827086 11.534720052852784 -0.7656125578447524 -1.213182225741601 0.5450908394734741
Ni 1.142881147795206 3.4741334056746624 12.658573940826258 -0.8147882482384547 0.0745607061257103 -0.5078810631923962
Ni 2.725480546145496 7.937258304972271 7.8578070170671594 0.31515065600177333 1.2914255229252212 0.19658371949844206
Ni 5.68954872386809 7.853038694234362 3.539303192125418 -0.7484514726844336 -0.3618904832604735 0.5789162726633514
Ni 3.230328869692194 8.434732561219336 3.757085484005597 -0.24996367778147915 -0.06794140103697976 -0.3206672149446284
Ni 3.273643617514638 4.205953173999649 8.935900169166535 -0.2870721525980024 -0.9900549514266757 0.8663964593330498
Ni 7.40603663424133 6.331751461326427 11.39976559548334 -1.1153417231523437 -1.1979944622575691 0.00640538930571155
Ni 0.9017374135752 9.085717388619587 0.20178679363243215 0.007600180944761103 -0.14679919187614718 0.6567458793483205
Ni 4.695168835902573 0.3560627514527024 1.973200223155225 -0.822608772724138 0.34607562771540396 -2.3202953903365655
Ni 5.945231194448254 5.618317219426595 0.311117946648234 -0.2880478862477103 1.4766441951198312 0.3586354666582856
Ni 7.808685981002544 8.638282090890469 11.314638893235498 0.42006323494646364 0.9113889648833401 1.0615599014451975
Ni 0.020219566174586343 4.699483161691098 5.84477780470775 -0.8057019696664705 0.304154819111902 0.27927605359235125
Ni 7.926625928865824 0.008556445287701032 2.396043863889753 0.334242896746534 -0.2856593314108758 0.15974649606543456
P 8.307062815866455 1.8193457695490218 3.5471763854001668 1.2245171911384458 0.040175543777621135 0.7801544602146693
P 1.7282033808199027 3.2240739998774504 1.5942670321302592 -0.8323365415348633 0.5399229221192895 0.30643615894691095
P 4.819643452951818 1.08139749241565 8.127637407466386 -0.9375630521755467 0.08844851985139607 1.6578730294287576
P 8.64812922360026 1.4365621781445905 12.384925642877773 -0.5818763837329398 0.73913070950414 -0.1798229551003355
P 6.348322804731723 7.843056174732044 1.3306454800363174 -0.8336966551071835 -0.09878512589071374 0.29548428792109754
P 1.7236634103771666 3.149259258327077 6.055295241300935 1.2754561440801582 1.4040750655028527 -0.47954750635502574
P 6.928085153476647 3.906631027294977 5.926034249846554 0.018675722032632354 0.2591589711275021 0.3973706784449544
P 2.5191871774791514 8.42966006939266 10.146360085740861 -0.7403293577979315 0.2858115407180239 -1.0747622590680845
