# total energy = -340867.56738332566 ev
CRYSTAL
PRIMVEC
9.24759318319422 0.00000000000000 0.00000000000000

0.00000000000000 9.24759318319422 0.00000000000000

0.00000000000000 0.00000000000000 13.53478738464716

PRIMCOORD
 96 1
Ni 0.8574839775292412 5.991524695310901 4.951620850479956 0.6419859474303266 -2.5546678985480065 1.3320720928019896
Ni 2.7222139255205198 7.961280480763637 8.658176308337945 -0.04335111329212534 1.2369345909661924 -1.4725581979759157
Ni 7.497754133639981 1.2353396991563632 0.31425725089307205 1.582004403124901 -1.5969168014603596 -0.23178546421055568
Ni 1.5328625059157872 4.829980787592707 7.576367920985329 -0.5437716064414184 0.9266973131056363 0.19047195017374938
Ni 6.222723765705094 2.961106993217539 5.392218715737471 -0.1507905724237274 1.5155542419214671 3.5889088004632774
Ni 4.766301862800323 8.613901607752917 3.5088530185098277 0.042227798320959534 -0.3797419096195976 0.35668039981444377
Ni 6.130839682530954 7.045870505992598 12.364217600030022 -1.1517701411827066 0.05776651738650696 1.0920061337501967
Ni 1.3210833806369022 2.41208664962197 10.47080901689989 1.0748949279912068 -0.8435889745202311 0.6514949153620263
Ni 7.799234910165763 3.4335850102800602 1.3915787061647598 -1.8003923629826284 -0.019462222489669705 -1.1191050468495178
Ni 2.055971094171789 0.7829659490846412 1.4190274114463104 -0.7757275347915672 -2.191111854659652 -0.29781807826059675
Ni 6.267130706868764 1.0624282068868294 4.399793862435579 -0.026660540010321823 -1.2334234924891403 -1.8220096841420876
Ni 9.225232232389887 4.779146769355162 10.44582387037011 -1.36492436344532 0.2252746596752314 -0.5197523607086856
Ni 5.622027872916982 3.456657754595628 3.338544723645036 0.22821754435363922 -0.1649046432276063 -2.305059033002785
Ni 8.694771807768804 4.851056051839272 2.777608856582289 0.8794496929725821 0.17471854399423456 2.304719133164863
Ni 3.1193055651639994 6.6684022585084906 4.104762357206661 0.44512223479762053 -1.1182707238736806 -1.378160145409304
Ni 6.070110739877513 4.837517575816029 8.61447218423559 -0.7153539187995165 1.5251765955025798 0.8658400726089476
Ni 3.904176518388523 3.259545311675256 8.93693852335669 0.16494963753292882 -0.5775052512484377 0.5980229115858152
Ni 8.215348848429333 1.4568287969929021 9.54031899236717 0.044945968583070976 -0.1149555650029891 0.5266920252513122
Ni 6.48540164237191 2.9974407857689878 12.794528442932172 -2.1128114789858516 -1.0623952528622993 1.4797899398376644
Ni 6.505200738796611 2.5093620794638367 8.028010186457708 -1.1385798677446777 -0.8773303326367343 -1.1895597012266546
Ni 1.6548844943903032 4.26599783866544 12.110805811461082 0.6207753747909825 0.38799077989195113 0.11688517792553417
Ni 2.8663931466123103 3.4729612608995746 5.927356572853469 -1.2632601162345987 -0.8648728235996718 -0.3296442216322581
Ni 3.4349629016239556 6.390965223554042 11.359800468239781 0.22979414481213972 -0.7829718750588064 1.1245812394727408
Ni 2.239572803847654 8.392486490659675 10.92697150578768 0.35305951523240486 1.0738765140290216 0.6454793052955657
P 5.9058642421665715 2.084860574429037 1.4004175554700984 -0.11488845921047955 0.7053492421783207 0.11827717317705437
P 6.528967052580583 6.208732157629161 6.8385866356282605 0.8618263234638641 -0.5713873112761578 0.9612601386821703
P 1.640569220562448 1.768925810181719 4.002818742462791 0.9089266193857766 -0.10790405747284643 -0.8980212853271825
P 1.2506814557974562 6.99096754687375 7.118635190821074 -0.4863640150562269 0.3554197879344653 0.16239730342472034
P 1.975267350828318 4.227046977319879 9.746656833976605 1.791083941097509 1.0216044440981824 -0.9230129222755136
P 7.692878344084263 3.6748362141696522 9.39848865987504 0.1697509155763141 -0.890574342130834 1.737436330975382
P 0.9882717593250905 6.384926545382473 2.851901243759835 0.37403766014596873 -0.6903679382781401 -0.2994049631317424
P 8.00827674794268 -0.03976372476252907 6.825796289871603 0.20116696799375033 0.2232080069541898 0.8398112526453536
Ni 4.351020207898839 0.7081344272403227 1.5243417738066232 -0.20230776646641288 -0.537924403632022 0.31830977045604536
Ni 8.797799240401966 0.5712053189915802 4.892026587476823 0.21042293937437953 0.014482509886891188 -0.5660684701664058
Ni 1.4444647652694895 1.4571802055235599 6.113879597130252 -0.8806159453665413 -0.2681413771317705 -2.686975324565882
Ni 7.571808857679688 6.884629475978072 10.511697248960525 -3.8924344706316125 -0.07173686352367 -1.595174364847956
Ni 5.88205169041804 2.559262090817265 10.45161656257022 0.5114258431208611 -0.2259043228394303 -0.01623934467699784
Ni 0.6634639296786593 8.575311402530927 2.9049445119440693 1.6867755713957209 0.5249069083264315 -0.7858329986566853
Ni 4.237385786195553 0.5192384706223082 5.535714539713061 -2.526721035626094 1.9291840625377614 0.5225481782862679
Ni 7.571420458777381 5.3190674815252725 5.010212674411421 0.17523070774396274 -0.7380261635860517 0.45617900683241436
Ni 4.250212197564568 3.6123687240487463 11.927354837549684 -0.47268497490723754 0.326165004834406 -0.4128597752194889
Ni 0.5060070146837454 0.8197630460409843 11.871686177737718 -0.9369508725128445 -0.2978363330930419 1.2044754419962225
Ni 6.212532918316014 8.25496553646456 1.2987319485684743 0.3041347645072439 -1.1267306817155758 -0.12374102450510302
Ni 8.42069164904143 3.025414754327943 11.69683084143807 0.13969960471688844 -1.4428557858154762 -1.0378468740989737
Ni 8.600723787853244 2.151813147112288 6.724555492189049 -2.203174185140825 -2.2048613430352613 -1.6215122314115364
Ni 7.788026827556358 0.12004300359133696 2.677519384217285 -0.6482838646238964 0.2549009671820965 -0.480295954485276
Ni 3.9031870259469335 1.2002358364622165 11.099337390075402 -0.721569560691925 0.627698327163061 -0.8767322940414191
Ni 6.728252679835287 4.750812144672637 11.568399346316212 -0.6688961415576093 1.621739002710362 -1.9017429356076732
Ni 4.740972705814214 4.669553545754442 6.503587033833458 3.3790180794432834 -1.9283469113484466 1.5692949259780327
Ni 8.163516090157286 6.770135028133967 8.297690340477528 1.149001577298634 -0.5187874256922549 -1.5403288777629858
Ni 1.2056364307228544 4.7244750000591145 1.1373226123629498 0.7457469292690769 0.7590860695801444 -0.03946000576783527
Ni 9.283566048479106 8.547938527511254 10.164869051071916 -2.0662642273539316 -0.3933165629802387 -1.2204620472324657
Ni 6.461274672464368 5.522893676899794 2.6311223610589414 -0.7434319079826551 0.5423089058529628 0.7160517161974893
Ni 0.48737496448454454 2.9676820317780073 8.382973491831047 1.817948626698837 -0.719662059256567 1.7027603768597512
Ni 5.2195911245703375 0.5460084025841142 12.939702705021299 1.0260313695212846 -0.347369406826163 -1.0406846006580852
Ni 4.145261265605699 7.613876157836608 0.22851079513465944 -0.5531962421894279 -0.14531155158702716 0.0021646117514865946
P 0.2669807816487925 2.992030943915438 -0.0741028115228489 0.8741257096565075 -0.2124916489779502 1.4152431663045304
P 6.725090003059366 5.973602860247346 0.6640474527914096 0.3168586398318156 0.20900908974598842 -2.0776025351848864
P 0.5274817749441107 3.752737936860772 5.864176093319044 0.37883816685840566 0.9597745552755793 -0.10413944822409163
P 1.289475108063511 0.5997036260686484 9.21682432091425 0.6578429690672413 0.8784924712656353 -0.017684818874272767
P 0.0399311061942372 6.830105668168619 11.377856393400561 4.166778634139986 -1.524147125796801 2.92727936777041
P 4.381916415818002 2.299071816643792 6.973067906033184 2.1418556887370013 0.8727414277144712 -0.7023161117789517
P 3.288268335260087 5.011252103854735 13.379488631621136 -0.9300921977197981 1.4063942005543326 -0.16281125103368735
P 4.113227603758353 4.648422795950405 4.404287267831545 0.54936144182437 -0.0737286971427182 -0.47633876960974086
Ni 4.708541397471651 3.8970836146249797 0.8982492166041455 2.211104238621179 -0.42295624022354256 0.42175167839248007
Ni 3.0830642485416706 5.936584745820405 6.24518062033272 -1.5402031508183989 2.5053045176235305 0.36531519267130635
Ni 8.134275201369379 4.218918343150187 7.408712760527005 -1.0382795907610183 3.3173704818348155 -1.5749474962781198
Ni 5.109720473182257 8.587878881298403 10.34101072754563 0.33377624152276064 -0.5469273784615807 1.6708907818446643
Ni 1.8385324420307283 8.199174808426156 5.1367761557650455 -0.5225592340298614 1.4892888804670352 1.3119295564158437
Ni 5.055205912965715 7.3866535523945975 8.344412878906375 1.2145222847092632 -0.14968396962310998 -1.3270532994311597
Ni 2.3411206216148885 1.8884879389416291 12.725028158401653 0.18150754189160997 0.9513973869554776 0.7723604180915473
Ni 2.663195787555809 1.382283950528857 7.764934663295675 0.5329588320966305 -0.9443332810198446 2.7297710795751695
Ni 4.894445757782617 0.8539782150562826 8.584451723365197 -0.08020402045441671 -0.23754987749815862 0.06610563337982164
Ni 6.105279335722043 8.724761751582587 6.000255347779169 0.9896823985786053 -2.228501865272336 1.2231362516305193
Ni 1.4936434643757779 7.0825649546676175 13.377052815648103 0.15385327050945116 0.07516902913367055 -1.023695008078624
Ni 8.200709908849555 8.312735249386144 12.515874424750496 -0.8386691686211105 0.43504659572917337 0.4487626597636851
Ni 8.562679190613064 7.430006267966294 4.375593836544032 -1.4005891638367813 0.8464953495337485 -0.2266838813179322
Ni 3.8529910916203196 5.897421189837869 1.8299035130844934 -0.8668710849766232 -0.04312691309646121 0.6676527560688115
Ni 6.968791819070652 8.724992941405388 8.784022176481594 0.8447012337478033 1.001772239863604 -0.5440983936532178
Ni 8.695687319467098 6.885156588774059 1.3166260408532935 -0.39591337717313746 0.7769171842242942 -0.23591362744631628
Ni 1.506627084824298 6.376612959354539 9.848777077745094 0.16598939165135285 -0.06542274838018411 -0.7783847699087563
Ni 3.628191355521266 5.57593786984332 8.669518481044575 -0.5986052664518465 -0.03577844315119 1.1086997923557937
Ni 2.6818111920877676 2.921407076846103 1.373740099437413 0.27050344960604383 0.6907944842925974 0.4013132080324701
Ni 8.743867278538884 5.15346158765626 12.997184817803317 -1.083566744733592 0.9406638025880574 -0.03221232306648646
Ni 3.9565826274211173 1.7796530179596983 3.637568414734086 -1.4280686002039729 0.6628519922460584 -0.34477464951579334
Ni 2.2281797693800067 4.060867732690319 3.5454106028097483 -0.7529138793311615 -0.34373720939021446 -0.49963116447877826
Ni 5.396257139562165 6.445544516920968 5.044807919495405 -0.5423225326997175 0.7494192359143416 -1.1570100494254074
Ni 0.29359350453109356 2.1877030552039587 2.2351885200480504 0.24266560145816918 -0.3389621565990743 0.8482668396118745
P 0.0661628282485617 9.154053509745829 0.6537955712891097 0.12551559990702252 -0.23574110642419402 1.079371989925954
P 3.8439376981594213 8.03856261472965 6.610931242837967 -0.34545290652974053 -0.66813766612503 0.16828821498785854
P 6.611520314506465 7.538203105037294 3.5258121791512385 0.5974109890334292 0.6482234436996062 -0.4108268039498602
P 2.9612549547041316 9.068799950689629 12.811677179228282 0.30868047489639744 0.6215775589773037 0.06531219094424881
P 2.8721081590319577 8.112339910981994 2.574018474827025 0.32397673893383555 0.6158051752699008 -1.537609936169926
P 7.842939034268118 2.549283938065162 4.064753571231964 0.8868637260484661 0.5671624745615328 -1.012227373758657
P 6.857894684869333 0.6133576970032921 11.15575048111679 -0.15082553942672092 -0.41138319067396245 0.2907668278407702
P 5.294542865122513 6.376048856186904 10.343744316010433 0.4912856207275604 -1.1599398214776926 -0.18901850555667446
