# total energy = -340857.1230435746 ev
CRYSTAL
PRIMVEC
9.33831739168584 0.00000000000000 0.00000000000000
0.00000000000000 9.33831739168584 0.00000000000000
0.00000000000000 0.00000000000000 13.66757143431986
PRIMCOORD
 96 1
Ni 5.299635068369448 4.773308836069969 11.286475029568678 0.8945965759163497 -0.9760756064284479 0.11214020704138104
Ni 1.907229883718617 2.328985640355601 13.593219599922014 0.3668964211154972 0.22135115625110907 -1.6530121017920307
Ni 6.196692492292526 8.530244569743944 3.676166760812745 0.053071168793366666 0.2109818972016431 -0.907054084953412
Ni 7.405827137698454 7.449838626517648 13.362934830862157 1.0344435048443796 0.06144705156188772 -1.3524203174410387
Ni 2.2324928090446017 0.04596226327587392 9.502583771359536 -1.48994605443506 3.0804685223333013 -1.2515484842246252
Ni 5.429969961102208 1.469206778572608 4.155556743355587 -0.03165902166617774 -0.016293337843384843 0.2869749648985057
Ni 3.6242102317458587 1.4639586443234276 12.01106120602741 0.24914606697619024 1.0242218271163714 -1.1167856546877217
Ni 5.767269977259499 6.561026936655114 6.312627699950133 -0.9356866610884402 0.11405310779337777 0.8932459754257261
Ni 1.6462612721036773 7.4730536830006775 1.2594177480360635 0.5062386424929669 -2.867742645857358 -2.3416358036855542
Ni 9.012008352511238 4.077706928441498 10.285380347893476 -0.20583274890053582 -0.909597420200556 0.9614730260239248
Ni 4.885826219643589 5.424675135267181 2.8232552974761 -0.8343137198658922 1.0349027038689855 0.08132553565336963
Ni 5.286701499089885 1.7303341415794269 0.5479369658928124 -1.2842331189418401 0.5429213426259811 0.03854829258684329
Ni 3.0060042968170455 4.1256685254233325 12.050465169155242 0.10743071738085368 -0.07723413919281537 0.06846719163346272
Ni 3.7252788384698445 1.0876057857638732 7.748624621173345 -0.3458766243307204 -0.8064519604586177 2.203089852957135
Ni 1.8533384553342396 8.388180750646468 3.1675553161835426 -0.5662582175797086 -0.5444832877964623 2.6566751309204437
Ni 2.585929437270546 7.052605290767405 9.310568359891436 -0.5685819806168788 -0.1418649877993234 0.3998299386187243
Ni 1.6530408903686329 4.369426618495141 1.1113932810893845 0.9299212193595727 0.5036760239721132 0.5883337093225094
Ni 8.582315026280298 7.304553087996743 3.2198470908368084 0.26703785965494653 0.0353323567527069 1.070578302893724
Ni 6.3130199092712465 2.450841341098582 11.744885548758834 -0.9224843034655532 0.829720444068255 -1.7658336511711525
Ni 6.593001334643003 1.8676727721892075 8.788248265657613 0.372434577324907 -0.44917943558612966 -0.8463860776493939
Ni 0.21994725195337442 2.393270615749476 1.531997623219386 -0.2671368471266561 -1.121275315027959 -1.1158723988448331
Ni 7.742847004340662 0.5363415774636178 10.717794859747567 -0.21406876365708294 -1.1021866738276245 -0.5003801268296608
Ni 2.086973812594462 4.323547466242075 6.257096463070816 -0.48277166971927826 -0.9825822971987143 -1.0974226767800777
Ni 7.184593065639142 3.199102019245075 1.1666350301364516 0.7164186126186048 -2.4195451145685234 0.9949693580091575
P 6.722542470416368 3.7081430264640685 9.91380030323918 1.0926836194331957 1.0164033595132171 -0.6519191473836385
P 6.172263454577481 2.3872100479065614 6.532019322031931 -1.1646331131883039 0.1351945177576833 -0.0683743748093403
P 2.7194206812065502 2.6448915718778863 8.969124932406102 -0.16056282131914282 -0.5192448249446477 -0.7017617819373786
P 7.0763152780604095 7.853515401114751 5.470677553306883 1.451336826703294 1.8963791001925983 -1.044767255367891
P 5.698997540434306 0.4331727832082434 12.423808288091113 -1.56283117263056 -1.4938726431829754 -0.5875274113711301
P 6.662870623704157 6.948725850575442 2.136664865916061 -0.3582999376957378 -0.6029524876769486 -0.5999856917391408
P 9.173645284395691 0.357851784583618 7.736009488509257 -0.6390893426088219 -0.3915700126027773 1.3550875798605566
P 6.49176463820997 4.801538568872945 5.217691335208313 -0.4916957116817854 -0.8629961754022492 -0.7405597286411827
Ni 0.3456615453507351 5.093725174785056 12.940606635382691 0.9145532215439345 1.458268777936437 0.2110531167592107
Ni 8.165219089910824 5.620023392133027 8.878522711565534 -0.23570562520056826 2.736068482548107 0.5318005501224712
Ni 7.473063021317847 5.517003077120645 11.754452654698843 0.22885903459238005 -0.44127509313738844 -0.26609889278044496
Ni 4.678683668192843 2.7278531816104823 10.054712707829676 -1.3582551789552608 0.046899235654699875 -1.0843167355257393
Ni 7.802107965097422 5.14490849119032 2.935725989463874 -2.1450729101227184 0.7868794376433287 -0.9406879709577735
Ni 8.444808305961468 5.177377819988185 5.255249113031763 1.8937802291171708 -0.23692098566490813 1.0082676177799603
Ni 6.360944152984404 8.958593178302497 0.90970524069726 -1.211178822158327 -0.7909847180609538 0.17253747718251575
Ni 6.781187102239951 4.364430618809533 7.6353340249381025 1.3375577985069094 -4.190370819637629 -2.9989108160644675
Ni 0.6240900085772279 4.957908689873881 3.2921490115205803 0.6179764718896067 0.29044338306308043 0.02278820153910914
Ni 5.446312016148589 5.612478031860184 8.47506912274878 -2.969557559713331 2.9530019693474947 3.213501770773608
Ni 6.107222075492887 3.62361257944702 3.226462354719583 -1.4697474679999978 -0.9766654174936469 1.1379072671576853
Ni 8.485924916458162 3.330202653985723 12.48517597320128 -0.07133654276145779 -1.2721013686753124 0.41645674854212794
Ni 0.2934388742445222 8.694290787458096 5.4092286248373425 0.9146344684038312 1.3064104263698275 -2.192957392508823
Ni 0.5753402576262998 6.145191673103506 10.7928571869866 -0.5129103980861877 1.157106980014588 -0.719627863584522
Ni 3.324076717922623 6.149095089680297 7.297171148274363 1.1951785900753287 0.7945222989005671 -1.4469793210655468
Ni 0.7382714802704287 8.066018146620712 12.747565876689395 -0.9243013020696339 -0.0425620417319267 -0.21157762180411305
Ni 1.5508610239014935 2.944474124988131 3.3895439242701393 1.3698122876652408 2.024817787283687 -1.943376809098376
Ni 1.0948056283014498 6.505109093444986 5.429989571568264 -0.17131594607058884 0.8928027172407204 1.3542956800868804
Ni 0.8652604539614072 1.3503206626894835 4.43973294079982 -0.7184528694398142 -3.5780623446670767 -0.481673294448777
Ni 3.4060017744494195 8.980388810575784 13.28333501531053 0.8897988974173902 -2.171462198749525 -0.4292940095161123
Ni 2.0409172323151776 8.430996934867984 7.3606838448383325 -0.24528941223426143 -0.09357555666531625 -1.0965168771363567
Ni 8.540367305555531 7.770460408210461 6.978757878592104 -1.4950576646300122 -2.2712125167669854 0.6998483669647495
Ni 4.461782575300114 4.921554621133563 5.285700431489329 -1.5359813994275677 0.5421050173722728 0.11556517356253002
Ni 3.898868816331081 7.649501185915738 4.4034591815871575 0.1262121117534149 -1.032576369728654 0.688326225257763
P 0.35437699676489903 5.74989136900732 7.273525595369826 0.23272725929853466 -0.16859134805057419 1.3061723422170926
P 4.142178670178761 8.13916518500831 6.877001971724454 -0.7579190458552366 -0.2476124039404832 -0.35218534015756764
P 3.7667409667018035 5.5383037785839555 10.212095102411771 -1.3596721139074455 -0.024654308213570446 -0.6339905879296759
P 3.8117423171409506 3.5202467466993723 0.5244931206391336 -0.41526504222687194 -0.41782843207867393 -0.25079800075731645
P 3.4471183849461124 3.5560872079953763 4.143351562815233 0.4894771067639119 -0.9433740024303688 -0.15546046709557096
P 1.328665105173737 3.02519453860008 11.328544148416645 -1.2777480254381286 -0.8258347358606035 0.5648700789829304
P 3.5716168294480224 6.339718158058447 0.3818391198965535 -0.7767346358998429 -0.5910696201964337 -0.4508912760709138
P 2.1411080372252433 6.295118355257583 3.739433859635161 2.7446109728014796 1.1551105184098494 -1.4683413316810905
Ni 1.2015612701815757 1.42554080748868 6.681365160858075 3.305104005762637 1.0354233522591458 0.630543767031656
Ni 4.559330636451249 7.5803602855937955 1.6875076852090243 -0.4961568327769326 1.3995913186998865 0.9884801507403881
Ni 5.156534696066172 0.21167723826818904 10.275156758256461 -0.2816946903361729 -0.19897407410748957 0.26433948688717696
Ni 7.561394163422825 1.2127859274191464 13.033122277411263 1.4958958442605914 -1.0594999335923752 2.17563587051124
Ni 7.419843951769663 5.305667621260855 0.5338687910771712 0.3769283514302025 1.5341823985456158 0.13213207678227565
Ni 6.514904988155644 8.06719477458405 8.308065459987093 -0.2162277189816147 0.2584154080932582 -0.46470118537081256
Ni 3.7464861567614616 2.114400450120873 5.85838580554438 0.4250920556196228 1.4856957637991381 -1.9533557746879586
Ni 8.278315449148945 2.997422383338403 3.291725051921091 1.1348653950075682 -0.3309086901669785 1.5541105049281105
Ni 0.21516509973094505 2.069809985637178 9.323115322840188 1.3486145705417032 -2.408956026198767 0.282866599157087
Ni 4.204241126086329 3.7777321660101406 7.531214589994887 0.0751749426709415 -0.54264314926393 0.5972284407089778
Ni 2.3734173534474166 6.508863096947069 12.243027806009469 1.7340838695633813 0.2898137198988815 -0.3700318814206853
Ni 5.97129353077568 7.198012227411512 10.346734025527889 0.37307966710807355 -0.33986975601500824 0.3632508539431099
Ni 7.984158458314099 0.9984061801621447 4.276952065062118 -1.8161383129629753 -2.0384016966157086 -0.7532897746133413
Ni 0.751140615161524 0.7385366884780384 11.46060009300372 0.24606768516118271 1.0477427930564471 0.1433055769005919
Ni 5.161007749990296 6.697272984156079 12.515695461374182 -0.6227216998840759 0.7887311461400869 1.4824654297872983
Ni 2.0692029950211697 4.851461212460345 8.608806898258054 -1.1101725202465784 -1.4743854809926413 1.3157898107021984
Ni 8.365283196947196 1.9974006743059591 6.410296225392755 -2.3857981000250654 -0.5809420448441285 0.5663952573782052
Ni 2.047099198281294 0.36891115360729126 1.2575603567510778 0.14656624992973466 1.5164014204131109 0.6305910753298237
Ni 3.4877960945358457 2.110198207394661 2.450690994192155 -0.32759376686113256 4.7724719177868655 -1.2606612451591708
Ni -0.25919526518447833 3.6913247172420505 7.889864800696485 0.7243144704269139 1.2138013473828386 -1.4125103407543997
Ni 3.0112804460177336 0.539404545495168 4.296305727395617 0.9226712226653787 0.9433410923099044 1.053928610152185
Ni 9.260463619119234 -0.18248192346990136 2.1125832135997156 -1.2850095920965483 1.5760463857692535 -0.37351444065264705
Ni 5.62961384386596 0.2540162344823512 6.575427555561984 1.4113805980253304 0.09857018166643024 -1.0983302761960116
Ni 0.14158476342668838 7.950549854821572 8.995599061581238 0.34125995149431554 -0.12496538383050736 2.3915992800878745
P 9.40415230540418 6.000559816784454 1.3541064164699421 -0.21500155988399744 -0.5145211942167331 -0.07428662652871723
P 0.1487379143784183 0.627166984084532 13.670440946090604 1.589216347492308 0.15444848089128882 0.09370179783053541
P 3.06138985594852 8.344271983316137 10.906120702102053 1.66189680587617 -0.20592016640801955 3.901687613798764
P 4.1745079242190855 0.3485125335825408 2.432294509368516 1.9750905952618891 -4.6297019016747685 -0.12153810331651327
P 6.069485935811501 3.9296852629899695 13.24428684206685 -1.1248126387572566 0.6835198050080552 -0.3675875336452508
P 7.34706110775167 1.0376551272249654 1.9715475432225853 1.1937369725327958 2.1118817680827306 1.9567874260773268
P 0.36979362457979575 3.1685377071497594 5.266115178890029 -0.2811125925804578 1.9077418335035854 0.7233791030968381
P 8.073386078867335 7.440967225206756 11.147585304477067 0.8620294406136058 1.3822628547237679 -0.6856106260988127
