# total energy = -340895.28596112755 ev
CRYSTAL
PRIMVEC
9.02873033835196 0.00000000000000 0.00000000000000
0.00000000000000 9.02873033835196 0.00000000000000
0.00000000000000 0.00000000000000 13.21445948823337
PRIMCOORD
 96 1
Ni 6.559020595350771 1.8007261279258477 11.462354395441638 -0.9042634095821523 0.6764778105596092 0.3980646191881854
Ni 4.446731034970374 0.3850365327294244 5.958174831595356 0.5959431462386511 -0.8415611454569248 0.3000883623520122
Ni 2.780198928621319 1.5550092270839975 4.698441207125059 -0.7257388615782662 0.8454072586758924 0.252904505577358
Ni 3.418512118248992 4.331939755260534 4.790466542852804 -0.2377223985202809 0.37065897348172294 -0.19507268217055437
Ni 5.0374989297300266 4.680511954077412 2.577863272136071 0.5596862207891456 0.6071850377010575 0.2220913768512433
Ni 7.265103436189868 6.1462450938740965 2.7903517360803183 0.10654497234179068 -0.04564530864294074 -1.8187340987146094
Ni 5.1452658571027365 4.560095775259563 11.327897637806991 -0.341378993570683 -0.08710306156709516 0.3850478952135433
Ni 5.761937179696865 7.930511846079397 12.36293324606376 -0.41311765686656593 -0.5374544059741388 0.6016965037826605
Ni 1.6498740985572777 6.563959310939986 0.451875321825222 0.7773478440038096 0.7559333828837755 0.6066556475601487
Ni 2.9284958272554324 1.569861488773685 0.4841512276539725 -0.8283006809025928 0.04593995706522411 -0.3820011379674195
Ni 0.4463452243875724 -0.0011466487748269321 4.6898774562359 1.2350466299148601 0.9837927725670477 0.2788268818700746
Ni 8.554171406088612 2.1784430688304512 1.451899318908576 0.8160398612573688 2.025027589301648 -0.19589620651311423
Ni 6.799058424701549 0.6929333977236807 4.531000691189643 -1.2797234039969445 -0.18691662872232326 1.1936382421714025
Ni 0.8521595746406914 7.487165063094344 2.7648618241032206 0.2173129816259935 -0.10553555724066986 -1.0149825679062907
Ni 7.590553056169488 3.9507918967619604 3.700299700353134 -0.2703607533805924 -0.9712673864065272 0.6001415005907148
Ni 7.603933634785971 3.736774868742294 12.66896658108066 0.4200514078719217 0.1073471565281119 -0.2872924961389246
Ni 7.837714553893009 8.970829261684779 6.72194494028486 0.3766128770723127 -1.0612994486949592 0.2650123445844855
Ni 7.133970154256118 0.610501991036339 0.5007523544435337 -2.072700727007895 -0.09754508283602555 -1.0012595618932434
Ni 1.5363378123883906 6.55658283811295 9.36507419666181 1.5989397454276593 -0.19723986502520224 -0.9285935016870847
Ni 9.141950791049306 4.832032109503754 1.3051138297619118 -0.9249214521521362 -0.4712204745465691 0.5126869692214719
Ni 6.357535445279607 1.885704539490187 6.997267951343522 -0.4425570451736055 0.3198922844518168 0.08202847525766518
Ni 3.4896043422882617 4.33789871739743 0.5237828402295852 -0.20933896228158141 0.4115413135183815 -0.5494424315739505
Ni 6.128286948888814 5.671839477933101 4.8765455566663665 -0.554370207892871 0.11598323493655509 -0.8722274641925302
Ni 5.259795303627773 2.7968208214910546 9.587724496795566 0.02791909500777127 -0.22184223695491473 -1.03552799615781
P 0.3090272620541645 5.581804977282911 12.382847014077607 -1.0686358344553726 -1.1202170489667738 0.9429507988500211
P 4.1564754065204825 6.118319230405279 12.496941275792038 -0.33217393003264734 0.7732019401562361 0.4618125509691079
P 2.3843342393907143 8.523861957765037 1.3034516404749386 -0.5300511715315323 0.5514818306014825 0.6247886097154337
P 6.203451130388297 7.833109901332681 5.631210190636084 -0.12634323801464048 -0.13864750930329026 0.6240563595350994
P 4.903747315948245 1.0391707668305556 12.765525242397702 0.25374602764204685 0.10960149977992736 -2.379073379706722
P 3.8907056952149266 6.149233603673054 8.09192749014519 0.4653712148546437 0.8035635831672291 0.4728487541786115
P 4.5749119220272085 0.9326859191903287 3.5177152947325423 0.5955816491341743 1.541036445352972 1.3618992034657513
P 0.2840474733509072 5.466002479755901 3.5117563325956467 -0.29239279347996744 0.5061224286300767 0.37390730521569154
Ni 1.5356967725221486 1.2224088525401038 2.5633676453015464 0.09628267118383418 -0.7580499150061462 -0.0723960943742237
Ni 1.7449917744848502 6.51348870738658 4.825181108792426 0.8095696801519928 -0.42308196716812946 0.08416069110931956
Ni 5.831422289705275 5.532670625845052 9.109190042392143 0.5895156454457524 0.11022010720053275 -0.10790174348000127
Ni 8.594665262427972 2.0664687530398718 10.164549323027932 0.9287613947235166 1.5040020183074936 -0.21999155689942113
Ni 2.200310654126757 5.246243179131591 7.087971480924536 -0.3020475429609121 0.09640711257684041 -0.6803084971596091
Ni 0.7897295146531458 8.957304223380127 8.804490250871638 0.43330955843340857 0.27419632507659875 0.6202511268563963
Ni 1.6698546791768998 1.2312660371708533 11.364990371363065 -0.5792258334839703 -0.3754209136467405 0.7168878389455396
Ni 3.7482052415685216 6.834306588614339 1.6119001609033832 1.171279671970544 0.24864598741132016 -0.6432750985553953
Ni 5.649556571033315 7.899976679493061 8.084315367451833 -0.5049340647489304 -0.10716409398302833 -0.5834820376571629
Ni 5.059763779168791 2.6824629208457167 4.953373733198925 0.7583617898196101 -0.17177745908803965 -0.2624188728256965
Ni 0.6359160616771488 7.268299606790568 6.897895034726376 -0.333307015195826 0.23458076756750568 0.4246670522670622
Ni 4.896515302809376 4.6677724153271685 6.75672541595721 -0.20782663940211304 -0.9900593223020497 1.0721664733164502
Ni 8.284483225741521 7.214614775175442 9.242087538267635 -0.767881042163955 -0.447958418694835 -0.6268820019093526
Ni 4.831409127098533 0.16519507065746808 10.422416186517694 -0.991729253805305 0.8142575725459654 0.0986246890534495
Ni 8.127590975661462 7.2564539123608585 4.681407604144048 -0.4227040150034205 -0.7740012961290799 0.6493971522927332
Ni 7.197613675624267 6.304961147517266 7.006967516530897 0.39940673503837665 -0.6004942559444433 0.36225532279906
Ni 2.297270191078461 5.152976392958659 2.517962159564502 -0.8172547075010763 -0.32473547147673104 0.8633152493045648
Ni 2.3304688331653796 5.334336502722034 11.581548987021423 0.900965455557171 -0.08345080952648853 -0.5046283605830535
Ni 0.8946289172157381 3.2213968737448853 3.849821797717515 1.37791203395424 1.169889990711869 0.20069414212238987
Ni 3.68211493423204 2.888327005214448 2.672281221449084 -0.3381031510328887 -1.362390541279873 0.05757008510498472
Ni 1.2539281507520785 3.30607733720238 8.243153308956893 -0.9710102760903986 -0.12507774103865557 0.7784061100649948
Ni 3.4184850320574607 2.578894353160364 7.255782174810882 1.9256148571292642 0.5226309678080612 -0.4985055355147673
Ni 4.159599347277098 6.750113676604409 5.921980456725072 -0.572717342941491 1.534566778468228 -0.19691410625466732
Ni 0.7795189233188797 7.4874539824706785 11.530726262978108 0.07679396633160322 0.6005845016654044 -0.23190759161071675
P 0.11808405772699998 5.343870842141068 8.052111691467164 0.19630629746733932 1.2591527789344443 -0.02386497954305567
P 8.55516456644476 1.5174406794300221 8.021824814969866 0.2529919230848417 0.9362872707869166 -0.6421114172645973
P 1.9254219250056488 3.404508557227287 10.603123519065162 0.3369777791791938 -1.650787840447202 -0.9199155142971125
P 3.9085013230510204 6.148502276501708 3.7236498031992555 -0.20708127659565626 0.656910687060959 0.48275701443125885
P 6.981989533573741 3.9483721969851597 10.330946117716342 0.5532551204518213 -0.5754385985273961 -0.1585265076154044
P 6.381804672891692 7.641159090680549 10.1656860401992 -0.4628312220416093 -0.9357735643752916 0.138145115745575
P 2.2353421285072965 8.464534169580881 5.886605890585135 0.8922890108290956 0.09015213280606409 0.044452830996736345
P 6.869789499520401 4.0402937023120336 1.6063890237998055 1.1220692716841643 -0.3671710149331225 -0.0016748165992616318
Ni 5.423341728094034 2.9832189628792594 0.3837165323287969 -0.311686865822889 -0.2828087493359581 -0.21929530216334492
Ni 1.4790234311080646 1.27007152090476 6.8259820990837055 -0.3793981531269337 -0.5576095407657752 0.38034149087680946
Ni 6.94811373669854 0.6535238919186249 9.236458124794371 -0.6411986756423409 -0.1762154402547352 -0.8995048118512445
Ni 2.905535765567362 1.6809509889742407 9.333557607068988 -0.06192861918399657 -0.5853761693560822 0.4244469658364561
Ni 6.3910049492818395 1.9528963519489428 2.4808829691041927 -0.7295168405634598 0.5025791913635087 0.5011553144327885
Ni 4.05450492413548 6.84217964161945 10.258966369467895 -0.18392694996638 0.008487982866353123 0.035671228149364374
Ni 8.112160875219105 7.181190414825762 0.0933597820971884 0.15245561883097616 -0.056099671207045315 0.5770087712279933
Ni 7.717271288883629 3.679325056504312 8.124421891252295 -0.2758672850211184 0.09506551094728144 0.04650842797418442
Ni 3.2449618603771553 8.283724812378644 12.35923327230058 0.1058500031572951 -0.2510484262052257 0.7388615150031533
Ni 9.258060265413672 4.772081338914378 10.404365045608154 -0.05174602222403991 -1.6484648487409805 -1.4946563154265355
Ni 8.457329242633543 2.203931175061447 5.778114859025487 0.1347738852804969 1.2424002420664537 -0.14498142194111804
Ni 3.74454860571179 2.647548819961813 11.6495371335112 0.05993807111652903 0.05521212639576943 -0.3298753638064577
Ni 1.0484432730647861 3.3741900801732014 12.71371116374434 0.26104127575187946 -0.35503720778406594 -0.5938250714543838
Ni 3.2231665049249325 8.471423090960354 8.040496229665473 -0.7932619441309048 -0.7406528025756212 0.20511978199391123
Ni 5.360808740578669 7.866669692640016 3.344778087662365 1.313951214831563 -0.4895089884431118 0.7826137203884392
Ni 3.045002565762257 8.359141798332418 3.7356616262703555 -0.49462316974122555 -0.583976203684762 -0.3689265641716485
Ni 3.3606198982159974 4.345771770402541 9.202074010391431 0.3428735758383385 -0.05953723613368456 0.34978418691524277
Ni 7.4657489143235605 5.8917522669760904 11.269000520068184 -1.7664936533526543 1.1632511452391128 0.3626049928289949
Ni 0.43757471556972294 9.216618392370712 0.3659136815082949 1.900034951777631 -1.6009850579924623 0.742393953636444
Ni 4.679311132919522 0.29749215595401574 1.4661042206206643 0.4043098287669489 -1.6828723796865726 0.500322534118848
Ni 5.989885538894153 5.592025500220739 0.319551150337143 0.37320873648677017 0.9375324560479272 0.2590031622759281
Ni 7.858227829612748 8.769479542571272 11.317352080570787 0.7530246938774128 -0.3023897567916792 0.012280360029249818
Ni -0.09927540632763411 5.00696376314369 5.717486933647826 -0.1124543958476902 -1.0012521056940755 0.22611978128434604
Ni 7.909492961451074 8.81600459089161 2.6043978082332275 0.5601883572365448 -0.4228140582187235 0.04532854873347032
P 8.5317801544227 1.6415857239486862 3.580087570844821 -0.7010310744189411 0.03436227952995372 0.16417265015758822
P 1.8109105359416333 3.200793310720042 1.5519195955033223 -0.23087683635335723 -0.08147594518830485 0.2564991649071518
P 4.834605297699232 1.0168698024697485 8.258244832005108 -0.44745731068870037 0.07145764172035436 0.031755438034725955
P 8.602366769553385 1.552174205703717 12.321783001016291 -0.08975438314701316 1.6349940679480552 -0.0948341116627657
P 6.514743700927532 7.693859790670037 1.4058600162896981 -1.4327816894089258 -0.34556860617199836 -0.325957002588658
P 1.9046648735621283 3.3451627115821103 5.964570784288958 -1.3067127881015947 -0.6315369841828608 -0.613484240446208
P 6.7248603173666845 3.8923579528983385 5.983732459051283 1.1262149184214219 -0.4413877074558527 -0.2902631487314743
P 2.3471629558791984 8.378932775611322 10.370536198131607 0.6877909215795832 1.1049243844737617 -1.3864779212463798
