# total energy = -340859.8516826431 ev
CRYSTAL
PRIMVEC
9.43309573648420 0.00000000000000 0.00000000000000
0.00000000000000 9.43309573648420 0.00000000000000
0.00000000000000 0.00000000000000 13.80628912226959
PRIMCOORD
 96 1
Ni 5.355564478826074 1.2875703638930447 9.087327226042111 0.46372416616952394 -1.5693736017347684 -1.4460154144903807
Ni 3.0088367243452794 7.32874165335768 5.881313337365925 -0.4226507931679818 0.7196790285374316 0.782945135585929
Ni 5.561988906629813 7.766220321193628 0.9307182495152205 1.5550381589487023 -1.710504025360912 0.8633281048203714
Ni 2.886281948216495 4.830584417565665 12.951996628337342 -2.420378409103096 0.27887573283013906 1.3786090600212644
Ni 6.337832708374283 5.036074968919532 10.818069130877147 0.4494427165498453 -1.0583118268215452 2.5637022408361334
Ni 2.505411286195574 9.408965595092907 13.300495736691301 0.850121119211794 0.015536405072702273 0.9920768669527107
Ni 5.060468953761668 6.822071230372052 12.006832536444996 0.8765536023717098 -2.266057712038923 -1.57249286409004
Ni 8.254128317322717 1.829784690546565 2.822778349625133 -1.2925210699822451 -1.7258599389916922 0.7151001509174975
Ni 8.077795464014883 9.01018148480624 1.789461037412504 -1.719343735139729 -0.2388050900614984 -0.5157578948373118
Ni 1.4185205949752329 3.564134754392474 7.291543184747285 -1.36883475424332 -0.3283267883724152 -1.0838955888279203
Ni 0.4244374133718129 3.5145732708810336 2.847657195573567 0.4896360009392794 -2.470878731845493 -0.12207674942880267
Ni 0.7561088227466986 0.5154215056376189 5.158526924307876 -1.295706666799078 0.01903130559983819 0.04931298730251507
Ni 9.058394035667865 6.8859615858769985 8.059048130111071 -1.5672084757626494 -2.2846051360238073 0.2949111890264469
Ni 1.911380966217284 1.512059169489782 3.458447296243668 0.8218772938747523 0.049439485578050335 -1.286624759102468
Ni 4.231875282242556 0.7123194503431094 11.577704988013823 -0.4596618231746923 -1.0175212751677443 0.08131962211609867
Ni -0.2515938620721415 7.788878616472364 5.59410105017181 1.421005008488972 -1.7961559563037777 -1.1599238806380927
Ni 0.002518636486021048 5.01317141315901 13.846465378644767 0.13557915479061167 0.48830776904615897 -1.3204206246059904
Ni 5.250809953817596 0.4883805942112971 1.0666812275212723 0.6830138119059139 3.3830313143677353 0.03961658595035757
Ni 1.4546021850839612 5.683883366076871 6.4784763883442436 -1.4373034885386795 1.237242352014598 -0.322265926890316
Ni 4.4487704459994175 8.822340255045427 7.311699823111816 0.6831025149649784 0.7575215533065018 -0.25456518110923254
Ni 2.3062880742726595 2.544634097090239 1.0198591149294591 0.49642448461602245 0.6364974135119296 -0.7231808710431029
Ni 3.5523528181713493 5.176788453795846 10.551980374331523 0.7042917474480839 0.16241915780159125 -0.1522974959865571
Ni 8.011443070596636 2.3749421429815025 5.268024409710254 1.5211368782155674 0.7194705120710512 1.324886373686828
Ni 6.917788849936306 8.157231560826807 5.486066637874233 -0.3299936345518768 -0.46782481860145886 0.7263690389630975
P 3.379689438994835 0.1733576550018742 9.184329633207097 0.2665717186518054 0.2571735652663571 0.6698438501828593
P 3.511026426990607 5.1567902914349295 5.919073075155789 0.5812886295502699 -0.17936015653130402 -0.9578451994633503
P 2.8331547546237212 4.920396919376175 1.737659193730914 -0.10077464551691677 -2.8077053301588033 0.3559800313133095
P 8.141846182142535 0.34119317592540865 4.670957576305559 -1.3321230006445832 -0.85019311010031 -0.531190170231982
P 7.521365462513297 6.793271989953243 9.839313786075733 -0.9672127567211795 2.221528776388613 0.2320358896584649
P 8.885457096723206 4.7516011093355 7.160631629356455 -0.31934386814751453 0.1833422811075036 -0.0692853166593839
P 0.4224970256370768 1.7219644095157762 1.4341144450690206 -0.4131649651647336 -1.0315402151546558 -0.09454229145395976
P 4.829122287770409 4.711038798886471 12.408829559043042 1.5777564264818247 -1.1871518631161102 0.017852711910704738
Ni 5.8816010467772495 2.1976093815556235 4.565408784659916 -1.9509628489757496 0.22526283260068947 0.12753340166799973
Ni 6.649219189286473 0.6087638717667406 7.057746743866813 -0.15595900399854432 1.5086667707730146 -0.8364824453824368
Ni 7.37306776889256 3.895359035042875 3.46565418116996 0.06362708993234203 0.6859847216087798 -0.08254141033834171
Ni 3.177349541522358 3.0293442738606715 5.253471973354506 0.20475854199975058 0.2924696694644898 0.7234320678219606
Ni 0.9900693994880566 4.091548554279826 11.362754928539424 1.9627184468497811 -0.06572331033973841 0.16294083463301617
Ni 3.4206385063574474 8.909190764883615 1.567538033779054 -1.3514546110936596 -1.0320811752597903 1.0474789978720993
Ni 3.1363533086824797 2.586120850893687 8.347350883139582 1.666597553785949 -1.0213200800885445 0.5701855776585728
Ni 8.711756077046832 6.931495137629895 11.625102519428282 1.5622195071884901 -0.24600520735436343 -1.6078349910347598
Ni 7.8700881352295 2.7669627238281795 10.150452176577504 -0.40980761865672644 -0.8106747402907135 1.0192508562643414
Ni 3.171670818059494 7.99855746220748 11.3242905385192 -0.8664113717313853 -0.20759729700012633 -0.8266274069652281
Ni 1.6831755210119612 6.560019838680424 9.565784203836577 -0.7212859680132352 0.6388404598228096 0.9034861650964957
Ni 8.07868217498749 3.264879234233179 0.8002689158016009 1.9828519843748627 0.831020393826601 0.12301365942077525
Ni 9.092202249772358 5.259026179957387 4.8566659831843895 -0.18265836766660154 -0.14114070803878917 0.031234018313617176
Ni 8.770844986966068 5.147696787417985 9.964481529645074 0.7745923927458596 -1.2270450997666225 -1.452820867447988
Ni 8.821745970031872 9.099984553521297 7.406963710784767 0.11742176715529455 -1.3521714346550262 -3.5864127735143008
Ni 7.261134658244148 1.1130958303895042 13.966303423283012 0.39594962972771164 0.26189051112605216 -1.0823413569669231
Ni 1.7840058783118826 6.5541807525948546 1.0916411980906044 -0.44037315014840933 1.1172098867093339 -0.1923509123640171
Ni 6.8183923231452805 5.4562061742169305 1.6653422540575686 -1.1139142466771976 -0.6725571353489643 0.11570298469197492
Ni 4.710501112445635 8.730518503903372 4.917731126601083 -0.7618523194713718 -0.2205217183712783 0.5465121453010331
Ni 8.499501996252977 0.6691479456917089 11.648889956232775 -3.8622006114477356 0.36319686077672286 -0.10151075235199292
Ni 3.2432774456452083 5.6742710418099955 8.052407230911973 1.0812247268639765 -0.7209218998055971 -0.028678341771298996
Ni 1.654442312261324 5.168798621946933 3.5965383805839757 2.573489145019568 0.7500013336700567 0.6946141151490036
Ni 0.26629722795514155 1.8846570067981918 13.005413417960533 -0.6131492257042924 1.6208031211596536 2.101065394193517
Ni 7.234806888834093 3.225675289529421 7.887049784164011 0.8140382574463079 -0.38511628655763347 -0.36798451197335336
P 1.6780627832762929 6.723353886453662 12.323507210668286 -0.5979362654092799 -0.11067544957039649 0.16391631117240804
P 5.046970194168049 3.98064365103582 8.95336406427215 -2.737510614311273 -3.0817635869956406 0.8311574336250976
P 4.625197630261783 1.5926838363288154 6.643462171131347 0.45469830852182985 -0.5605961341979249 -0.15299015117820747
P 6.36254741846183 1.4074084085312897 11.704998951298325 0.10933924725747622 -0.06921641109466144 -0.4540223655007278
P 1.0155859226891313 2.7816406203534556 4.993210039870362 -0.685665133485832 0.2827215889387905 0.4453423212282266
P 1.9559806415203085 4.30134059716038 9.3096360432796 -0.8440139778727916 -0.3225700883942961 0.4878627110889404
P 2.0899966286248066 1.8006835910732504 12.123150149860082 2.6383992154293914 0.3855042660246716 -0.6804411660827314
P 8.557958888776843 1.3039462175999081 8.447639780760486 -1.0521208675194849 5.388933495693841 0.409730742672204
Ni 1.2132375717213375 1.2029177652954683 7.535817908057241 -0.02929926318474954 -0.3685218725340621 0.8733222399186057
Ni 2.6722638785728785 8.418179280350403 3.7774557182820945 -0.6826433159403728 0.07859990919209045 -0.1647290368816905
Ni 7.029231439621147 5.156252604994094 6.002159779908123 0.848635535805203 -0.7611887177454439 0.10279861792548102
Ni 5.237716817328468 6.37541416066008 6.564324160135747 -0.736391456196106 1.0791110229550835 0.14159707884991743
Ni 1.1198593598294935 1.7880432431658788 10.126043098782642 -0.06219652813340255 0.39557450577648007 -0.5706514615513978
Ni 2.817533548553119 0.5648282863836258 5.946037578508939 1.305541393501313 -0.08769595795608767 -0.12378267637631585
Ni 3.79197230887512 3.1320612502512457 2.9536068937759734 0.10599707025812069 1.0620298991030805 -0.9137080999348199
Ni 4.49761501425641 2.646643591321818 10.527171333289443 -0.17767274152655207 3.265722418641221 1.559585926220385
Ni 6.162839354620814 8.70136080585734 10.457021175641714 0.33900329424965486 0.12165663117224855 0.48963240139485353
Ni 5.151649254412901 3.696632013128997 6.737275248723586 -0.5067040121651596 0.517205940137748 -0.17075184603700272
Ni 5.318086790590263 4.655157141421345 4.142204276863844 -0.7811291654231128 0.7792273204147097 0.7015802620541917
Ni 1.0241134409788804 9.31291781718779 11.64582514352001 0.7696425049397518 -1.9157927288325198 -1.184575617748502
Ni 4.328423014206696 7.522318205154077 9.116982991528078 0.35655904374523106 -0.923911265720067 1.150604917230012
Ni 6.756775343644571 7.92722439438991 8.134085574513136 -0.5740928831327791 -0.3760269226618556 -0.1278632742035927
Ni 8.81155822694235 9.151734515177894 9.626890852873265 0.40762809450690446 -2.6231787989352116 2.347803108838531
Ni 7.274359858069622 8.317282891382307 12.765915614188108 -1.3313583545644168 2.262002053912311 0.34447665865940025
Ni 8.963034873730836 5.438943609537461 2.4312596094565695 0.15542935674731942 2.302269900293422 -0.23511555702505316
Ni 4.53303628768341 5.650075151972378 0.8420396057781918 0.8143894701381394 -0.20392987545086816 -0.6802102810188478
Ni 6.222767810035388 9.487807406891275 3.5032356334557577 1.265462523202556 0.033250020302381444 -2.043151038375236
Ni 7.043428248278307 6.154264670853798 13.068618930735571 -0.38822192206615075 -3.091020072596902 0.46244298546425516
Ni 4.533564541028793 2.589205473106903 13.186041159628235 0.34736015085478245 0.523480203182234 0.1902886305183497
Ni -0.015691954286501924 7.749174717709583 13.604178208546813 4.762009584802961 2.895993670283251 -1.8236785872040786
Ni 6.281507695422853 5.3920328258483865 8.702835198676683 2.318525442920336 3.4706131153434616 -4.238069668375489
Ni 0.8140921738788115 8.966874143580313 2.117042256598855 1.8017542763271615 -0.0009047712024565063 0.07994485325575909
P 1.3025972849500915 8.040959226269894 7.810493611393969 1.6348732260994747 0.35275406817684407 -0.8753359279145249
P 8.412198697833034 4.0745972817503135 11.870812959866225 -1.3743626260400847 0.4372754850596921 1.2344920429629707
P 4.117555598444469 1.0643361599915913 3.302726699810759 0.610359321663981 -1.2307225486182094 -0.26851033043541495
P 4.763081186502119 7.44882495847771 3.036652092908314 -0.05474110029662185 0.3949510132598682 -0.06555464597235808
P 6.118928295285876 2.957030164115962 1.0129578622958524 -2.2423449418030157 -0.633565070356483 0.31349435134527304
P 4.865015215970072 8.53895120143852 12.878271327512826 -1.0699098160717897 3.2703339492713033 1.5069626435977144
P 8.14038405234728 7.004224303574548 0.9426765846213213 -3.3612836382779983 -1.9285029773103366 3.1145328110068617
P 0.8367127367757347 7.130665515030078 3.510083117445281 -0.6558102549079287 0.6591807140420582 0.3451973388755087
