# total energy = -340882.0975816171 ev
CRYSTAL
PRIMVEC
9.14096208171029 0.00000000000000 0.00000000000000
0.00000000000000 9.14096208171029 0.00000000000000
0.00000000000000 0.00000000000000 13.37872198919497
PRIMCOORD
 96 1
Ni 7.01969216623267 1.6872570694868059 11.100740518310797 -1.1982441163745297 1.8757480542058083 0.8725054004442652
Ni 4.630857113301206 0.42478873644458515 6.070434329649642 -0.2677127742347841 -1.1895213917895513 -0.42870728377470685
Ni 3.1093988146932063 1.761691924005833 4.622776502789746 -0.6762965477867385 -0.11262306021507056 0.9792614603555976
Ni 3.8865451319594033 4.430240417718609 4.979346238954889 -1.5616708337738718 1.2870487340137642 -1.3073095411453293
Ni 3.9053389500720304 2.8736259788084872 2.5180096449921514 0.245644481580835 -0.3968847399474713 0.4013412330569282
Ni 5.449009786624429 4.571431718578353 2.617105901206731 -0.8704958262134042 0.16641439500391342 -1.721942349104841
Ni 5.400974030699403 3.0258047161329085 0.34265353543816657 1.2690949777488207 0.29403984216508716 -0.2581025048385297
Ni 5.942000155520434 9.039104376166227 12.432070461269287 0.7443436211636472 -0.8182247847238295 -0.5402065147979793
Ni 2.435161448940604 6.714100661698028 0.4291416626047178 -0.6644321922489846 1.5234938084835181 -0.9432999546593237
Ni 1.203352816935135 0.7642575606811762 0.3735764961838889 -0.5513005678286118 0.11836047691948004 -0.4231958670381744
Ni 8.559633490241318 0.23658638151313513 6.941469297012343 0.6519890813896255 0.25674959035506106 -1.0384287147443727
Ni 9.019396461841897 2.5287374781327054 1.6275080847050094 -0.3403127570896977 0.9968370073455154 -0.1265566395770272
Ni 6.830200021546506 0.9020319699015716 4.588500637139496 1.497748066977982 -0.6580311738186473 0.821314993613379
Ni 0.82480455145579 8.291373674992652 2.4228595421234966 1.1286204425391209 -0.29785201682232576 1.6728710454994868
Ni 8.057849515788725 4.014189526961699 3.3961480540160016 0.4847840721636167 -0.022519264148438637 0.8754076616927245
Ni 7.818648819110117 3.9533290011864715 12.319220713453415 -0.5392572635108326 -0.46077176840941936 1.165545340589928
Ni 8.210914926438498 7.703417850662757 8.542019770338001 -0.1508579353265531 -0.44394955464575797 0.6939831664332241
Ni 7.424252867608466 1.5508739147006234 0.14335313840042274 -0.1653890390631926 0.027090171348572698 0.1323141108860947
Ni 1.4662925922316858 6.936399719422235 9.698462997880927 -0.048723690457948346 -0.6172385652823176 -1.4565749351737818
Ni 0.5742032468248147 5.4515509740929655 1.1102155539246514 -0.7141280168122153 -1.5874718539973758 0.48027332877745676
Ni 6.438281270778573 1.9974464779663177 6.816619294129225 1.76589690030892 0.20718900581811417 -0.3477306468203237
Ni 3.4978165769703153 4.782743339837883 0.5392865997301591 0.6243489510748538 -1.7607037861437547 1.0552946372617762
Ni 6.299877963364525 5.440810343605447 4.425039210274016 0.5666341128618887 0.19417331028473656 1.7675886861890462
Ni 5.445892718542519 3.5704598029144035 8.410881699614574 1.5066489690120377 -1.3828783768205797 1.6525734715927154
P 0.22904965824763865 5.520044203235918 12.446479359854374 0.2163796711784467 0.44067679743175725 -0.8007633947142725
P 4.256662688078206 6.094133188034271 12.225984728052067 -1.2755649017438808 1.798405928680219 1.0648128611648566
P 2.871121355188419 -0.43674877127851547 1.1094797064742299 0.31289245609521593 0.5034744494842683 0.5989749910864395
P 7.053979915133674 8.218657321351628 5.984931598199307 -1.2061937102389098 0.372408609182978 -0.1288886301443135
P 4.836473915161823 1.7126049574373476 11.895570026792402 -0.1561729197815633 0.7013861437655147 0.5874006559852787
P 4.028696233841436 6.419030404560094 8.078166218190049 0.794499930303064 0.36870082131408755 -0.03234473487929268
P 4.9308360670959885 1.0884600640861049 3.697329958425386 -0.5123326712058467 -0.8505142408851547 -1.623826738477326
P 0.030214536181651992 5.927328911322591 3.178717472715328 1.636259822034356 0.2907488301186412 1.7319118016127268
Ni 0.9953867878104407 0.217016495716772 4.78348192957694 -1.2822284298069853 0.4734128542121976 -0.9646408822289451
Ni 1.7298448119900782 7.004381054686635 4.764871844802864 0.4132169014485915 -0.18708657864128425 -1.4912583454885802
Ni 6.885292600225885 5.672771398287362 8.626078229773844 -0.7942502761861031 0.5100983825586892 1.3240520507109907
Ni 0.030975978326001123 2.771530572923308 10.479245589877284 0.28560790934765 -0.3912792208352358 -1.2309333790774348
Ni 2.7640715478358064 5.0815156866332165 6.984522314487373 0.3419981152119207 2.4619996841883083 -0.24661790123769783
Ni 0.8729170914625992 9.230177907298637 9.120301714459437 -0.9781306891852638 0.8174871352268566 0.14140861698819518
Ni 1.9081484190449896 1.5873280716233644 11.563924952031783 1.7174406045797455 -1.4609635511597807 -1.3766105415339969
Ni 4.992190204825537 6.920302485134134 1.6455294915187468 -1.0462135008961144 0.458675548002023 0.051835753724368785
Ni 5.828688789117652 7.890862419834703 7.818418466864768 -0.8442698026373394 0.329658105589329 0.30047351360557284
Ni 5.407528100537318 2.893690390655382 4.771146201199999 0.6758769437508166 0.023183380094998783 -0.07791471019960776
Ni 1.037224971420116 7.2155098567038225 6.885774328929453 -0.8686353759658976 -0.01531683286272846 1.33027694857478
Ni 5.393551569460369 5.100355209556429 6.808699564551025 -0.3489444646227668 0.9775434492232261 -0.8115951952224538
Ni 0.8389730427371963 7.595170577272812 11.820434974575209 0.8420216300331111 0.3906233324187917 0.694940645250487
Ni 4.705840425547256 0.20871193163344448 10.122595413245511 0.8787678364142092 1.4276345979903478 0.2574183342873115
Ni 8.307626305636742 7.5856091308983915 4.257537478152806 0.9937889645478111 0.13802684500015583 -0.10855711767581304
Ni 7.710703197470034 6.243249703049484 6.393383607148325 0.3504501026340158 -0.6351732953838675 0.6432897538434146
Ni 2.2510167670929064 5.830882620025741 2.6791026485731066 1.1937886517063374 -0.06261561794869216 0.6604104726841014
Ni 2.1511426150021675 5.463324533299708 11.377987727512934 0.21301229736811056 -0.21029232733378622 0.7943950292940835
Ni 1.5137159036948706 3.5401300906100768 3.687590263289684 -0.7348572789397666 0.5002297172947255 1.5762628726554337
Ni 1.7534650581005002 1.4047282123734461 2.581932393076587 0.7097892802275454 -1.1144410657149453 0.6633235325658383
Ni 1.5733423995842988 3.8092674382219784 8.316896155319629 -1.9337287444856504 -1.224151323158595 1.2876814825017566
Ni 3.736030049740283 2.568454958531228 7.01271121346389 1.3258734201904456 1.018844364854542 0.27197334928335093
Ni 4.0749129383051725 6.949471295249597 5.801509052358855 -0.17333631893472726 0.808966499350355 0.33437633700060476
Ni 9.068264045319573 7.873622565281973 0.5117147156965424 -0.6086122570658873 -0.06183451680829351 0.6661358052036528
P 0.2427364208254772 5.841138779521055 8.342194682074739 -1.008721160377611 -1.558698381409109 -0.986081054380592
P 8.847902871564177 1.9307265954740693 8.225265322866035 1.5055567643891232 -0.8082630455254274 0.028825408872124546
P 2.3045188183639205 3.5051202057018274 10.439095741970625 -0.6738509144597233 -1.4979707245117493 0.4739432727943708
P 4.2602550861902015 6.387155869657988 3.7029489078387283 -0.6381087238631075 -0.8583185674209218 -0.40684313671176386
P 6.848116307295897 3.8003092953472826 10.351224587235766 -0.3166059003910612 -0.1882299482171081 -1.3588984689662147
P 6.397576566471409 7.813246510498948 10.147667244140118 -0.23530067645266575 -0.8258198234622681 -0.3084519038253591
P 2.4201885529928986 8.686482621539433 6.064521041256131 2.186499038477989 0.3238412417972358 1.028427894777919
P 7.249038905749113 4.102920846231772 1.3245884833971766 -0.2606970050385833 -0.3268993118972693 -0.9237888812095896
Ni 3.3019988864991627 2.1999279298207903 0.2323513737643122 -0.6591084660432261 -1.0477553914619375 -0.4403412684692094
Ni 1.5991656175649265 1.6345868457684425 6.873880109022765 -0.8971535380102486 -2.318584064072413 1.1065794035786813
Ni 7.169667931686885 0.8313695904482455 9.043949086088256 -1.0692860664448616 -0.39024460892313434 -1.3691833958319906
Ni 2.7385134177565726 1.5277015757339363 9.147754765985532 0.7190776475080067 1.3390860622259777 0.498317073653045
Ni 6.515257312766136 2.348249181131822 2.4940877471318674 -0.4336214332468725 -0.10733430101230548 0.21989411208960838
Ni 4.09644904505291 7.13070001018196 10.152242295679695 -0.03198298066449976 -1.471619745322046 0.5807525545411417
Ni 7.722942945744745 6.974992861480362 12.374380935252459 -1.8248872628001989 -0.8090534026372067 -1.1607294072585235
Ni 8.074559194538667 3.8108671065924598 7.995672691468643 0.06660365606216272 0.960313715608501 -0.3231868960426886
Ni 3.6864311892932435 8.291035459394323 12.439268054840243 -0.4719031024358905 0.19929006268601163 0.152867252447098
Ni 8.713357050163518 5.1398441659020255 10.377513080188152 0.09035345018359278 1.0487334391044907 -0.6586667505201174
Ni 8.73046893124661 2.6015726642812513 5.691897033324837 0.1727904737335863 -0.29222258645069027 -0.13422675452777527
Ni 4.219632650542091 4.1074639044039385 11.662138191305855 0.030551904644928022 -2.5959004228352325 0.08115867105820215
Ni 1.1213949505937868 3.3394494082926602 12.802995164343026 -0.08934943439911064 1.2545294212298201 0.9462340975869833
Ni 3.032651296758569 8.432756936056853 8.340496291313395 0.7201063458828373 -0.24875705906788773 -1.5312927357026467
Ni 5.984459924554068 7.721187881018275 4.126893933479911 -1.3544800281835447 1.4834609609313483 -0.5283611854236191
Ni 3.2781044115252294 8.593930380104439 3.233449897487295 0.9675739967153402 -0.25159247163415377 0.47840079434509225
Ni 3.713360463690033 4.66027272939383 9.360556364070138 -0.06803781740552799 0.9133635721112076 -0.2623394257380127
Ni 5.99827191831291 5.706812341211205 11.022287296845121 0.9326722997421485 0.22723049785002156 -1.4961928066757197
Ni 7.692183608220919 0.35124421163575736 2.2513047073995933 0.3806651927648154 -1.3364002878636985 0.040876169389071536
Ni 5.235732858509737 0.40725271471926255 1.4057556565154008 -0.8292396477770945 0.1623332829560043 0.3726194396422034
Ni 6.044068138519262 5.492319665134947 -0.059270912463075476 -0.026698849447424986 -0.5439500410008116 1.5565764499701
Ni 8.126699242454242 8.810644309975137 10.919070294908183 0.8997647503808504 -0.8936753496536609 -0.590970375614408
Ni 0.4609357570401937 4.961467431150178 5.470666554072111 -0.045616769397850476 0.1734399343921271 -0.10413199202492389
Ni 7.262183609273411 6.287885021066974 2.1726640962105175 0.6700971038442459 -0.21202756485733806 -0.07551972760486994
P 8.823789013499436 1.599540397011725 3.682479551370049 0.06320800011705242 0.7565969846097034 -0.4397028635542621
P 1.9870806269255985 3.369550596544061 1.6837926448444491 0.15651050562664015 1.3079124648366507 -2.5372687292349525
P 5.058672422302743 1.1426385465537794 8.099879659602857 -1.3581091402956997 -0.3050662751825778 1.6651096563865129
P 8.999085244017841 1.222759079509603 12.056529572326449 -0.13333098218638328 0.36107004424170713 0.7900094986318782
P 6.862632155137751 8.00120297354945 0.8376750261165772 -0.5160157764843887 0.2894277973143725 -0.4967060204121833
P 2.014092169981441 3.4369743331193217 6.008143243303098 -0.8387164769192781 0.06372916272784508 -2.775963776081148
P 6.999463217067669 3.959325472335247 5.895119817207002 1.0578161181320491 0.34306255192069307 -0.23767714710464224
P 2.4429312667400853 8.588537212455387 10.673624492911214 0.2858506214860755 1.883971727667181 -0.939691411372459
