# total energy = -340891.2423596894 ev
CRYSTAL
PRIMVEC
9.04183522085787 0.00000000000000 0.00000000000000

0.00000000000000 9.04183522085787 0.00000000000000

0.00000000000000 0.00000000000000 13.23363980843919

PRIMCOORD
 96 1
Ni 6.0757876507877855 2.1747150418839785 11.398504368629427 1.0151144654984647 -0.4461100526321865 -0.3937459372081735
Ni 4.757940191545445 0.3312322561143219 6.2440815182964355 -0.7787308403942653 0.33243463989320166 -0.49323451692381504
Ni 2.7925074638406997 1.7156520343149024 4.538370981624326 0.6569204572529719 -0.18376239936405772 1.029083526084047
Ni 3.452226874946695 4.549806190418177 4.667014594050509 -0.3393208254900737 -0.9311761748125963 0.8325597132892629
Ni 4.926082156225175 4.608532909099336 2.663362933752478 0.27343579276149044 -0.09657243451011109 -0.2851561665222121
Ni 6.889109755805334 6.051501281830497 2.6275527460178 0.49546366336465 0.5964784499168307 -0.28856493509344494
Ni 4.98233141210131 4.5891020055664935 11.165936616633475 1.2033238448902825 0.08848271552344117 -0.1300340566026664
Ni 5.73988347850063 7.642918502491953 12.495070094391261 -1.1306742397443559 0.4087272411083542 -0.8224213393036803
Ni 1.4251649995081879 6.33428467317049 0.7395398267865818 3.0669743445016087 1.9000537208307082 -1.6871807772539393
Ni 2.682486414893456 1.5091907726727785 0.26415269020950494 1.0934557217125298 -0.1790876195962077 1.5438286633861282
Ni 0.4586000656142685 -0.02562003962787767 4.836418798903894 1.2519686024811794 0.7564612303627875 -0.3901209388610765
Ni 8.705822380528138 2.6887524065864574 1.60632539829987 0.044633836659290875 -1.2516572418883476 -0.19853750079070323
Ni 6.887030133742721 0.6151494935701927 4.826850729048867 -0.9572494748608804 0.7235449392507409 -0.5620148689223224
Ni 0.737182620387786 7.388264260007553 2.5956061344020536 0.31446314301644557 0.7894860220282403 1.110180233556062
Ni 7.458745364259999 3.896262352654634 3.904982298381518 -0.14770833395397787 -0.03246326273502796 -0.1294946391594286
Ni 7.643741309481943 3.679954532637794 12.795646008752161 0.6335948951531539 -0.06078936337323079 -1.469818173336933
Ni 7.970757357910195 8.857689042109163 6.785932471811096 -1.186203640270228 1.0441126525030278 0.7136875868406869
Ni 6.814044441180086 0.6390922727953983 0.14927979257183607 1.3612548850135329 1.0838464807575399 -0.4792225189154392
Ni 1.9628738883842272 6.69588574068349 9.335565395876836 0.23400149802526798 -0.7124290318432376 -0.4278130540952116
Ni -0.20751734797652896 5.0682559706274155 1.6795072986831958 -0.33533150182502247 -0.8830860041735888 0.4304828876178909
Ni 6.354601676538707 2.0520082983548 7.027737362499068 0.490857017830574 -0.8981238723433177 1.058397701667132
Ni 3.51674036806295 4.227509979888549 0.43807690840680186 -0.9244902781519885 0.23765400717619067 0.1620597175796435
Ni 5.718011279502982 5.693101023926908 4.728048789037663 0.8329047553335076 -0.3467657118038931 1.1160037822163749
Ni 5.578423429926424 3.331473167789361 8.936610699385298 0.277803839922199 -1.6231302266309338 0.6506577641727117
P 0.12811195252495963 5.471784027289689 12.724356564445813 -1.4221293519014024 -0.9814260721070841 -2.499263196525457
P 4.076692171173885 5.979781446175537 12.53798716447904 0.3167491108371448 0.07175820367990868 -0.22788767181804626
P 2.351654712072063 8.552527109008448 1.4516774682559779 -0.2988832863003175 -0.14333848702105637 -0.42804368204877896
P 6.210040817681989 7.652105006907666 5.967815481663967 0.2399312332461416 0.33521065997644206 -1.333898347377451
P 4.702965834412042 0.9175654213647524 12.61766652753277 -0.12899430248424237 0.3911799762532102 -0.010031930314705303
P 3.9178361710954728 6.012313968702837 8.38671341685534 0.2187831384136168 0.3147973864274127 -0.7861227619829623
P 4.84118836689532 1.046113190339355 3.7328131003683644 0.16078959261796824 -0.29079716685807333 1.0211652996782348
P 0.08944454491295369 5.714204666944896 3.8149012082807037 0.1132324116642953 -1.1609646631977812 0.23947871908975532
Ni 1.5219759274403164 1.3193755293666072 2.566267188016122 -0.6335948951531539 -1.685630659158 0.14854239981949902
Ni 1.9205128911523206 6.647331086439021 4.825725924768045 -0.3800740961480357 -0.0029541975323174926 -0.051253913078969794
Ni 6.1423445986264325 5.670523561794983 9.061006457702721 -1.4259320134769442 -0.3912162288077843 0.2933003928959013
Ni 8.79822993478856 2.2392647023404524 10.192033329409051 -0.8596812520964033 0.002445376216699014 0.27510366738221653
Ni 2.357115980445184 5.200935858222079 6.87451804239384 0.061355263179029805 -0.21895925898016483 0.9657109753646722
Ni 0.6017919906436835 8.89872088958801 9.204234550072355 0.5511177623938444 -0.04904019325710264 0.2506704740405167
Ni 1.5628721473933394 1.2404493511729442 11.54427321664947 0.16405077986774327 -0.55707526552886 -1.561329648384369
Ni 4.103248040729939 6.597881290524122 1.3412160819415635 -0.36835835037300435 1.5143080282191919 1.0770029754731452
Ni 5.827164312284961 7.974211338901142 8.075127259948166 -1.7232903784923028 0.16024374741682726 0.08489602661344733
Ni 5.2437489472067265 2.852373453738769 5.053887590541775 -0.27479770610602355 -0.02801422582473885 -0.800832557389311
Ni 0.5788248254208948 7.455734433186739 6.9664789300025545 1.6436160052891113 -0.7773902672059708 -0.5099132631310767
Ni 4.9432887683345275 4.608451532583843 6.979395191378387 -0.36064915465420466 0.3241109505188547 -0.16821082478270383
Ni 7.901605403410809 7.131195847563512 8.817944751942125 1.833317138735107 0.8866886339231828 0.7532604640373027
Ni 4.509271643867347 0.24914776493600466 10.561913101098257 0.062033005972344776 -0.17065080168276414 -0.26677612135312767
Ni 7.928152231131808 7.377314597756146 4.449638933313693 -0.6984962238122293 -0.47739137924397135 0.7179782437962409
Ni 7.192725535111671 5.921262689700638 6.845828299764846 0.16383300742998239 1.2600194978101138 0.39242336174200804
Ni 2.268108156165379 5.3736258659343905 2.6761200588313456 -0.2521863964644109 -1.361666518629655 0.07155302964763807
Ni 2.4894341946376537 5.137172837415375 11.274862699355577 -0.47082606732162785 -0.38765165138497754 0.36507428030509387
Ni 0.8480373265270859 3.3719715469999714 3.80749052026976 0.6129131984340863 0.8808969669420699 -0.12257271522861471
Ni 4.032803103817712 2.500727446621144 2.3561702044984485 -2.2061142416057558 -0.16093897371163896 1.0692403008085907
Ni 0.9915637994535298 3.2757212128412427 8.104532211729998 1.8231039456475313 0.3871870530437332 0.08507471828315671
Ni 3.612421066613224 2.5577090911367195 7.116284053191076 -0.1932646824275381 -0.09334647137364568 -0.8209496398541603
Ni 4.071303237481203 6.965486136513533 6.088718379099706 -0.2020156891472908 -0.0013806823976105253 0.5146140110408557
Ni 0.8730624134083552 7.213440379222299 11.484602530388587 -0.5607303457829439 -1.2234129023306737 -0.18488031501858482
P 0.40376043182318294 5.750589011205555 8.161159416311424 -0.3954773180769834 -2.5422345578806604 -0.1018712210152052
P 8.424648435827905 1.556985912772641 8.077839810464617 0.17020111573985525 0.37562943011312083 -0.41953924412219357
P 1.8029961609446177 3.0343765515575614 10.421252889884197 -0.16435854091614918 2.708401098539826 -0.2671923829549398
P 3.929002837388195 6.445788583066728 3.661231604789745 -0.5604590943994283 -0.6603742201295272 0.18345978052197434
P 7.106873311266003 3.78764278814089 10.409832148026435 -0.28703050072678954 0.9742912608345158 -0.27895569413845506
P 6.407749582991033 7.756619578306515 10.269225283639196 -0.7039112241802135 -1.0286526091942154 0.9305051168875008
P 2.3427485045430503 8.48413466865367 5.99556668181427 0.6303550480596176 0.45286279797498785 -0.20554092869172988
P 6.801919340371551 3.879742920009449 1.504082135866796 0.15447933412922427 0.5689342217499751 2.1776482729555786
Ni 5.268152860019728 2.747433916092343 0.5300531671351096 0.27382042979441873 -0.0222194735198327 -2.3986106784087013
Ni 1.3135345039211834 1.0492145397631638 7.1720106910010415 0.6711273448809731 -0.11069833238853195 -1.3255456045373817
Ni 6.9794828971784195 0.6312973067946241 9.40365222220676 -1.9081136150207074 1.5877019677303108 -1.5234925229319374
Ni 2.73047143352947 1.5575736320512055 9.21940042000983 -0.7917532207958623 -0.699495354500705 0.5947972055596659
Ni 6.436303698094204 1.8849423120465958 2.3437837946568285 1.1933855027306481 -0.30268594787585934 1.939494957545466
Ni 4.22418258458837 6.843141066386548 10.436789475058921 0.23216727303000664 0.47541522935420705 -0.0718024266542828
Ni 8.039529555337277 7.297411901376561 13.02596415218647 -0.5822283677557198 -0.49329159541399553 1.5718907117296672
Ni 7.854497442775114 3.8686937975724396 8.238694960273653 -0.5354579443694004 0.4512766844347906 0.0013387734160815654
Ni 3.205050230052645 8.030044670364754 12.653331141723067 0.03794871132963142 0.6066715883997487 0.30714398364721296
Ni 0.1266417501450433 4.787931958422336 10.465546127267322 0.844012949431527 -0.37245437481924887 -0.5990104723100652
Ni 8.62081104734257 2.486152008512748 5.879970437372214 -0.1106757066807126 -0.9491479287996686 0.006223869422524765
Ni 3.7043222781105767 2.7634470059744567 11.43989879369397 -0.756504167785581 -1.2255939691423925 0.6851743098923425
Ni 1.2123292441524045 3.527861825180398 12.840878692797483 -0.1848605175242429 -0.30283327208700106 -0.09689176552274281
Ni 3.19595414398748 8.513809971303642 8.148586744667675 0.23136046085799508 -0.8018044343842772 -0.19335518525881537
Ni 5.569607640747959 7.851965728959759 3.6044199467731994 -0.15488659686997197 1.260569713886629 -0.34972556576316544
Ni 3.077849694501213 8.564932506703684 3.514550435612669 0.2983646947926861 -0.4281292997840498 0.3308863215694753
Ni 3.4416931371078117 3.928324699759082 9.128220746949856 -1.3303566527727797 1.1402336012980168 0.07753495826268582
Ni 7.178321891869317 5.792742046231201 11.288387476230602 0.05529003082155639 0.8559549522847516 0.5280565096990067
Ni 0.6272818278467717 -0.1378916013202702 -0.04865953953110516 0.5523752889500293 0.06905623136771333 1.9194372675636426
Ni 4.810211039997452 0.2789415156251946 1.5195924997198615 -1.2114919825233716 -1.0955905086673454 -0.05134801545467286
Ni 6.04713407549901 5.5361980602203404 0.4219932922112597 0.08083805449398981 -0.2085959134679698 -0.9911808375010028
Ni 8.152977459770304 8.791068801425132 11.054694015770323 0.6025999894335364 0.4355546457138435 2.06889626566014
Ni 0.11369926744755113 4.838765155100624 5.955760002985355 0.39970729699793095 0.27643267060628524 -0.4249812410733713
Ni 8.220538051300037 -0.02857491132379806 2.3589098805200637 -0.44287380508307594 0.4321371353918622 -0.4262531658072594
P 8.45079742280649 1.6419068276076605 3.7014623456827316 0.2237461388458469 0.6361032633973045 -0.18670811225594297
P 1.9327464939815138 3.2152132526542805 1.7690865669384663 0.4524516785794982 1.1857848075652544 -0.41473462364469865
P 4.704945996289052 1.1398589361878944 8.540752831400042 1.5042079636707126 0.37280584462139665 -1.477331708105159
P 8.731410773733323 1.688291441438969 12.530178635725683 -1.1906012551172913 -0.07257658581614598 0.34317850867326705
P 6.553386420219275 7.938459923094321 1.390259899462499 -0.2327347154977024 -1.5271396327662217 0.701690562379811
P 1.833241099203044 3.122651987197925 5.819268077731573 -0.13697294981434474 0.9440694858354968 1.4049739231680385
P 6.883928784318913 3.9770782743747577 6.149540090963071 -0.1359524789696304 -0.44588122445083206 -1.3981386454137599
P 2.3968729291812982 8.40443089264529 10.672175567041466 0.2569930738244348 0.7977834861503422 -2.012824876587869
