# total energy = -340885.1630800665 ev
CRYSTAL
PRIMVEC
9.10350107272367 0.00000000000000 0.00000000000000
0.00000000000000 9.10350107272367 0.00000000000000
0.00000000000000 0.00000000000000 13.32389401592330
PRIMCOORD
 96 1
Ni 5.300823053890699 3.1164743709647422 9.532913281736615 -0.21496787843258464 -0.22635478011328758 0.3086411370180297
Ni 4.4364092072812475 0.5051368915836566 6.121729447883979 -0.2707693016729208 0.08195597014851692 0.6273504569053389
Ni 2.675591811080001 1.9411395466492531 4.528725081223499 -0.07466175047994884 -1.1551074330860558 1.0688505215693398
Ni 3.5618176464047906 2.8599741230334503 2.441083801186487 0.7507302414162813 0.6017738939878152 0.7858509963788144
Ni 5.460580395278626 3.6278271331222025 0.44711299606035776 -0.40628829264955835 -0.7310589882395991 1.3984230094233983
Ni 5.025059797561387 4.8442187475487835 2.8783741195240355 1.4935833940773309 -0.3617493296969189 -0.4386026885115479
Ni 5.168676631440009 4.8000667670523764 11.830405738847652 -0.6398491035929819 0.4167351990144952 -0.9018882244817564
Ni 5.719820797051035 8.589890702841293 12.40281295205568 0.3557329482995099 -0.321804156762549 1.2202208777559373
Ni 2.7611283077282986 5.36705102463531 11.474391478628025 -0.7291347746336927 0.7735665225845064 -0.05138503934019537
Ni 1.119921812917215 7.494857862022465 11.778442044028779 0.804401248577176 -1.7094899822741012 -0.7303707039233228
Ni 7.904779414552921 0.09474377769449627 7.643917679228675 0.30298779538699433 -1.2020316084414202 -1.718939043502143
Ni 8.451171552572376 2.6512217385462113 1.6855787800349158 1.736038679296907 0.23326153453544987 0.7906625588348447
Ni 1.439181597661338 1.0817144186608396 2.652281386078125 -0.4720691957001095 1.4472287180721914 0.8604207013655892
Ni 1.7680910936067373 6.651737104563756 0.7404077748721398 1.6148361049429414 0.4360791507587458 -0.39281751185663316
Ni 7.584381692167138 4.411283544153396 4.167740309385101 0.9039795597931465 -1.8541281619431873 -2.178609094206951
Ni 7.895603085410575 4.113098364532816 13.075537106351998 -0.9665797511228708 -0.18903444639627445 -1.2176513172565482
Ni 7.143571960291464 0.9659360912477872 9.672227800979648 -0.9289565414534583 0.6266431464256692 1.0607230073661988
Ni 6.698538203889948 1.1738145396262316 0.6943176589844575 -0.501166113066066 2.470747091363635 -0.49812372669531635
Ni 2.113723721133972 6.946553988765022 9.014999626312399 -0.9393304284886145 -1.7219233229414475 2.2427360065938475
Ni 8.957562906612198 5.3892271533959795 1.6445547625279036 2.4501777518527157 -2.5494364749457388 -0.5016651641896714
Ni 6.535212290057775 2.1027357952661028 7.683223866071837 -1.0942707614146572 -0.2333445811675594 -1.6622768149234084
Ni 3.1253411810685567 4.616977152259853 0.5013835180664052 0.9940612443725912 -0.4951201639823022 -0.6174887336199107
Ni 6.394399334528202 6.120711676457279 4.868004375309817 -1.9060770442066528 1.5635217709396816 1.1893959219552805
Ni 6.313004930895548 2.2021460276415183 11.89995648750591 1.175420176501479 -0.22433132192535557 -1.454937913790991
P 0.24268659531165307 5.751519187997116 12.770699088103218 -0.3742999126684199 0.10437856081809122 -0.8772156614357408
P 4.143677024839503 6.477878439920378 13.042866461484884 -0.7984465736556378 0.44590050772454176 -0.7062727824338546
P 2.4798119157076854 8.62388317607296 1.8350200339386105 -0.06768583338274795 -1.6915236276036674 -1.1773243355027272
P 6.654914226459271 7.864532836042691 6.2984447911829795 -0.20507401635764036 1.4683755273531356 -1.646561203960364
P 4.6419389523673065 1.734927038978199 12.975607064061872 -2.1249583987610308 -1.427403198705832 0.9852891546069159
P 4.269141477458365 6.293796543504326 8.493023078332403 -0.3747334006614127 0.035024081483668715 0.00041369049865090044
P 4.7768983566681795 1.3396803302745894 3.9081512435192876 -0.422173339310931 -0.03232185206115724 0.5977627159458931
P 9.055816994343687 6.190098562095137 4.102853284357423 0.2868366395484286 -0.9024872915183361 0.6537227762512806
Ni 0.7932854612047956 8.741054339159405 4.827086868766065 1.04902834463709 1.2791842436640228 -0.5462380657040399
Ni 2.000248579507639 6.550788380496815 4.859890424749724 0.1609932239883421 -0.31464312023773555 0.675903683223694
Ni 8.417798117417771 7.329574695446637 9.489397635969425 -0.06649541261907257 -0.19428206794845893 -0.1504380741803151
Ni 8.652149547091794 2.4871129236165763 10.945458945432089 -0.6010514139994939 1.2658469031251682 -0.5983445565912922
Ni 3.2840789303295566 4.09256996947727 4.942738657513364 -0.22811264334465875 2.137264469821893 0.0816086141114272
Ni 1.209591299080021 0.8947567262367857 6.913782295035328 0.37520674075340543 1.349786479362617 0.3365504618337882
Ni 1.293653028544727 1.2623005706417112 11.77120749167816 2.062079756958939 0.529316864468669 -1.664455567742282
Ni 4.390563975574051 7.253077975423686 1.9385468695264951 -0.33426937910909527 -0.49597711266595873 -0.8888409043794951
Ni 5.747795856033604 7.970788901270333 8.303730337867663 -0.08520378766185326 0.5953667049098907 0.6125758696993258
Ni 6.693558588770043 0.7872252605003712 5.045119362308569 0.2703034177800958 1.2660489918336455 1.1623833979221787
Ni 0.64116049516701 7.506637792488929 7.065780722407361 -0.042529645832094495 0.5180862858601722 -0.6680697890015721
Ni 4.952996482590344 4.49159463115119 7.280748977468404 0.38293881929034046 0.8778998319869591 0.502807762434547
Ni 0.6718219973340097 0.11595584568515153 9.215204733585603 -0.2929522655278632 0.5839129545469944 -0.14347578392986904
Ni 4.541764025896695 0.6749490499732914 10.682538908501607 0.021276649990589164 0.5989251116851104 -0.18447973714605648
Ni 7.869567072169395 8.055232977782637 4.262380307166678 0.23372870397985554 0.16833372351381332 0.9770351421282398
Ni 7.411351446126889 6.209889573558887 7.379198790474258 0.13724934340418296 1.4054359504061213 -0.6973986198726764
Ni 2.7415466767906134 5.37032828504329 2.732224691630135 -1.2869350912540352 0.5019523564127871 0.09564760870299656
Ni 3.3234060552253255 4.378292456046389 9.172088731518164 0.20523651007743365 0.2761099971595438 0.6417676607719335
Ni 0.9057728729581674 4.042446092237431 3.8868463198170726 0.521744965658682 -0.45539687725075123 0.034496748225288976
Ni 0.9474559839472292 9.00528345955285 0.16871154510262135 -0.15344575065838734 -0.4901517642334333 2.223612655500835
Ni 2.5018696989536227 5.359868362241151 7.135224960102359 -0.462014639677585 0.11937503422692344 -0.49814223863807755
Ni 5.0558842523986725 2.764141566603414 5.639084576550316 1.6759082896639137 -0.20075019217130588 -1.284697460172768
Ni 4.446359334019923 7.216054036314638 6.064876262606419 -0.33299771148552326 -0.8169333196059156 0.860798396419982
Ni 0.5212737576925084 7.528131158664603 2.5482747959805168 1.7148373626289437 0.2625106612085544 0.6002618282186629
P 0.4353822245000134 5.7881334695551665 8.252952829246455 -0.8589690565207272 -1.3572545056048881 -0.2943226635128286
P 8.684903944169335 1.994076405739275 8.49193065819641 -0.6899946140991213 -0.5048088520249757 -0.4646924436200642
P 1.6466048709831183 3.5784406394741595 10.373490520978685 0.22823605629640048 -0.4225446066074207 1.5495956477768924
P 4.1080732319072455 6.259030272676331 4.157893962559346 0.5946779063729822 0.5507302971474386 0.0035959448813744524
P 6.8228556153660165 3.952248603008895 10.78939671515416 1.8065154451612309 1.2523630097061207 -0.5979771459495444
P 6.6194196755406125 8.215545632739694 10.494471499289409 -0.9483598856807345 -1.3182210458515105 -0.36145828081906134
P 2.469889099472411 8.382622189038779 6.146618419982366 0.7423895827610699 -0.060686776357095476 0.04572526995125673
P 7.044025175399049 4.323043307668515 1.8270653946483504 -1.0502007676786365 1.0612043178779917 0.14772170369041657
Ni 2.4260921555202017 2.0090607686046535 0.5771829099025462 0.3423472710212233 -0.14682078914270197 -0.6385491538346358
Ni 1.1902008416661352 3.4106904240912126 8.273112532506103 -1.1130007337239929 0.7512172083550287 -0.35238357221130284
Ni 8.471372221587123 8.819471897921476 11.480720232615882 -1.4060841255130816 1.357541440717688 0.5882462918150256
Ni 2.6000145446715126 1.6542882259396063 9.450371836961168 -0.12738916278065157 0.6498350111611002 0.2590556127804184
Ni 6.288734996874223 2.611885510149309 2.869194148981236 -0.3387425843891005 -1.1105669274715195 0.5618294923843936
Ni 4.087044144289369 7.404478302771263 10.840733178744953 0.056326185395554604 -0.775625204885748 -0.4404433412647124
Ni 7.108195754887538 6.446007082452765 11.69280996061858 1.431477882995838 -0.0798378953642496 -0.16296860254715803
Ni 7.520593459726247 4.175885211849047 8.153077407963128 1.2849687115562838 -1.8675853158893578 1.121214379883037
Ni 3.3481584748067132 8.888895197563869 13.05260629734738 -0.05749475178235904 -0.6752233693272177 -0.7962976456334351
Ni 9.036936332993264 5.058669923745455 10.298184538903968 -0.1334777921768927 -0.4061111436417458 0.7192848784228064
Ni 8.469524210857069 2.432774125352029 6.007570633322536 0.10956139057061132 0.16619379435267506 -0.22690885284454468
Ni 3.3914638296977255 3.003918682952871 11.541090100381227 0.7673897043498331 -0.5502965520441296 0.24154305781795177
Ni 1.1565451979763997 3.7434324940137227 12.611958607791877 -0.27573513031862834 -0.15928678282019665 -0.11263540151024472
Ni 3.3343484635875282 8.596636397181053 8.360783800170154 0.7889203793327575 1.3247704169342538 -0.9983768410288096
Ni 5.744636941140357 8.361729653937902 3.5763067788085188 -1.09685934807744 -0.5070433977824494 -0.8627449786233916
Ni 3.3086674868905455 8.565620768819969 3.9082176990775603 -0.35759134166448736 -0.056513875926328484 0.41717845719950086
Ni 3.4147505855966553 2.6110661950473144 7.249930895081912 -0.5344382448556344 0.03518708942409424 0.19975131859314632
Ni 6.355791386221962 5.8748261108473905 9.553498118499187 -1.2548878330105033 -0.7062020770969193 -0.23411308390246777
Ni 8.421612484392616 0.2196702133963817 1.9980509943340652 -1.4249974174778168 0.024360688232551594 -0.816662325332716
Ni 4.333403091958187 0.6536077122665436 1.8339540139559032 0.9351184472897959 0.5818499013703785 -0.39393697017305707
Ni 6.175851582821553 6.003704376391233 0.3953814405203819 -0.5910727055202272 0.1760200364144775 1.5672768671067394
Ni 8.12644056364715 7.404177887233865 0.48544966003282564 1.2828110417833325 0.26015758759534546 -1.2466968125592786
Ni 0.0025954081730980728 4.92473011157151 5.996671921765774 0.5165467092871943 0.3466710952075578 1.1254330459500748
Ni 7.399635240168358 6.487245942586522 2.675530817622408 -3.065677994287688 0.2981672340698994 -0.4151287737593238
P 8.5093611318163 1.2562922598937467 3.794805371609047 -0.20442969790542212 0.863965481294054 1.5070793716812367
P 1.6015607473756497 3.7221940258697805 1.8036293413308349 -0.5086752769589176 -0.9900248695196885 -0.10090242934403268
P 4.64974975633966 1.2220995096371476 8.536126335498256 0.7400763612468609 0.3315926036078805 -0.822100722739468
P 8.713088383677968 1.5759343916854671 13.087261505461548 -0.8203924817991097 0.4780495816532605 -0.24640501389594335
P 6.428473739270068 8.385489791895761 1.2715269690402904 -1.3444367850149297 -2.474189027165649 2.100785658169569
P 1.5616509984073512 3.177294862036185 6.140463542866155 0.26697435340686276 -0.015733608685172904 -1.791644184476353
P 6.743791708023481 4.220064502848854 6.05756159944583 0.1579490378453796 -0.7173053860989325 1.2284530358577423
P 2.2716967762997764 8.77959856295771 10.496843871684739 1.8688045330084395 -0.051759134850162467 0.49437634383774215
