# total energy = -381174.5917507729 ev
CRYSTAL
PRIMVEC
9.15919097305471 0.00000000000000 0.00000000000000
0.00000000000000 9.15919097305471 0.00000000000000
0.00000000000000 0.00000000000000 13.40540181428629
PRIMCOORD
 96 1
Ni 6.3957254670091315 0.8138316449847499 11.394738468992346 -0.9387323898932995 -0.7459248496078379 -1.0294360243274594
Ni 7.372855406785777 7.588242934918541 2.0413207347650775 -1.0109467072740201 0.2535017728417247 1.3169378082637127
Ni 6.76335706269687 1.388542466935494 0.4999654145331116 -0.2157181263350478 -0.9326707570802518 0.16742303877408585
Ni 8.673487961533048 0.731442892941042 12.361616526636016 -0.7306473546234772 -0.6443223088729871 -0.704672013605638
Ni 5.048738248208454 5.495935733370989 5.422833484762126 0.7195296474437608 1.4674576435245565 0.1940000179316659
Ni 7.23882896950194 3.595156368223515 4.677104086191663 -0.8623045486518633 0.6216107262080842 -1.4102567688335323
Ni 3.792243833368982 0.8040725273105935 0.3225308248390168 1.0588126777173636 1.6222393393855483 0.46606155605344896
Ni 7.22367050891937 2.9015949720338043 11.756845240859294 1.1863301385457632 -2.3831146396556315 -1.2646248577926091
Ni 8.941339333905669 8.954180519245101 1.1070100114376864 -0.3120720170764496 -0.39375467895892186 0.2302615713668615
Ni 2.9451377645471206 8.415977315443039 3.9988852503172763 -0.2521953953254753 -0.7749199512886074 0.3699364934934016
Ni 5.3867398620323765 8.265995567987094 3.6574626787727555 2.0019740499162944 -1.5575318719048339 2.054708661305848
Ni 7.39121042491718 1.0374706880050284 2.90789924298183 -1.7835966315815281 -0.15378873582010288 -0.6535350857205067
Ni 1.92430016682484 1.5642890177864661 8.184225061314578 -0.5350961901546074 -0.6706357499565353 0.40991149122444237
Ni 7.662368265126844 7.545002395697807 10.909771229204827 -0.32345069122703646 0.2528111745326033 0.11794755775177751
Ni 0.6565546021487341 5.445889915471797 6.327335622007357 -0.2208099390356584 -1.6921352930457376 0.017582231858137464
Ni 6.505837257416177 2.1388358902239606 8.324914809821268 0.10762329300763401 -1.2793225690141 -0.45004538313085074
Ni 1.8241260983102954 6.482508798743181 7.960783856813081 -1.3702450043272854 0.577485967974728 1.8338740396798416
Ni 4.516369448872311 0.13427190359417784 7.554573749962934 0.41228384811136093 -0.9245224169415046 -0.03877840631977838
Ni 0.521037048621487 6.367515159701387 2.2152290360457045 -2.1401093954698562 -2.205545256476163 -0.6159298737732232
Ni 5.091987946619872 5.363338129833908 0.47149590212900083 0.028490908350841254 0.8007484823159371 -1.5382079747652413
Ni 5.300103077349275 3.1027582770337987 10.239233290638323 0.6792851981014172 0.36365580269101244 1.115460508118395
Ni 3.9513389755558377 7.771161132075345 0.14208102957163973 -0.2626708409355024 -1.7458119566335866 0.47480047858834357
Ni 4.8035650319702405 3.0223680603974126 0.2430629387045426 0.28426605060777493 -0.29999220309378016 -1.285101380479406
Ni 5.246952293808094 7.864465807576641 9.529511418405175 0.25721136048282794 0.9668764564276834 0.5966442860707337
P 1.3378005505442916 8.472361293295789 7.435480457170833 0.3845503867518345 2.513299362903549 -1.0118905592445282
Ni 2.746383326697105 5.077827837821895 1.167915881731292 1.4624373074918298 1.7739225988268739 -1.583435479144473
P 6.265619163338188 4.6974191711295115 12.026455177843307 -1.2913707584278855 2.1526039283924407 0.04290091312858418
Ni 8.583260774101687 7.572360898271908 6.573754488178639 0.8629159569836171 -1.1563436194860022 0.055793709930852295
P 0.3249735809945283 2.6366653814894856 11.826700556370561 0.42025632479387626 -0.1091852381781152 1.32933721036933
P 6.948061302037119 9.199124755716205 9.278575239388381 0.16708031072268645 -0.12297020777734952 -0.5325618537685279
P 5.954911937753576 2.905066305303166 6.360219864321317 0.04975316016372722 0.47403017608122233 -0.16103127631512912
Ni 0.8282326404977259 3.8819397877406505 10.267357501553633 0.3452325629888183 0.2331044401322953 -1.5669966168621594
Ni 3.9037844575227836 5.802704506961338 10.105621764692485 -1.2205250392599172 0.33170213260255127 -0.5633184182250943
Ni 0.25741447458782324 1.888103045240358 3.2414797154624257 -0.4237756508010444 0.3224142795427221 0.5861963512645324
Ni 5.207036540805773 1.1563753014690332 5.1747128409616945 0.06880040660316539 -0.6347500918035197 0.4476974517239644
Ni 8.411324446575398 5.11096578971781 11.54985211098872 -0.2391529603192204 0.44489520638847896 0.18199348038909302
Ni 2.270728236078349 7.5722784655557485 1.8436846340976192 0.28979263685295903 0.813944926401553 -1.8821719554542808
Ni 3.2269660619040326 3.5065961534967043 9.417281107192844 -1.122622573084473 0.02631009864943856 0.9373864173883664
Ni 0.3539340260193193 3.0210766145109216 5.4583171053922985 0.7368784231348535 -1.7579925578601787 1.2573146972844411
Ni 0.4348243344670703 7.085385047967317 12.957004221556641 0.9941951988472942 -0.4308567260175419 -0.41092990518662775
Ni 2.9137308996905444 0.8561800790328297 6.06469766097226 -0.40871361426159936 -0.1401991700611263 0.20983904184645155
Ni 2.5808217958871107 8.247274182228319 9.632478124159372 0.006458611141150167 0.9093099708671244 -0.6524593361578248
Ni 5.08604363186574 6.84753918427657 11.768387652959689 1.1518868692662292 -1.1033403278160934 0.07366390534305378
Ni 0.833423153858537 7.012184796018131 4.575678872229638 -1.210695197653689 -0.2657541078465165 -0.19311401578228676
Ni 2.2670187638511945 2.772157289282817 13.043147325861856 -0.2079297406388806 -0.8201911644215811 0.3842973902007639
Ni 4.004123391469646 2.50940758612137 7.586117086760708 1.3421359047958952 -0.6039279642163405 -1.9956954159964337
Ni 5.1818945623772805 4.473971555194536 8.349044697679142 0.45464817201018476 0.12160546621933895 -1.7495202587231096
Ni 4.0973273158734145 8.932967833620188 11.518175965926025 -0.579327392058841 0.0833695626665919 0.08178216357481399
Ni 7.565253366300866 6.30401449068691 0.2310946242373253 0.24153200207435824 -2.843764537775206 -0.772781821899682
Ni 3.3495984659765603 2.6885613559069137 2.0733064604729035 0.39187340277580895 0.7451681739474715 -0.39521866509895803
Ni 7.3516335619701785 6.075868209930872 4.581912617409394 -0.006645530340975652 1.1324727264056753 -1.5950116140178467
Ni 0.6585851947234506 4.600542411261327 0.1964765471268221 -1.1841053629803027 0.38176742469005864 -1.2995836332559811
Ni 3.1851909931927915 4.666790837481104 6.722474099158283 -0.16055870755408477 -0.8044943225116146 -0.6801231206216802
Ni 7.428112804184355 3.629430059764287 0.35024012441632796 -0.8556803584671263 1.878708936606345 0.7075513920359621
Ni 2.373036396022343 5.104471923522617 3.689032577223513 2.05555995356255 1.1400232850594239 1.1007679391032268
Ni 6.555599140404156 6.67004322800489 7.68215303292407 -1.2186759018663207 1.4816673593660354 0.5858243126370943
P 4.1357226432221355 1.9674399549480461 11.667645714622717 -0.4881941262864302 -0.18209426763301545 1.4264539474186853
Ni 8.523762671416264 5.489075499548424 8.487388777451574 0.9092724327609695 0.23881434603287904 0.9968208093955994
P 4.806175401315277 7.610463131518732 6.080569622509139 0.5407649584046106 0.44163736157281364 -0.3763477963363841
Ni 2.6447895836264887 6.808456917626523 5.802997601063237 1.958201018595402 0.7673709352967559 0.08839349824374453
P 2.7736044414109413 6.194562162009136 12.314027203678362 0.1557761985637769 0.05186892095514938 0.3831771605533917
P 4.494817873192076 4.766232170740902 2.585165084109621 0.00495785822590759 -2.575675354037609 0.6612041722299903
P 2.450239214300582 3.3142897858884584 5.026972347466207 0.03947954615186104 0.31146189429627646 0.3505812288952414
Ni 0.13708194329613105 2.158180100949271 0.8676647882319142 -0.4167143730788888 0.2991234273355816 -1.0626256237055507
Ni 8.760830003898842 0.9162762768699406 7.394003978075901 -0.017941672080085232 -0.9413284327552498 0.5317624977956842
Ni 7.455489625139825 5.084046928296556 6.502973178489186 -0.10378386465688577 -2.2769571325602462 0.2803924265849816
Ni 3.958299960475931 6.706130439301161 7.977433433639061 2.2977450158398747 0.2602408913377712 -1.179752999548878
Ni 6.687986082555498 8.185458804299758 12.991147852589696 -0.5532780032699568 1.559040081019244 0.5449831102510162
Ni 1.4171557786333486 6.337610402117042 10.486938107181684 -0.09751628648061915 -1.19918848256567 0.511671383472764
Ni 6.6166634646966 5.2061572585000775 2.1594623876450774 1.078194167567769 0.7221359747183563 1.7063218689587645
Ni 1.3791085005306314 3.7923629028478785 2.188767218239599 -2.6155313096922823 -1.6207663543844475 1.093197840065453
Ni 4.647977859815485 3.407402118385383 4.550503920714681 -0.9301973558390948 -0.4175121863898358 -0.7105611253965634
Ni 9.16257958488572 7.785596016593853 9.009796956918507 -0.7965079618720283 0.9668435463072188 -0.04302998250728073
Ni 7.712029397017295 1.4743366060756364 5.292546745034701 -0.34396115247556247 -0.47438730231032494 0.10100038837447767
Ni 1.828522509838775 0.7176115990886315 1.6899118976174288 1.0812218986504993 0.9571846830612161 0.8916187242349483
Ni 0.6962972464471212 0.1900577862952419 5.342601722124578 0.2803044948568656 0.18788490617286352 -0.5845253913200127
Ni 1.701896698627878 -0.015549558024791313 12.869091561611214 0.5918239818639549 -0.12135786898490712 -0.842719170320768
Ni 4.420161309924082 0.878741913445546 2.942083174453896 0.23307667221815342 1.1375542546936408 -1.6603137776597665
Ni 5.841301336505116 2.8937638639987 2.3694185157020318 0.3130942876933769 -0.004073655848741372 0.5239196047124977
Ni 4.191969233214622 1.1370402499344072 9.623000193639225 0.377171320678944 -0.4162896268366444 -0.8896531158681453
Ni 7.395295423962391 3.7604339641222952 9.674718479757379 1.7762095950888377 0.09033493824083151 -0.855829739560797
Ni 2.389706123067828 1.491894774617502 3.8936791224407594 0.049060247861760664 0.9040415233793333 0.5303267937904221
Ni 8.691137721981757 1.1958788908905593 9.931834364728891 0.12606581598353772 0.4054660538585791 -0.32867722973329844
Ni 3.630272705307246 4.238140713454342 11.758266747253503 0.19479371747755486 0.02515618755065345 0.9670932004241797
Ni 4.178816635391921 6.75896065116839 2.463444019510184 1.1694148508476636 0.30120293557242966 0.0877664061827069
Ni 6.272635103402386 5.715847901701814 9.911270149804428 0.6879302753709249 0.6672444648867992 1.1790685718873435
Ni 8.905481102376507 3.192005431061935 7.742812520988268 0.5195762401421374 0.7533599657296445 0.689378063561045
Ni 2.1020067844822594 1.634274393805451 10.614129040457804 -0.8092102399300449 -0.23582338172535514 1.124143894825006
P 8.165290266412859 3.6194648602997335 2.2361147385631877 1.144074572310662 -0.44139722053754954 2.621517609182704
Ni 0.14455309513734108 4.759060524435069 4.1812255025419 -0.9174400561734263 0.29406426764511934 -2.070648986685189
P 0.695313549367624 8.360564211802828 3.024231955701674 -0.9239575455769701 2.129819069287442 0.5197883561529435
Ni 6.7800359489330395 8.854931528989674 6.498737968716751 -1.7497344316164447 0.17257347262677375 0.43027282848961373
P 1.758756954396214 4.423110569324437 8.27861326907383 -2.3600760126686127 -1.1808673156589793 0.08228712823569055
P 5.579064548021992 8.716820092660624 1.4364825868963587 -0.625721148832032 0.5128116677247941 0.11883741655589856
P 0.6123404409582558 8.24683454107547 11.056399796951238 0.33388217097300565 1.381663530576872 0.44552152711856824
Ni 7.790001587313018 8.366728347133384 4.290881165252865 0.8142542301118557 -0.14012615073134577 0.40571956463028186
