# total energy = -381171.71643785556 ev
CRYSTAL
PRIMVEC
9.19081059256530 0.00000000000000 0.00000000000000
0.00000000000000 9.19081059256530 0.00000000000000
0.00000000000000 0.00000000000000 13.45168032358863
PRIMCOORD
 96 1
Ni 3.98043897630169 -0.042845720901992936 0.017533309400817695 0.3029754540918202 0.10570602138026311 0.1289210260441457
Ni 7.434805144093969 7.71694464820169 3.926222384512927 -0.4183521657926279 -0.5150122749205388 -1.7246528060574684
Ni 6.358248734094818 0.6065815522103825 0.3018289776776607 -0.4030597584099317 -0.7369298451980792 -0.550563175441955
Ni 8.629821912046225 8.80362933149313 13.504814433079165 0.6397542298863304 -0.30802715758311466 -0.1421066714964843
Ni 3.59693402197558 2.01348602521022 1.994171536713172 -1.8314595167010779 -0.6396305598242726 0.2515171383115281
Ni 2.4413825947829357 7.403308236133282 8.153816963416194 -0.6608735283634489 1.8672240758951972 -1.01930407809978
Ni 2.3306700901741135 4.162591651782534 1.710542202205559 0.5614736517068717 0.5935263092670424 -1.0594420837712462
Ni 2.356147017185209 3.8356469459507534 10.045822530306843 0.06579890077268023 -0.8733307245590379 0.5232567743175183
Ni 5.384886745625457 6.555740872483857 2.824825970677958 -0.6407888417984319 0.3926179942513173 0.2232848829387122
Ni 4.750684050288652 3.8331194730329856 11.514086693101584 -0.011491545579367306 -0.7161082804670377 1.8355858801646256
Ni 0.24035440275013054 2.577507690728583 11.063522827321268 0.8338403797738994 -0.0014359611155781722 -2.2263714491928948
Ni 0.6507406399485535 2.070239280727361 2.3359915695173403 -1.5436610274600124 0.11447348316024801 -1.4406703481283833
Ni 0.503801636239106 6.439238157190696 12.951452269706355 0.6851771381058199 0.9398456775621362 1.1536671010951034
Ni 1.2269272623903957 4.622122991475087 5.24604760330666 1.1993905712741473 1.4357032339310951 1.0576363980210755
Ni 4.514112585185623 4.065830797679788 3.28570744044913 0.18590798495215077 0.37990286067749407 -0.7263304724156782
Ni 7.9849854488335765 6.737103138252236 1.4093731247297008 -1.4640558169318594 1.139931496676566 -0.40720566225750515
Ni 2.8888188277126456 5.1071680214211765 12.461676729539267 -1.9550087369103495 -2.215955910286526 -0.49829650482775467
Ni 0.37036025699159747 8.789742016661327 2.4240468878102344 0.15081525501407575 -0.5088277433763817 -0.5763572536869235
Ni 7.046309579606595 2.921841410234603 10.4448801743473 -1.7515737988180287 -0.4722093208223997 -0.3033181821432196
Ni 9.138726286336038 1.882278012940957 13.038525090345033 -1.4436235172194363 -0.296882710930521 2.4555197328909193
Ni 6.02586306838188 5.3345762483459715 6.447309527068453 0.08251209976230306 -1.8100681955094955 -0.3770026563115636
Ni 1.9823383680527156 0.8095808243169719 3.9302314161010363 0.686586873969153 -0.5188560741466612 -0.2369983758700628
Ni 8.501812301869263 8.295726755559816 5.71639928433044 0.36936776547412514 0.8771331290242637 2.3614767496708815
Ni 4.795673068224912 6.543351659781493 7.861794580659471 -0.15483723168927527 1.9967529107266708 0.37271379912822267
P 3.941405603640751 2.075064456297644 4.279961060516225 0.22780873895099474 -0.02611469480918083 -1.767008902426176
Ni 4.456761926978829 4.431413671316275 0.7141618285632951 1.2537058968872603 -0.9593603505562962 0.35398228415699035
P 5.140668526094857 3.334288227171802 7.181448501573782 -0.5016245407597232 0.0027490235000468786 1.6571641762871914
Ni 1.9286824157111664 0.9172934483426693 0.5419389048655635 -0.5611476358260207 -0.20573581831135535 4.1351540652561685
P 4.400900180090864 5.909562550922139 4.873960393001431 0.7461881305715536 2.451237817686114 -0.9562413453113402
P 3.5852157384477494 5.643810262132161 10.398484962387702 0.10459839013838114 -0.3354315177379965 0.31251296126861017
P 2.7830693608332577 1.4399518707104422 10.40729619251957 -0.6442441473368841 0.6486211933586571 0.578473528698978
Ni 0.7856240573807809 5.967519802629198 2.1670120828839 0.40927848562613384 1.4003667634133303 -1.4640725291024077
Ni 7.458057894937428 7.0286540324246625 7.627116422542115 0.6411891625606441 -0.25021178923654325 -0.33256319505126597
Ni 3.829691300675432 1.1469488284616252 6.136495612938395 0.25251292656589414 -0.1828288318061948 1.5603899101789191
Ni 2.7640995277340874 7.293744582850718 12.162807192878047 0.647089330095163 1.97815612156109 -0.0005329896853345659
Ni 1.3658555555721121 3.589232122684347 7.642935645764156 -0.7837370353596051 -1.3434337976717121 -0.27739014942354806
Ni 8.459828679002495 3.602200356455146 5.561490009659946 -1.0868736976196378 -1.4199158891898513 0.8262661669710674
Ni 0.6190351005870183 5.031932045767198 11.219374160079296 -0.38044716321673827 -1.3886224783932084 -0.15054914583688267
Ni 6.867548313240864 4.831103643126706 8.619137594712026 -1.3811030300877118 0.8232898579515628 -1.2147323438375401
Ni 5.822479620391791 0.6146621128987502 4.5044162799920064 -0.16083227293044558 -1.0606085932755218 -0.8925330085191016
Ni 1.3971962197524277 7.274140583819452 10.442391302834096 0.1054514821672958 0.4541761174697726 0.03457413843044368
Ni 2.0143867246500062 3.2194030945460113 3.6790612674249834 1.826848757401944 0.3707101384346325 -0.0761805011173204
Ni 3.896609592727303 4.046520904588045 5.52677080349937 -2.029220287226757 -1.3172535397319185 1.3172607388207702
Ni 5.87347942846703 6.521146661347579 9.921125288273748 -0.1339048524119823 -0.7025423688571449 1.3338397262253736
Ni 3.4298175126527997 2.2458297174326196 8.465398310232192 -0.3783002920770646 0.38206027334012904 -1.1330684510081455
Ni 3.670046920378633 7.712073518578358 9.902374196467097 2.139211823356251 1.1184599570663512 1.5293296984390048
Ni 5.428846392773391 8.314567917310445 11.631344893026894 0.7460184377629088 0.23205980091786485 0.21941562979129312
Ni 8.730902447135701 0.8889526647454783 4.322186401702038 0.42231346443322104 0.44925862556349727 0.5461976993844077
Ni 6.95995272311444 8.4708852241664 9.408267027259484 -0.12650110374874343 1.0758997151066374 0.4168917791970176
Ni 1.5502967428948617 2.4002353356816823 5.661758077091492 -0.4648122570273801 -2.155976958629732 1.7188457124573882
Ni 6.663797232826371 4.784929010621748 1.9380781813978343 0.0734690157234283 -0.8762553544050006 0.8742753478604942
Ni 1.3721236884081753 5.559778680724352 8.770495540162791 -1.8042305057817958 0.15995732652466 0.4080309863722779
Ni 8.53930161834771 6.535300509687076 9.921098634922979 -1.4943850640430199 -0.2552382959168572 -1.1888819584333397
Ni 5.96198693464194 2.7233566642996765 5.2942855727935765 0.14958318237918755 0.5826669979550352 0.24529841109532594
Ni 9.11581359548515 4.3054536119053575 3.335855260380818 -0.5897154201613843 0.029659988958277952 -0.43882508893499905
Ni 5.765165725427436 2.458652127919245 2.010394236520995 1.2671049439019855 -0.2605715352043126 -1.3235673977650884
P 8.816128833922818 4.957651914416666 7.320969602039847 -0.28411564107283976 0.6602446365301984 -0.43294163357102855
Ni 1.6296869649445882 9.060200000483658 6.4585554029309264 -0.16916444694522478 -0.002285196489750903 -0.42677124309425857
P 0.303621185746623 8.120062792369676 8.682723298836688 -0.02380327306718481 0.1846843969576948 -0.4334769372492083
Ni 5.433533706184523 1.2707214749473472 9.037699977029162 1.3212184379169374 -0.7403406706518412 -1.7692743014215853
P 4.112529306389519 8.920481297589475 7.941629637942724 0.34299596034881574 -0.020926208629705893 -0.39473015549831375
P 4.41333534684628 2.3703560103883667 13.358850574375447 0.31224608076046867 -0.6178024082055876 -0.06209111290378984
P 7.286355171120227 5.087646739685401 11.0611957140748 -0.2919099403062779 -0.834369512804492 -0.25192697215543713
Ni 7.332162171200782 4.861727424079437 13.251829099307626 0.9568661233795328 1.1965083646303458 -0.5811580175096765
Ni 7.488231326170267 2.6484883210701016 3.513108314725437 0.1634386002050411 -0.17804966524999657 -0.36870853462357145
Ni 1.0748469192256789 7.69792886104947 4.438005320685812 0.2487259487196361 -0.5290587257112759 -0.46296697628852523
Ni 7.275813311350484 0.39957968208311057 2.420199614488862 0.5514990569926631 0.12289718844756899 0.05413123462676484
Ni 8.229911360781152 1.3265832218353117 9.037793723297385 -0.012051274737579245 -0.05362267042146249 0.09959373783493816
Ni 8.995487502978202 9.155582232994893 10.671863785821913 -0.00741686128936142 -0.9118710467260812 1.1059260862653986
Ni 2.2221449984904864 2.6638737380313473 12.531934962166835 1.332658304322763 0.687382630397571 -0.9329160403218386
Ni 8.576974751038362 6.074105633274102 5.310534925952168 -0.14896637473079505 -0.6023439075586723 0.7333115317192016
Ni 3.280365741322561 4.830662484217423 7.749391885979458 0.45332611076465157 -0.28422002786118794 -0.38415032309993846
Ni 8.631393540660545 3.896618783537913 9.246415933335209 3.8566295451178614 -0.6168302741003054 0.37735798276845334
Ni 6.744630412141878 0.22456275195991982 6.706496819839664 -0.47108626296155 0.7464740372430886 1.4269519701010265
Ni 5.029560816629802 6.061339597336724 12.276083933647076 1.4087796700673738 0.5890286785070049 0.3151956503070959
Ni 2.357240723647806 6.516606400906208 6.145952037975089 0.6254159588867874 -0.562767687927947 -1.5045900296004797
Ni 2.5071704171297684 5.798436459835864 3.598405470754251 1.544345969342179 -0.4505356925037079 1.114842672028738
Ni 4.886386368946236 1.3711035084304584 11.135435405858649 -0.599989805504199 0.6852822962251166 2.066198664223319
Ni 7.661450533738129 6.983315763685221 12.069492892754074 -1.4503477233171473 0.8636749466368288 0.21676225132884602
Ni 7.120442657987365 2.4769418410332706 7.5358461586978205 -0.3829987259939985 1.519504484818467 -0.7449766267619558
Ni 4.983468901420335 9.01094644642433 2.3913855041452527 -0.019415685522450432 -0.1276125916453673 -0.47664858754067585
Ni 5.845217685841087 7.499508450788814 5.754480489012176 -0.5902867192838221 0.45075963558905596 -1.025150509578228
Ni 0.621608527557836 4.147601439677521 13.690313482703134 -0.953567655133919 -0.06414979520503145 -0.1314587048643349
Ni 3.5171945491226713 6.555382430870066 0.6702573262790229 0.336246300329808 0.9719921803876939 2.7595454826241252
Ni 6.7894723771083765 4.872940213023714 4.340265645253094 -0.38598326254361914 0.5165791051870264 -1.2782941277495856
Ni 1.687147912878704 0.31263553279297307 12.024699639083808 0.2663143512253607 -0.9457715561282678 -3.170989865553326
Ni 1.3289084969196578 1.099542627334919 8.58128432213342 0.11964962804454876 -0.28365464227602116 0.3197069079138881
Ni 6.704438997344071 2.7859828477966477 12.69196995191456 -0.681616160227439 -1.5079108664435967 1.171530868749402
P 5.84136673619547 7.465309444508769 0.62308273357969 -0.3484068469517419 0.33334583885356145 -0.0895137278911168
Ni 4.842987361245518 4.051180645567347 9.35147333217566 0.10151203790357355 -0.18890871945168755 -0.9768374242951371
P 7.932156669446932 3.108460819671938 1.2573580363203154 0.4999088436201971 -0.2929671779261987 -0.23131083856698229
Ni 2.8322769608395366 7.962716114725392 2.704056881099605 -0.7601944721529746 0.4145639023947893 -2.033267717823253
P 7.212029085716645 0.71313429593709 11.637156242575637 -0.4868198716467229 0.13628852215281043 0.15895073963701656
P 1.5261616742328357 7.851204009593495 0.7651083299369978 0.511037863653823 0.4137120959174552 0.0614953883013199
P 8.880850522238882 1.1233008727619325 6.8189932607879005 0.17575469856823278 0.5764544413864202 -0.7392587504415721
Ni 3.540382964291861 8.328317369983099 4.783108311039895 0.9634648596429729 -0.9021486772319947 0.9951912442119765
