# total energy = -381165.6388247939 ev
CRYSTAL
PRIMVEC
9.27853751511664 0.00000000000000 0.00000000000000

0.00000000000000 9.27853751511664 0.00000000000000

0.00000000000000 0.00000000000000 13.58007754232647

PRIMCOORD
 96 1
Ni 6.786266735019889 2.2720169469134968 11.58034329956702 0.3401186388010207 0.4331421796176088 -0.19927772139083744
Ni 7.261773230337459 1.093586999514508 9.424533541213188 -0.9569674248440873 2.7445682924890025 0.2480821444880502
Ni 3.366364786511834 5.937967155701589 3.9804156218257623 -1.5003765057397644 -0.29497263839200166 0.1977599991947304
Ni 6.360994242310211 0.4698150403490295 13.292098949385737 0.02362355295621093 -0.712003771380361 0.03126178622775907
Ni 4.641959579738281 1.4717616353276823 8.25386230696173 -0.5745513108264363 -0.5304682044642929 0.04647603207435222
Ni 2.2541464834811356 0.2813614465610459 1.716535024540426 0.3789880621727086 -0.24669426300158806 0.8455908354416083
Ni 2.505734030712948 8.975231491807184 6.043800011362128 2.0503323866150236 -0.6864542050460307 -3.031900640726927
Ni 5.740334304658344 4.934010829477116 10.367099351210314 0.5577211266429749 -0.6707825599470448 1.8942774804685631
Ni 6.731783162187685 8.708649827801386 5.274950693870735 1.4956037669414695 -3.0115074217825555 -0.7746939513207304
Ni 0.9838497352286646 7.349019319462325 2.0415473512767277 -0.3406966227916778 0.5641946501824606 0.005846688588764124
Ni 4.740794562335119 1.089801356170581 1.2808065478006723 -2.269288560271395 -1.2121324443208479 1.0587784820453183
Ni 1.3724998400008914 4.065326303034779 9.64979973295958 -0.6689740459833962 -1.0144932869746979 -0.7313209836517341
Ni 3.1120771848361906 4.560531133693421 0.292137540138587 -0.022828824969057457 -1.552115843095585 -0.9207266973444982
Ni 1.617341890391932 1.5634892581170494 13.405301747468043 -0.6815336278159617 0.33919252744232553 -1.0126711461642945
Ni 8.105414983776711 5.816640997943773 3.213766245601146 -0.007376237859413102 0.4314956451531214 -2.4390829274911345
Ni 1.5352917823273584 3.501126266725547 6.738869181358658 -0.08399511206573276 -1.592417370928109 2.1061734048440437
Ni 0.21092064475118147 6.665914823710878 8.178642130430157 1.650571610671338 0.45330142817430313 -0.22741304617447286
Ni 3.325604170801365 4.881846891046829 10.493095396946067 1.0054807990634425 0.4929627513196671 -0.04491511534513555
Ni 5.871625611806791 7.680643532097848 1.632746118528176 3.3610926053131145 0.38741279590129407 -2.234723677812332
Ni 4.4338141455855515 7.3676877371289455 5.520790187054599 -0.23957436412735514 -1.505358532335388 -0.9781345458400058
Ni 6.720973665874757 4.410645637179214 1.5495408325314481 1.8992204262961356 -0.0030914944411301595 0.4467978227278306
Ni 6.747166977541193 1.184006348501195 7.071418464193665 2.7455581672060974 -1.4093933923919728 1.7504671960174112
Ni 6.756018702418904 7.529394090555315 7.546856298332939 -0.35742627684153283 -0.40653640410462244 -0.9873807470286221
Ni 9.351095771756048 0.5876487565513207 2.953232332408024 0.4644952400075936 0.9458026664765196 0.26685428288923074
P 8.300319944763304 2.8157299721850064 2.4354648818488256 -0.8357388823481928 -0.2330656164745599 0.6785526908107667
Ni 3.9694047812467472 6.7886327621098435 1.72951755436107 -3.486483506716815 -0.43738655671625964 1.0063845418246344
P 1.888896850555438 6.534614238024822 10.141194796076515 -0.42212885922624077 0.35842129376495047 -1.5166533885229172
Ni 8.446132163267745 8.573925461738103 8.95259835502081 0.8240573322452065 -0.06862505736756568 -0.8264844536294605
P 2.545659578038727 2.032380156120356 9.099670598932372 -0.5341055441065641 -0.4443665875785186 0.477306789949965
P 9.03510589498944 0.5318689720153263 12.38797783211221 0.9442222093632769 -0.6818308473414064 -0.0036897901467613874
P 9.204513434630172 4.538485328337611 7.958794604646642 -0.19404758334014968 -1.273523960054452 -0.3896157170898838
Ni 7.554529648934477 8.924700575995844 11.170754318975577 -0.0953007668865391 -0.4678644135901426 0.5435178385593994
Ni 0.8971974725106895 5.449535657496543 11.763837515003706 0.3101264633143046 0.007788385696167231 0.20405251707166147
Ni 8.875245970546995 3.7518323528846316 4.473345355063004 1.40886425936138 0.3559736035554063 -0.4600767992249237
Ni 9.051900048059313 2.0747923515249886 7.888639581795093 -0.23406886092809365 -0.10233427669455278 -0.14528018412845947
Ni 5.764050246783533 2.78894283411168 0.1170190606003383 0.278673644121662 0.8477215086313659 -0.06442130369886324
Ni 5.262721581303833 0.4477478943567219 11.191246897135864 -0.26019769680466154 -1.6559488158228515 -1.3263673291077285
Ni 8.35542517961522 2.0117539670185183 0.23413183443051402 -0.6919527662667567 2.2519698664872894 -0.1499145975766773
Ni 2.4634331777596077 8.113171841216719 3.9803887140667 -0.5957670256721029 -0.12700966795404575 -1.2082081695657771
Ni 8.347185838219614 6.669227261636814 10.589731366129888 -0.22351088290658927 -0.11946142329314263 0.6770987319730597
Ni 7.569941299900807 1.574335868580409 4.821239483393566 -0.027303572910959428 1.3119295564158437 -1.1883625955947599
Ni 5.652021183708596 7.181300473666188 9.885006022045062 0.48324089604621284 0.5382331931216925 -0.6125221336432547
Ni 5.992385778770539 3.467315275683219 8.64936832317226 2.110450177842527 -0.1395805626405209 -1.0228120912530385
Ni 3.834030917550928 3.6166440599409655 8.079114041074027 -1.9818865351377999 0.3063186595324402 0.629185967452181
Ni 6.784707940701802 3.9896412717690626 4.171311326712083 -1.9032002368794902 -0.7043945915745352 -0.9497544520354159
Ni 4.146188758285572 7.983903255266742 13.136661175967106 -0.048300229767284555 1.36653953045124 1.850288476482123
Ni 0.15831133651572593 4.3797573854833 0.2751541049015186 -0.15978943348822802 0.39661014612984596 0.2506776731293683
Ni 8.502332265557367 9.105483602743574 0.7563399930887404 0.20749830952841683 -0.800634325335576 1.9519288124334448
Ni 7.741863323233217 8.285093864549127 2.945613725178371 0.22212582963360458 -2.0475391401406027 1.272436640527544
Ni 5.462525610147273 2.5890367413545565 6.2934557670640245 -3.365370149642546 2.360882053509676 -1.1839762936016063
Ni 4.432672885459809 2.604606127460217 10.202100972640743 -0.5511555576103153 0.22092538156760017 2.1050043242366065
Ni 2.7798684243313843 0.3412961602377523 11.451210180266113 -1.2507910372333104 -1.1367476996319454 -2.157954394071077
Ni 3.687179502834428 7.163430010233828 11.206239158202326 -0.3308564967728044 0.2652794822029431 -1.000930460688599
Ni 7.577809499792107 5.6619121047983665 8.770475507442535 -2.347531600344699 -1.3146680383929294 -0.5774854537540958
Ni 6.776403649542941 0.8484573144576297 2.2124116213218623 1.036493188284557 1.1506576248448184 0.005007480516920408
Ni 3.372729863310691 4.949255466766509 6.425658226605544 0.8825578995842608 2.4174959453489784 -0.4014039679740635
P 4.560828046896866 3.7156460562147413 12.168646193019681 0.6454808479574625 0.8628501367426881 -0.4138681618793453
Ni 2.485655275329963 7.2255498195171395 7.728693366952898 0.4944928148109484 -0.6338607472200309 -0.04433327469973655
P 3.134549802921953 1.9042342732209065 5.988841377404412 0.14377557455847495 0.17780952421473248 -0.834605282964382
Ni 3.553893310100333 8.726241935105516 9.215413860611656 0.055126508660498605 0.37488406730666407 0.42216793999429225
P 5.782625879074076 9.0286387542769 8.795136932549946 -0.4948152311473736 -0.5383409223441503 -0.01114650353512274
P 0.25295427582142144 3.2543913946625427 11.857743738423352 -1.210445543536728 1.0706333245013755 -0.08357216559570123
P 8.49890848518014 0.1861107630420484 6.355177527083967 1.39974249956577 -0.37749193724315633 0.5315696650585877
Ni 2.427618022594024 3.1500078465763215 11.930492112536244 -0.49270718366543537 -0.0799836769134945 -1.0409491671733813
Ni 5.336829261176247 2.568688908380949 2.9692294590973973 0.4664032556635838 -0.19307982011024166 -1.0920297878992806
Ni 0.023913574976232727 7.766377219592665 4.978008726958899 0.9272884097224159 2.1503812097095096 -0.26003391753328764
Ni 1.7469166680829615 5.021915694772127 2.2691498787927284 0.04255818507718477 -0.205753044702536 0.19673027237863536
Ni 4.561319809390072 4.532277986678083 2.378143004362437 -1.278394914993508 1.340812043778149 -0.8236343857751751
Ni 7.960901760537342 6.0751224986180805 5.409597120218113 -0.7461086834838698 -1.0457848979991278 1.9710351942455926
Ni 0.29639638890050485 1.4232719977900294 10.458846458928658 0.38525949700371714 0.8559855484123711 -0.40049662566844574
Ni 8.884459558391406 7.456344163970176 12.879970433051078 -0.30589211351798284 -1.9818384555086836 -0.8885619396864957
Ni 7.516710329645639 4.849446237720866 12.348310228131924 -0.007086217422820055 -0.15287316598436898 -0.24531203794208076
Ni 7.419879511172056 3.644989992332379 6.5119597606019495 2.166563990116959 0.24017523093614765 0.9409633361063472
Ni 8.19526834196933 3.41746169311724 9.784051821458633 0.05164883452454331 0.5668634552638754 0.6622580674158014
Ni 6.24231246777058 7.1368284429126545 12.284388526845204 0.7693738246593975 0.4009247143447998 -0.15261039924128558
Ni 4.646079250436084 8.675683183681356 3.1708938347311735 -0.23590051482019372 -0.10338431522562196 0.8311911150765103
Ni 1.0556192236239466 2.641840898879773 1.6637633418968365 0.6818575868142839 0.20729802059215266 1.81615193980973
Ni 5.1377025655781665 5.670114332043541 0.11494901886006845 1.2832033921257449 -0.773073642108488 -0.8620677500507088
Ni 3.9106716381902333 1.471659571413998 12.76016688331468 1.8016298349341555 1.8112082226512096 1.620337494377145
Ni 1.613120155780445 8.601798188711527 13.329620427617371 0.3207358633990347 -1.9795805127124424 -0.5523277235415455
Ni 4.288261726134125 3.82480805116891 4.658754660661914 -0.006320285791072986 -0.6319650728592148 -0.41004955946420346
Ni 1.6850566578526647 0.4864013541764899 7.679574644565446 -1.8023708268652379 1.680337786190177 3.921102527990266
Ni 5.4967634139195525 1.0844105258205283 4.556278779907828 -2.6262522956542127 -0.4402487087554031 0.08341918495760473
Ni 1.225555639908315 5.674595865708043 6.097604395241451 -0.8748818710962417 0.9756027805570874 1.041493983933258
Ni 5.873954524746314 5.221784673378819 5.846400051612835 -1.6801485529975062 0.942862610011589 2.28232302485785
Ni 1.8760089618183924 3.8158820979903365 4.583846242993959 1.3082989016417919 -0.16685611052702234 -1.7055142854558047
Ni 0.7822902070698555 8.38831759543439 10.8552626996785 0.31942948588278536 -0.8845605318365862 -0.18256220840836945
Ni 3.242338574310187 1.3213658192450546 3.564525586344955 -0.5762832059158784 1.0208061165666031 0.8181481658496231
P 0.7755762572569497 5.891203326158963 4.09351078887182 0.8243666359555093 0.034798852846740065 -1.5659332085946516
Ni 0.38445620577356265 1.7316998664063923 5.304432319265326 3.237203228155606 -0.7111859034647559 0.7855738314580277
P 7.54562225283112 6.301880679211784 0.5327272367440352 -0.8015354969936067 -0.41877665492455624 0.29532822195920755
Ni 5.637379651363703 6.0233946514553525 3.7142190171306826 1.188972718374933 1.8013467564760974 -0.3688849123004357
P 3.2515057694665592 2.9834673750563585 1.7701900239642654 -0.25786930578180106 -2.1381509861919046 1.0480307566105111
P 4.9225054428436135 5.606129536701089 8.325171579891672 0.46783407457283943 -0.35609418829367057 -0.3173080686644083
P 2.192286473250839 6.379365746773387 0.3713975919445362 -1.4153755781173365 2.3216321068701173 0.0283366421611641
Ni 4.960714460711974 9.08877295651217 6.63925944087158 -1.6068978239324714 0.6302555463672759 1.1779861374564422
