# total energy = -340862.70552537043 ev
CRYSTAL
PRIMVEC
9.31618089654547 0.00000000000000 0.00000000000000

0.00000000000000 9.31618089654547 0.00000000000000

0.00000000000000 0.00000000000000 13.63517243609068

PRIMCOORD
 96 1
Ni 2.480507621751294 3.6880895871632107 6.434942154989585 1.6845217423645373 0.9307311168553777 1.4364758504310615
Ni 5.8054059071170965 9.07329848321784 8.655266552533408 0.008652019248043163 -2.9230851271834046 0.29467439042529253
Ni 5.41735903540317 4.161053445304824 10.784534600615444 -0.3734249662626343 0.6709298841581864 -1.057636140910759
Ni 2.00277387912795 0.08524398436774298 3.1716228919593124 0.048967431037638245 -0.6457898945574492 0.7323028879490291
Ni 8.79565766813085 9.309715199024248 8.614143068003612 0.5930516836234689 -0.41159839200856213 0.1767540863670246
Ni 8.934515340396858 6.653383300273532 2.9738860265038767 1.3452739362042445 -1.7804958811690175 -0.8211751256014053
Ni 4.590799541511381 6.265308480017721 4.3591778638744 -1.570621100988624 0.42500129567802936 -1.0634969705669106
Ni 1.067550454386732 1.8571340273644796 7.298294041037036 -2.411050703944267 -1.205436777468227 2.9493317195847593
Ni 4.1223726633357884 5.489056361519186 6.901210474113581 -1.2175291898563871 -1.0352973682042428 0.34086631560032266
Ni 5.986987583744858 6.287602100261434 6.114869863612572 2.6486813140816903 1.118123656772855 0.48113053457142946
Ni 3.843604590392764 4.386831082833622 12.414687339913938 -0.909195299666131 0.2298273120429203 0.3349550923222102
Ni 4.197451763019906 2.1113353319904657 10.205408206123122 0.6289795078683298 -0.5446262411322299 0.44949311017180654
Ni 8.295043385884204 7.323021047660884 13.113872285782262 0.0524355920918968 0.5329184657769983 -0.7835202913631086
Ni 2.623259457519966 2.2620897669189164 4.520563924135959 1.7148761862866788 -0.30126052828324246 0.6693257728958601
Ni 8.930472118004142 7.978740421189433 4.8003716828371115 0.44673740180354027 0.266146972409561 0.8867068887556279
Ni 0.367572701546935 0.5566287498928458 12.358292772098102 0.8744172727549973 -0.9145233967472637 -0.715778922152077
Ni 6.444188464263251 9.165593884703204 3.3565434877242852 -1.453949838846109 -0.4256286448493831 0.03590005633071881
Ni 1.632530228594858 5.310241590538053 4.593266466141776 -0.7517957065663182 -1.3059190885557057 -0.2776894258315218
Ni 1.2123332175323909 5.1653936141279955 11.432218768352017 3.3094280870592874 1.9719759608923073 1.9718054967527137
Ni 1.4874493476690909 8.155841014934945 7.081535397974574 -0.25977037945925585 1.1655779936000765 -0.07910178852917343
Ni 6.083167832552257 4.00111325627679 5.692929795154535 -0.14426099883532575 2.3419813599504313 0.784984534613461
Ni 1.0778820987036057 7.658217226670009 11.224446513123688 -0.8087189021159233 -0.745982956539283 -0.32460203122266035
Ni 7.477529903382571 5.038488601608198 11.514261713055848 2.1135951512294113 0.3047181478145397 -0.7356311809913137
Ni 3.031811242796957 6.782635990311681 13.08574300999293 1.125861391736745 -1.0647313571946437 -1.6393736850729896
P 7.949450349293806 7.250652956539625 10.8522473962767 0.2855976249350049 -0.7710748665109043 0.029438616976091236
P 5.092801934671655 0.6637862543346651 6.836975408680899 0.30791300060275356 0.28588481715812053 -1.7666175805250286
P 5.609169878360893 4.456068937263744 8.412873506853895 -1.9608587679332228 1.3098374497735055 -0.9794704910426099
P 1.353296346620414 8.11278162807057 13.338661476546388 0.062463151531227896 1.6574179441692103 -0.3160032338100558
P 5.644385041136171 1.835147841081502 2.783933761581516 0.47200080435601943 0.08935817614985901 0.18201893431038976
P 3.6146594514503168 1.6944641974123305 12.34782045345374 1.6538556807392484 -0.022361398414335685 -0.2846679140318839
P 8.535344949012647 5.5658310060776675 4.77262343883548 0.039965227539027946 -0.15706097881347145 1.7732592542112624
P 3.4039833427201236 6.085515510070609 10.765022791907363 -0.005782411009731977 -0.023631523376010915 1.006251101570564
Ni 8.088363918643585 0.26498851017558767 2.0101653368385066 0.5329215511007919 0.9113545121009788 -0.5805160130503034
Ni 6.081658611290459 2.0141582518558305 5.171015929137223 0.1471414057069143 -3.537433772512437 -1.2809505915358261
Ni 3.552473945755878 0.03187624363806619 8.420237016022567 -1.667673303348631 0.3194634244445143 1.8675233523031707
Ni 1.9566774173787236 6.438235424841716 2.4998722348054447 1.9396098858567759 1.7576323463072825 0.43029493997680085
Ni 3.944107547011731 5.304316499658404 1.1452967765847546 -6.758682534221315 1.056423865770213 0.2882528031696649
Ni 3.636291622869416 0.4613335382451433 1.4441961842476467 -0.1106854768727255 0.8811723320906437 3.6988463434263847
Ni 4.463493933224563 7.9585522577677335 6.794774042052398 -0.5817982221968366 -1.2478165279860187 -0.22800748522536216
Ni 4.637548135904593 6.596834083859264 9.072543872586943 -0.5853946812988434 0.8134718434198764 -0.22538058912547637
Ni 5.321104257150744 7.130716447129856 1.476348186832313 -0.23683228260584374 2.898985920142356 0.3323366808627567
Ni 0.7522266202760054 2.623007920643 3.5134158584713933 -1.8341121238325766 -0.7078776650271293 -1.4773016261981717
Ni 7.135877611197979 9.148834075752749 11.508562073747406 0.2777526749692894 -0.9604453560903587 -0.0707233346574911
Ni 0.7662698309552259 5.918159641262385 6.741665291144191 0.51005184559147 0.04713294893206076 -0.5387780098815689
Ni 1.9138602512106877 2.758819201843528 11.82200776584345 -0.7914030365452952 0.4626558728060096 0.6619780742815374
Ni 2.6656853441016097 0.12776396437373372 10.896779671298422 -0.06675535114867859 1.0991208904181071 -0.25343749526269255
Ni 4.754019026120605 8.078796201138239 11.122004859315958 -0.2859346965594495 -0.5063399439575215 -0.22710014291974437
Ni 4.794814581092282 2.613561313485822 7.597749624683443 -0.7016561095974496 0.7620932318375844 0.4371978377442212
Ni 3.4211064827150865 9.056892689131264 13.177275416284829 -0.10138425407645765 -0.36435154320645635 -2.438029803636272
Ni 8.157061434597262 3.8959801578855178 3.4387084743943483 -1.1544731419361665 0.38839418597795694 -0.30555144234911247
Ni 8.04985082792586 5.273675581571661 0.8858756159526869 -1.1876234034358901 0.5296801613453587 0.6180338074901034
Ni 6.718661777936593 8.45369794198552 5.592928980671438 -0.057921040686500246 0.5689159669175299 0.861616264335587
Ni 4.499454390450111 0.1262761703273814 4.824478231831108 -0.8996642202472441 -0.25908980845246343 -1.4245317906953079
Ni 0.9107488866123996 6.145679404568688 0.2404999977758271 0.03814437228020528 -1.773018598955366 0.24477930536706227
Ni 0.6858497649168582 1.7902531666333372 9.955775556477295 1.6728468771297704 -0.2831321941136479 -1.4161528226029934
Ni 0.8860358542594952 4.552742943644447 2.001029890114317 -1.6800557361733839 -1.304697814554095 -0.7700443683638609
P 9.207963874201079 3.9270496202811667 10.772481326118445 -1.1930103787794164 -2.0813519749249894 -2.11763512562674
P 5.774457555069618 5.141628037344997 1.0848412856330059 6.200572656780353 -2.3564073055677737 0.7470044558252618
P 8.351853455356066 3.0418540855143514 7.402562597865995 1.1181090014848356 0.9978669912719266 -0.35486674364447274
P 7.525778402856953 7.409773321672361 1.5905971679684552 0.0780653768448591 0.7385300998056635 0.6496195527161844
P 1.5278536230543764 8.595117563924335 9.249964011328005 -0.47077927324409247 -0.1762180113578965 -0.16946680867699201
P 1.3380923398348974 -0.012082154656946467 5.207135693051516 -0.19846550990218723 0.8808632854906571 0.887651254946768
P 8.67785456408498 2.3892928972188217 1.4654398709345424 -0.017758609535001676 0.9490975351777073 0.6641439715846046
P 2.2105712880439734 4.004262125329182 0.2604245132857441 -0.7098198763551646 0.7480282691040858 -0.5686174618405045
Ni 6.782272659267175 6.0927262338769745 9.080315430467136 2.4419623059214586 1.0268937175215798 0.49431797979598097
Ni 7.211785850958021 1.3579917016571177 7.5227972250558715 -2.1409519459758095 -0.19005466013067268 1.0975419759667613
Ni 6.067227847497097 1.8437280434402403 11.937292706265469 -2.0746745629048142 0.9324663543789296 -0.2656607768017618
Ni 0.021348959527996397 6.018560119894438 9.568032392251855 -0.8393587384889672 1.297274011286198 -0.16437988107238788
Ni 3.2654051558729664 4.497302352724955 9.190078670630713 0.5222874684257134 -1.83757797089399 0.0059688159889252045
Ni 5.493761032736518 4.258584540303338 3.2676960046894847 0.38586936267357413 -0.9374923468386113 -0.7417678900166709
Ni 7.202609413039067 3.5178270699989316 9.331815974328956 1.8983724764735432 -1.5579615032430845 0.34703644896677655
Ni 2.6585305173790137 7.268586604249257 5.113571427764567 -0.6661039235244528 1.6264991431031668 -0.08575040419394266
Ni 6.728443767596393 6.533987129340209 3.698608486710715 0.5885525102015348 0.0348711008455722 0.08384650230301043
Ni 8.355738302678102 2.075067440804181 11.340495380357236 -2.2563242868012434 0.3571812507102623 -0.00191752873768702
Ni 0.5305136323553701 8.241000222058968 1.6457517521426555 0.14160247816655613 -0.5684562536722919 -0.3749408886865285
Ni 5.883373022796012 6.108945704350985 12.671369543441264 -1.542288572592518 1.4479915643801449 0.9558482236379795
Ni 8.464700351307638 1.0593615316143856 5.693352749755064 1.456557194561969 -0.18197496844633176 -1.357971843386887
Ni 5.6760134743695225 0.869527582186005 0.6461889207457174 -0.18393492038618 0.39382409874427665 1.0541656658636556
Ni 2.3926094575225254 6.5096253169969955 8.488235818429114 -1.0438344591409765 0.5266030650819318 0.4807489828622946
Ni 7.881162745287778 5.178613274439667 7.017068359644244 0.08811119111663536 -0.5543187858296453 0.028007540956519507
Ni 8.967140604957446 3.669392012642051 13.16139039669538 0.8796744073888785 -0.9008865226901194 0.06935113690031282
Ni 4.5538515691392245 3.054011701234388 1.007242159088912 0.040927077231665 -1.2864257557177845 0.0336246300329808
Ni 2.9323144336858555 4.038405927332197 2.8560913070205727 0.9575384668562091 0.7467851407256042 0.9876748812302732
Ni 0.7662940530248596 4.214155674886592 8.462846431362589 0.18034746014523778 -1.6284189858336988 -0.29807107481166734
Ni 7.639845718470841 1.225217495341441 13.50964692932743 2.601677691638642 0.6825160463338891 0.023778590476836465
Ni 2.8913884521853808 1.223577847550846 6.479352388045074 2.0507378495835584 -1.717891318963919 -0.5370420010270687
Ni 0.4523490136471333 3.262051330846749 5.802638069852405 -2.5406379028175015 2.226489462827998 -2.683583268165197
Ni 1.04438111316395 1.0866393084942834 0.8674044246207973 0.6349930610522613 0.8129427103892838 0.7863829576228845
P 6.466938577357756 1.2142523507418375 9.828900355735508 1.1868227619114657 2.6266158496412184 2.0724659852892695
P 3.9136250039956706 8.151061814272586 3.005737116454246 -0.25785696448662687 -0.8209272712566571 0.7041719340407679
P 2.632743329399657 2.2436623616359803 8.805048378204257 -0.7661596885974742 0.3784640713484385 -0.8956216747467542
P 7.3905633572166405 7.908766588489669 7.671052128721727 0.07001936661193103 -1.1698969326904045 -0.7105037897960668
P 5.601511977884364 8.414150755218046 13.172366720711738 -0.1642991484331235 -1.0903004639129998 -1.2076664381296944
P 3.9855086537242532 4.223145789192979 4.932550585210634 -0.4115726809769492 -0.1748589262268408 -0.014308960423504389
P 2.560757201684162 2.04182730832212 2.4004043058542908 -0.1785047505095442 -0.4155746030474907 -1.3482798129101037
P 6.257445623567368 3.8146126362772446 12.892572936281526 0.16680031758842243 -0.35902961677291073 -0.1705636412855966
