# total energy = -340871.49641980365 ev
CRYSTAL
PRIMVEC
9.27513154841887 0.00000000000000 0.00000000000000

0.00000000000000 9.27513154841887 0.00000000000000

0.00000000000000 0.00000000000000 13.57509256577516

PRIMCOORD
 96 1
Ni 0.9014778358552096 0.3459911501722394 6.026879215893165 1.3179744770583433 0.4848570914933972 2.2968685267721924
Ni 0.35899859429890846 3.337934250075343 0.5268896008773897 -1.070308594172105 -3.0806968362940235 0.08619366237894834
Ni 8.985162864330436 1.4745418228533897 4.382691531620474 -2.015241199338845 0.34744242615594356 -0.4293775703688541
Ni 9.396357259986182 5.6929550115343845 10.349826844309764 -0.32467762165560216 1.7494369549806839 -1.277764994718993
Ni 4.517109516872132 4.371638357657445 0.5206465100034158 1.1437711821376302 0.25389695139761437 -0.00806400795505708
Ni 1.6927114611502447 8.029026679759838 13.318835327062258 -0.5615865231356522 -1.7828037033665878 -0.7392914034517204
Ni 3.3077900733699277 2.154075041975097 12.552263348364772 0.6128514919582155 1.1045405187717816 1.3589684029722016
Ni 5.4109539196724015 4.901489507957001 8.705122535223998 0.6191663784326499 0.19420879150836232 0.45154176517071914
Ni 5.848879243717381 7.710731999144535 3.2357046804662914 0.5909035269322147 0.9568339845900166 0.23120053824136313
Ni 3.7097742636507585 0.9463694713180434 7.304295745842597 0.0889704537931371 -0.6798061036018938 0.12534667842932604
Ni 6.551609566205316 7.3169748503214596 8.494695776531353 -0.17657513758699914 -0.7305676504254772 -0.26303490914314054
Ni 7.28031025631638 3.3743020398790144 1.4929752187870335 -1.7621726573797973 -1.780139269160547 -0.6550787760585428
Ni 1.457642533635769 3.569181823496701 10.286552826135404 0.2682640187525638 0.8511552169032632 0.010382114565272441
Ni 1.7176337389371528 6.440781022373622 8.275580074842512 -1.2992144228420204 -0.6717840046283656 0.10576078587759852
Ni 7.298044307350458 7.773858542731321 10.784257298883174 1.0729640295170813 -0.7185246032180141 -0.06942929843641592
Ni 1.632896139435407 8.18137071126336 10.145399240538062 1.9481354068292835 -1.4836028858258514 -1.3913162231752878
Ni 1.467993580159844 5.417427961315595 0.3110424554565456 0.14234192743574195 2.174761952546719 -0.4243580056670756
Ni 8.384867091853149 3.920913352426781 3.3378164559079093 1.7679013323334585 0.27955064740997665 -0.876873961825606
Ni 6.3481595612719985 0.8052047555631482 11.176563817171873 0.6441263908120971 1.3127062866808683 -1.739469816465643
Ni 3.706620719010807 6.730285695452431 13.092551803909435 0.5864465196021255 -0.7679856860626193 0.7875222134336501
Ni 8.59191584772853 7.8325979492160585 2.3881710082168346 -0.9044199897646746 0.1829188204168398 -0.8638430967835768
Ni 6.6966262439866 3.290204424436553 4.651613760844826 -1.0617915578400294 -1.0481138032426207 -0.41230930203265764
Ni 3.3673827919337103 2.6384594986715917 1.6237035568099492 0.1119813128660136 -1.106079066903495 -0.05997458078141929
Ni 8.605374063236086 4.251191502673899 5.639555298135589 1.2875459853651567 -0.3690723457208934 0.2587133989496512
P 6.875051944688776 8.483869843285026 1.1459322687260574 -0.45055831821152725 1.467894473951659 0.18485640375918486
P 2.985182456702926 4.592330831666261 8.896341424519953 0.032880552778104664 0.7416167091507873 0.6613476397863901
P 0.16840021128652033 2.4919959004084493 6.722779331696218 0.5474148596209605 0.037183036808200474 -0.700692974353232
P 4.910133930322985 2.7187543102835248 3.1398239382279653 1.087471479104637 -0.43774856804136864 -0.013528116393421863
P 1.8393512869079727 9.741948651999653 8.494708761715165 0.14923531212146557 -0.2299134439988234 -0.37558906379348866
P 5.788303361236437 1.923634404976314 6.4163215736382835 -0.13040763789200122 0.41121144098278856 0.46594817040403624
P 0.42051868514557883 5.8528397247799075 2.4997174472106827 0.3406056057397682 0.5663155531802054 -0.07093390800640041
P 7.353926973396652 5.56296404644934 9.65785010904406 -0.17468486254282173 -0.16340054787825406 -0.7210545687287194
Ni 4.023292251649665 4.103058380777841 10.803723944442966 -0.6469630889299438 -0.45929826918768635 -0.46371285331561424
Ni 1.6100422159270549 4.096751291497939 2.1155693344081636 -0.49074337507084514 -0.6751796605734759 1.8664406607619533
Ni 6.094243566968167 5.6183829559308345 11.550896986039108 -0.39236576903119524 -0.22176587519102453 -0.495925690602733
Ni 6.703165211548851 7.724255140571149 5.840289544626032 1.3680179147689793 -0.8476073516510046 0.9355321377884469
Ni 6.337650837515926 6.598050148594244 0.367206157980946 -1.2359326320642392 -0.7980724781456707 -0.46928726207959826
Ni 1.1905744031570835 3.280233658295531 4.497386877688626 1.1349281299247034 -0.45317158746465824 0.1804593031327537
Ni 4.4381781495604145 -0.36631481786359515 9.519845430521022 -0.3653097933546676 0.5534980897005628 0.7744165292896276
Ni 7.993382350197097 3.377817314639431 10.547805449292767 -1.1282226928800698 0.3117686269034179 -0.3451569725558766
Ni 8.078639357051305 0.6569241590795161 6.824999626173976 -0.6108036082902513 -0.27713818131374207 -0.7988216976068695
Ni 8.1860824779607 8.785831017691642 13.018228321824562 0.7916714597153334 -1.0672998892527683 -0.27432205202118565
Ni 7.50584434886065 2.7831237214637037 7.6959641350982695 -1.2210729413435875 1.26610581321351 -0.665202494756106
Ni 9.35165112714923 0.08425065510881231 10.943709791010397 -2.361607361711475 1.5942747358518221 0.6299282449348441
Ni 9.264733871793398 4.50673992008547 12.26884223390168 -0.924243195138189 -0.026085898453774427 0.055855159296407025
Ni 2.3685717282795378 5.967406146523074 11.16972155281631 0.06960953276802205 0.09352516304335505 0.2487269771609007
Ni -0.011739533678782822 4.414879019749952 8.347568078867562 0.17758840934286188 -0.1670330024245188 -0.14235812538565806
Ni 4.6334289384298595 8.395542767972513 1.1361024845807037 -0.2694055885561747 -0.6557295222686642 -0.0724868543158171
Ni 6.347334074586835 5.53073296520278 2.6063499216449832 0.28821526506351014 -1.8453229049467317 0.730434981502355
Ni 2.326713060749834 1.2442959636117805 10.617690781053472 -3.494224327004498 1.4225795520649436 -2.828203964332787
Ni 8.393186884623843 0.9069297580298075 1.504690637124452 -0.8972846642714739 0.1575713427909867 -0.6907919131894361
Ni 5.712024681474796 3.1229088812871453 11.999295788341243 0.5290769805437211 -0.5970695465336103 0.28556085815979854
Ni -0.03913270644240546 1.9162792258601928 9.043210346020643 0.7300876254652652 -1.5265585634517709 0.27075001839921115
Ni 6.694511514051574 1.2946135508815892 3.2094773917063217 -0.5985456168585046 -0.30521308517308726 -0.31207124574550127
Ni 1.163945501212084 0.9747235476837218 13.03522407240764 -0.23564211895248446 0.688592334434956 0.9655322836949629
Ni 7.4622141312537975 5.381356975713331 7.1285663258075775 -1.091142757308637 1.692876799197452 0.7032553357637695
P 4.331922245456648 1.6301692508349783 10.663139851907074 2.4075833142209566 0.7733209822326037 -0.1012883519285417
P 0.7658874740079926 1.696152534860309 2.431868934282134 0.9437074745103876 2.2891840136437414 0.5298323706525068
P 2.8709499396863425 4.322211182991858 12.758808464610889 0.49326022795542795 0.2506825582253747 -0.9407314226011991
P 7.733010864512661 9.321228696504994 9.274543250649906 0.13574627649609525 0.4020691123618882 0.5185773665639778
P 9.62165019911681 6.687360387823919 12.31039574961181 -0.19306310793969333 1.0180897460767047 -0.40373467298976917
P 7.057716380392299 4.390318472083509 13.16346853027003 -0.5656635214185033 -0.8550627794877854 -0.9493888411658812
P 6.287314699983529 5.773101421045614 4.958818166971924 -1.0472177737909127 -1.293342794552592 0.2826030610830552
P 2.753953433544156 4.281938562913423 5.646940157671851 0.2555828237404695 -1.539651392079987 -1.3611224732007268
Ni 1.3226151722580965 8.98834423436427 1.7176838246461403 0.7308568995311219 0.3225574899888058 1.1569745682017818
Ni 3.9855424672831914 2.0487281007381406 5.079989409709529 0.0004689692166185472 1.2941305805612098 -0.010621227159272032
Ni 9.20402813747434 8.164452871783153 8.13822743804944 0.6696841846765434 -0.1606813491748781 -0.27403460268775387
Ni 4.151845571384144 0.5165144390119504 3.053065287617262 0.02924218469456899 0.6162129522312807 -0.7246150323864682
Ni 4.88405226112433 8.905999618736368 5.172693419479669 -1.0932065818162011 1.0667648426849048 0.39534516337449327
Ni 2.6385244245906496 6.5568871159115885 2.6131782733036073 -0.6075653038586117 0.8321156837733089 -0.19747974895015022
Ni 1.9812236951805982 0.9542440577866274 4.075867405876427 0.9329702905985418 -0.6034793067146962 -0.7440826541927766
Ni 6.089893530391294 0.2346265037517531 7.920020699227409 -0.4949836384044379 1.9848026803433299 -0.5314043431253171
Ni 3.9923133131277924 6.240651514443547 4.988439226272359 1.135465233375096 0.9110675769881793 -2.2558476042751407
Ni 3.214825432410427 9.08252391752328 11.89540504271744 2.4233619172114524 -2.2442742976152443 1.7086880551980963
Ni 3.6733229976654407 5.4931872337247745 6.986597456169496 -0.7274609864756956 1.011074491101136 3.311819212999284
Ni 3.429080965301225 4.296185164580967 3.4327743225824854 1.1636470951259508 0.25859409976296754 1.0315970365345202
Ni 2.0420407310751854 2.86202726338154 7.979615272817451 -0.16818871329551677 -0.6195918960058426 -0.9719834386369454
Ni 1.285134366699148 5.6765380291440515 4.4901114647016325 0.6830531497842817 -0.4498798040872639 1.085173941319712
Ni 5.738282578168035 2.5970831379691743 9.165277566441246 -0.9649949231342543 -0.670507194798471 0.8834428732923754
Ni 3.8263997645411867 6.701811042379931 9.13313181640259 0.9471524956361947 0.19557096196321158 0.5332712211307268
Ni 5.3973380269328475 4.180097621305589 6.309214212481732 -0.14104891965593128 -0.5493781539949184 0.2653296187145882
Ni 8.232856965076211 5.438528885009386 0.9646396249409134 1.735650442719553 0.9414315339920173 0.27114391140352007
Ni 5.5390991336299455 1.292554471734327 0.4346688254476655 -0.22847773999356133 0.11031395246591968 0.6386203733922033
Ni 7.585378599706477 1.8500733386838066 12.976036677081405 1.3651483065306684 1.0573494629082756 -0.6563751262724631
Ni 2.1316848750314437 7.579043685032692 6.163593723653212 2.4877266566407674 0.5039647588571257 0.5253293405758307
Ni 0.6269441521980041 7.972170124927778 4.370853681549975 -0.029049866178104806 0.5679877986763057 -0.5470075968802128
Ni 8.186555509656692 6.227109822754344 4.064328215033594 -0.2645636870828411 0.227601250925879 1.1590623039687455
Ni 5.773843431549132 8.436204943565295 12.44309227049531 -0.3175950037772079 -0.14633279376268993 2.1681146224335306
P 3.1316460549660685 0.6681795309047536 0.7219066564382269 0.19618776961160406 -0.46562806806045615 -0.8379024656584151
P 7.722353738655884 8.95263497888247 4.377559601475518 0.3707080815521035 -0.37922614632544366 0.050403649263532545
P 4.748125212011142 7.968144717946194 7.131620626542684 -0.9572862416360869 -0.8203495443763162 1.3773024253946988
P 4.625072045133989 7.277342214302308 11.215550904052963 -1.2986901749074344 -0.40562880468868856 -1.8450405978196225
P 9.61497210458515 6.574862320359309 6.373587333714428 -1.8548740389702767 -1.1547446504299983 0.7531280522244965
P 3.0747245742149505 8.134948679137022 4.180951860897764 -0.9902477841637721 0.4633608692928342 -0.49545595005516607
P 0.3441453990447386 2.3509026031645175 11.677592496975404 -0.7446097303408402 -0.49658055057791256 -0.2577736607442012
P 4.532636086658244 6.236171626028557 1.7443043789729749 0.026584692467063895 -0.16844736627354215 -0.5610864435707821
