# total energy = -340893.86128803645 ev
CRYSTAL
PRIMVEC
9.05449871109240 0.00000000000000 0.00000000000000
0.00000000000000 9.05449871109240 0.00000000000000
0.00000000000000 0.00000000000000 13.25217410644610
PRIMCOORD
 96 1
Ni 6.433167066576971 2.0631399863420317 11.443769151234598 -0.2508987880012389 -1.651349626487943 0.1822804155018925
Ni 4.793270571890145 0.4446628140037332 6.012087600133677 -0.31143669748529595 -0.7358589807314038 0.19515058659634132
Ni 2.7476238772192985 1.570955540864672 4.738579588270948 -0.09042184152768298 -0.5393595934166517 0.6163420216099772
Ni 3.604559752138689 3.98889606247346 4.871711505847603 -0.19366963117544064 1.4724805506604448 0.15093326864917878
Ni 4.780838745045147 4.325877344112426 2.4201778882609353 1.5857641272776497 2.0952888967210557 -0.6782847818613609
Ni 7.2235614298547794 6.1660502976372085 2.616708500947564 0.30961944177089906 0.6382161959752493 -0.8704881129039203
Ni 5.180350395359683 4.306881005641335 11.618233950358764 0.6566358361330176 1.1037398772473572 -0.6802935847612736
Ni 5.623821637322045 7.962834092938226 12.485191344544031 -0.33682377009983283 0.0684049709369596 0.5057354776043032
Ni 1.9441457631832793 6.491631965293761 0.39873296341819925 -0.33885494159724866 0.12021835606382521 0.4877966337376954
Ni 2.713841542216612 1.539002214618497 0.3431084609732774 -0.45490116856125534 -0.1481618765516287 0.6788979899653276
Ni 0.61756390118607 0.21400760625998247 4.737413368826202 -0.6232968556612555 -0.27179902848901577 -0.15544118382186134
Ni 8.327024143454992 2.508413073564521 1.3976144050409174 1.3457004822187018 -0.5548160371810381 0.4462085258832637
Ni 7.120231489610702 0.6244833491649102 4.9687567184783425 -0.8286634635586503 -0.07172555066976036 0.0659955901645186
Ni 0.7835708929861914 7.401111096718269 2.4384797466744788 -0.4699282380977068 0.027615704834739536 0.29082184944842177
Ni 7.761896655688261 4.004786707857999 3.4331481300080657 0.03753733482382567 -1.1495255681229042 0.8049944020764845
Ni 7.71608089178754 3.7053544327202768 12.594959033431074 -0.06338694889707794 1.4952206725704378 -0.13423472494757524
Ni 7.9011729561469375 8.702523262966224 7.209209143815445 0.08062311026970631 0.7003895841802003 -0.18533180073370664
Ni 6.9065272090603385 0.7232905672610817 0.5142357718417503 -0.7188215656331427 -0.2961787428849609 -0.7867326276528193
Ni 2.054058324051039 6.586423513174523 9.315258399945128 -0.5067304945277209 0.1229846059550527 -0.06556595882626771
Ni 0.13259045854873724 4.913342280405456 1.3853030030298874 -0.04791250741056264 -0.06156789341046816 0.681474235332936
Ni 6.284356378887571 2.1878838162353604 7.057326264685034 0.21878828061993932 -0.6478002401192585 -0.02928306523483344
Ni 3.163234426390649 4.355793408129814 0.3595650125324794 0.5118619022170152 -0.6608123361082103 0.4029090917646803
Ni 5.91705158078546 5.317471725105242 4.401126567244783 -0.22381324463835645 0.9932058383508315 1.24794662580598
Ni 5.113627793742208 2.8946961011401333 9.47607354213642 1.087168088931605 -0.5869278301139181 -0.3364352764121625
P 0.08583302677337606 5.822911956817909 12.677109595544684 0.5227194137568094 -1.0598542316080006 -1.6768364579051378
P 4.0939554119873085 5.986780276002744 12.530381442578044 -0.03284661421637569 1.0484467611020072 1.0237767691591528
P 2.46061437442778 8.499892634441668 1.5752989839364462 -0.504051405033661 0.2869358841304542 -1.8405355108604173
P 6.464513741403907 7.683041025686011 5.982534621517951 -1.2673882794703593 0.7320262372488748 -1.0460281243581857
P 4.756319162309345 1.0634689924244236 12.571290573581967 -0.2326683810361412 -1.203242855140702 -0.15166860415330655
P 3.989149588439709 6.1230685918592 8.345411114157203 0.46471018423187704 0.798800871671263 -0.567376647454868
P 4.684516986868095 0.9668484357871502 3.8257041143485826 0.45633815811809797 0.21536819919479686 -0.09638217287617594
P 0.20501467805717677 5.7160326530463434 3.6842900467244983 0.41484260997747263 -1.0364507650823958 -1.748549667279724
Ni 1.143546979763946 1.0527937383455794 2.507602695922404 0.6318686564906665 0.6934697171319154 -0.0675513646874127
Ni 2.000736380649586 6.452281113532391 4.845392794201312 0.0583702124087769 -0.9747980252676052 -0.5236498959908789
Ni 5.882689757859918 5.361784442206059 9.143164974055273 0.7950082373980502 0.8467594018284127 1.0945700378226308
Ni 8.727242044675506 2.3659767530265263 10.217134468731803 0.3121823174020688 -0.12729480329463239 -0.03574090504503522
Ni 2.5599603352022307 5.277966946864362 7.037752249190848 -1.1978309400965113 -0.5631263568189463 -0.5119287508992086
Ni 0.6524599395404933 0.21377309474120212 9.025287170597894 0.5855265788910173 -0.6510321167929949 0.9207971455711175
Ni 1.4755573415646712 1.0157789472732177 11.456517885537409 -0.19534419066438616 0.43526591082883104 -0.2587159700528125
Ni 4.1997843938987 6.912874412715358 1.484269580304844 0.09553679415674515 -0.03485695977818513 0.07636793453777815
Ni 5.442260827492545 7.796738367049917 8.078339617711416 0.3198002389586428 0.44893775188896884 0.44308874930735953
Ni 5.549203512755672 2.9608392148347527 4.407739067714486 0.7119950296296125 -1.3760798658415074 1.1739096533942235
Ni 0.794015257345773 7.406715831472132 7.014813581944585 0.57409082625025 0.017517697168789186 -0.5864948563415577
Ni 5.150008769898948 4.413198930487635 7.158121850716501 -0.09352927680841312 0.8978379656717828 -0.9045202627879648
Ni 8.394941938913353 7.236310164157589 9.231372090412593 -0.20332206666354016 -0.3144757414219358 0.5440739681731857
Ni 4.816504415797112 0.1830059078371205 10.408867102507168 -0.48763259735600534 0.8308113631395885 0.3510877362180147
Ni 8.319798653416893 7.234635081880587 4.794649572056564 -0.7926870454640412 1.0281782406609583 0.42698310199474854
Ni 7.428473792075577 6.250338626916224 7.1616205090507385 -0.1358267520250435 -1.402667643632365 0.02185900485662042
Ni 2.4489883979755023 4.977366641382137 2.8191480795475536 -0.8188199951056672 1.7781919156261892 -0.7886545272658805
Ni 2.2922731328384085 5.273602678445361 11.475018037474554 -0.708471075636754 0.28241537055228133 -0.21677176441054283
Ni 1.092479606562351 3.3472852233886674 3.7948925604004073 -1.0808323765215644 -0.6566995994914174 0.9192624540941459
Ni 3.4960687475816834 2.595336261992768 2.6808225014623113 -0.4515412509500869 -1.7297009100043372 -0.23934039373967816
Ni 1.197928299524368 3.256405218987176 8.060568352927236 -0.33699989066638086 0.6221252039506576 0.3530751989616887
Ni 3.71918970687844 2.642935762156028 7.312178715007498 -1.0479189136229952 -0.2426766572017627 -1.023696807850837
Ni 4.308112417477402 6.844404292830525 5.9498415427202564 -0.0684309390788886 -0.02602907707391001 0.11078112191032535
Ni 0.7578253311136001 7.611130196259226 11.439104273455616 0.10328352798169954 -1.0678009972589029 -0.2828768835697322
P 0.4042498695337546 5.538247569214195 7.976881242368182 -0.12966767440218313 -0.4190317083581558 1.0784803313496198
P 8.550552555197505 1.6284878262056184 7.926867812826279 -0.3069537220132778 0.742469801179702 0.5074401190002358
P 1.7661795893752383 3.333803074683494 10.51837040002941 -0.7536425299670697 -0.3561276126347673 -0.175931076245097
P 4.051127632688808 6.121112820119564 3.636515794734503 -0.19627672978098454 -0.14956415621579403 0.9268677772452295
P 6.9722628703092 3.8184541771637392 10.374490792383554 0.2600619425577457 1.2081364357875775 -0.5216498348417146
P 6.411400051474731 7.647954842856901 10.173932738633084 1.1169874862858828 1.2555460354197925 -0.8863878148533121
P 2.3880878390829614 8.352865683014807 5.6449494048093865 -0.01607659384688844 1.35039531659121 1.8307007841581826
P 6.742686053371886 3.9832188917292397 1.413317622300408 0.5005534191827314 0.585327575506334 0.6331601216085805
Ni 5.170426664680791 2.8559428462992065 0.3770881840496863 -0.6311993983377838 0.5206383628580648 -0.7129815619125979
Ni 1.4264095221075332 1.0935570919189095 6.843608402386479 0.32844068824246014 0.34389816044811095 -0.001540090793610251
Ni 6.939223004207671 0.7947097374033195 9.13958754158152 -0.5902682073410608 -0.38854305285099533 0.6900995151081017
Ni 2.8756001631823027 1.723360864575532 9.405703788404479 -0.7213859839262092 -1.2913977550110793 0.14599777902077438
Ni 6.041052941777631 2.066761785859875 2.341765023249742 1.528701835047019 -0.8090035232358775 1.4029468654356807
Ni 4.486594697716736 6.87949953015843 10.596345932748823 -1.7163018629896116 -1.1687008554997742 -0.8988471236625875
Ni 7.912319044163102 7.353584032545365 0.2199129503738265 0.30132326320037783 0.6186094774879153 0.6123239015895197
Ni 7.686300645252071 3.9219380438873257 8.196562397572867 0.5265182186776094 -0.21625497267512434 -0.25111733176994816
Ni 2.977055822175897 8.193913956675443 12.396202824940733 1.3470222863539187 0.5659342585813866 0.3812372632182015
Ni -0.05540176177457447 4.859567612064273 10.21799645701705 0.9389144239971186 0.1306737470691943 -0.06350650519407772
Ni 8.595924648657292 2.582026148764693 6.0328930274639285 0.38917811533183294 0.28556368637327595 -1.380578010822177
Ni 3.5923905057587344 2.698811074217561 11.656532669360203 -0.9501622289967958 -0.35621708702478005 -0.5887607695575989
Ni 1.0164127621888401 3.173610882009271 12.685153612273815 0.48520264775827404 0.3714035649572313 0.08502869553656969
Ni 2.935423236718285 8.485405436370293 7.762686207983151 0.8533352552737175 0.06387648693898676 0.7742725475125956
Ni 5.548017373413578 7.778294353005298 3.924830050802324 0.6211628400373882 0.7758584039424767 -0.6201233430292804
Ni 3.1192114532512596 8.310019794718716 3.6361047204892274 0.6240612446311059 0.23282136167423775 -0.4536238445107285
Ni 3.3248300663780364 4.308239180460527 9.348295549697019 -0.12481703117810115 0.25666345839915794 -0.05891991426465982
Ni 7.251938229077084 6.1259298134782965 11.321531606607618 0.17829392005031874 -0.8946657385913882 0.6161818418830292
Ni 0.557493639832995 0.010658955981013787 0.3564040870032813 0.13076167879731027 -0.33065646494685635 0.009435691491603103
Ni 4.482818971719384 0.4485118814413215 1.5132919652912042 0.33084415547763024 -1.217981189792141 0.4832362680605226
Ni 6.178780922942429 5.6346055453864246 0.220770411409676 -0.898306163557453 0.5266884257068865 0.57115539777101
Ni 7.819619085503894 8.90674748327863 11.48196193260014 -0.34331374869955067 -0.577187977118335 -1.024730134211358
Ni -0.012163813680677813 5.047140609093394 5.680478352629552 0.10262069758672003 -1.1702586869051974 1.0889987143824407
Ni 7.815888632000515 -0.19949596104186254 2.629509751343382 0.6223342346376701 0.1849350795159202 0.6249945550786526
P 8.347016476793488 1.7588997723443727 3.6189699869703094 0.251786847033147 0.3554688960048459 -0.15276800786507239
P 1.7379748256300311 3.2872538963804088 1.6907121528219307 -0.9207598645752788 -1.4723597088118643 -1.7549226606856034
P 4.7281777800557006 1.0127275811794343 8.372034962412872 0.5397578572963349 -0.30743708940759956 -1.4556807054942866
P 8.49150816855786 1.5577631361209268 12.47947976670439 0.5616168621529554 1.179087598050737 0.3063158313189628
P 6.241963215531212 7.868947994936924 1.5643131605489469 -0.44795121960598333 -0.3091378741487901 -0.4988387504844699
P 1.9264170545434347 3.32255738718059 5.904095498460253 -1.0298769685196199 -0.7135621170064163 0.9831916486479391
P 6.831284324077137 3.989864893844483 5.861437038289212 0.9711167197612759 0.28491268305283834 0.5358135279366063
P 2.5604673871347288 8.52578850099425 10.27415879669037 -0.4979074969194522 0.35099440517326 -0.5146811168333653
