# total energy = -340877.3851812354 ev
CRYSTAL
PRIMVEC
9.17129792349643 0.00000000000000 0.00000000000000
0.00000000000000 9.17129792349643 0.00000000000000
0.00000000000000 0.00000000000000 13.42312156003652
PRIMCOORD
 96 1
Ni 3.926425155329374 1.7182242870605449 9.691063603046501 -0.9597598999875601 -0.40019966325331724 -0.30085403687344314
Ni 3.412970051933103 1.4224315926828273 4.803343373401826 -0.22504223194945114 -0.7849107439527322 -0.04598469426023048
Ni 6.953522026583819 3.430533087085445 7.707583374528989 -0.4270232112040646 -1.978156635781722 -0.3907475167014819
Ni 9.123065874922036 3.267760894979041 2.136718856633911 0.16920532748548925 0.5834511844192275 -0.30674726242942657
Ni 4.745412871292286 6.503669872942895 1.639070484874748 -0.9544269178104209 1.5849084641455735 0.6578226573522671
Ni 6.898127388296537 7.100987322779383 0.20828292283040703 -0.43639539644758396 -0.9000005205407403 1.274695868875366
Ni 8.284974345788196 1.8127069962717335 8.85379657357856 -2.0332144959878145 -0.08716991024928859 1.4421885845451228
Ni 0.9599138768772122 8.32847381092008 0.09747897217947571 0.9748283642849082 1.4665500441086228 0.395276514920087
Ni 4.571167385726049 7.984440090484232 12.95155349318545 -0.5930393423282947 1.0357833067017257 1.5163705671751755
Ni 5.887404521996884 8.721940826118916 5.184868441826842 0.6049021552041518 -0.22251329488001031 0.3412843769743477
Ni 5.25878543300899 4.795506499491811 3.147413291910602 2.2467926931617237 -0.27480284831234614 0.5616983661231681
Ni 0.5782787528794396 -0.16041700284942143 11.254750606232125 -0.14942428820382006 0.6617016806916991 -1.1601095142863376
Ni 4.251345891296563 0.2131418763675928 7.085689598166272 -0.7957664557203135 0.12458511767295319 -0.8165396837119229
Ni 2.0276271872691116 5.087979184091385 1.705756824926815 -0.99031566128723 0.6392829466768668 1.0941650890747283
Ni 5.153443907285858 3.7299484440663875 9.320384511316608 1.4899879634165887 -0.8174549964373405 0.7066841589396603
Ni 1.4320339414058048 4.83367744064275 10.870218269281546 -0.26739190056025564 -0.06045974794795394 -1.1014559663091867
Ni 4.146783925880454 8.421947677381004 3.544347974781031 -1.2082297668323319 0.22657743764705493 -0.5919486803672773
Ni 2.0397608141654815 7.805434701396291 7.117167326234088 -0.9586406987814523 0.7724336945316439 0.8573752296710461
Ni 7.9189478533965705 1.048673696305079 2.5609032993187726 -0.5379318598311896 0.6166513253202799 -1.0703132221577956
Ni 1.0097873939312254 6.488876569704917 5.522057622767027 -0.0779609900565109 0.3507648056609572 -1.6752014934048765
Ni 0.450299712970132 0.5493084576109187 5.930079487462869 1.0994947288177581 -1.1485968856610478 -0.11341418865779823
Ni 1.313155580233661 4.473795717730011 4.328836020074196 0.3227816901844699 0.7640745239336713 -1.288574426629671
Ni 7.938666143515388 8.002892741516353 6.735346024892403 -0.3648056000247395 -0.3179726988316008 0.5927953446382888
Ni 3.641261995020358 3.2832970733331233 2.9918524912090474 -1.88369687673924 -2.344421851071124 1.959097305157426
P 7.943957982305413 8.839443492631608 0.8212411038150949 1.1397795444797338 0.6728571830878863 0.515632425003041
P 0.061195484101306055 6.158544768077216 7.399509395361454 -0.03550539199546143 1.230497834201913 0.7335858684265109
P 7.659207530394234 9.082418683384084 10.038105509137685 1.371538012107096 -1.5842757156575813 -1.9616396119633053
P 1.6150838727925365 2.528911978578094 3.3816867553771566 0.13672638102117746 -1.3239373795099973 -0.0949230718321462
P 2.2658516457976132 8.620863953840086 5.05800646598101 0.14751884365099108 0.1864710565444724 -0.548295976674333
P 5.60102157908982 6.8288198913533265 11.609281794049366 1.0495574776676828 -0.24874137533860388 -2.450462115862354
P 5.66511977892257 6.783761305607397 3.794904160236863 0.018325794892381342 1.3098757592106085 0.04119652884296776
P 5.598820467634696 7.003615654783344 7.164537079007898 0.334868703255991 1.946300153392758 0.16318894608808024
Ni 8.368708294060196 7.839075021468766 2.965851862145398 -0.46224501052083616 -1.512878237751201 -1.563648783435849
Ni 5.761565145847912 5.327946189188526 5.684947207484371 -1.8439609916021984 -0.11621489133138696 0.4974840362287884
Ni 6.367017536770627 2.937383236862691 2.1222758969692075 0.05643391461801248 -0.27787248837660533 0.875584553590221
Ni 4.261663601242456 5.402692265685437 7.932890060205233 -0.056288904399715955 -0.7941528313762903 -1.3583899047609123
Ni 3.4049084812287123 5.87160237600864 3.6693307517220517 -1.5216405573248633 0.2675579938244747 1.690868767628488
Ni 6.425374504224596 7.278947183926141 9.23658361257118 -1.1180784053572161 -0.2398628419020514 1.6088233230899582
Ni 8.37326642903185 2.8477704867459632 11.37196070834724 1.8473576759885735 0.44753521511448735 -0.5814842905008437
Ni 5.2981486428647875 5.4417803366093445 13.165799593799697 -0.3768525038869445 -1.5407885910082237 -0.6113358266446374
Ni 6.050020802041883 8.566799153723608 2.0089984473205806 0.028939051631853386 0.18281829028323354 0.07690041000248046
Ni 2.53307574774737 0.7123686284660347 12.488939478753673 1.5250341563874446 0.7686832263502762 0.5233382782877309
Ni 8.8200370266356 2.446269414735926 4.487537073118395 0.17588916726356804 0.6911341270202032 -0.43508567649722485
Ni 4.7877292390170405 8.913116527294145 10.68724721105529 1.35736994813683 0.10708876066040267 0.2346383602783185
Ni 6.081221556918263 0.2472985405022491 8.401303086191488 1.1560667116755314 1.0333171045494203 0.14843981280336369
Ni 0.8851347837084734 0.30096989194612367 3.4728567918483835 0.6623136032440852 1.4947802425989094 1.0064483051830344
Ni 4.435633947876802 1.3254267765959762 1.689890479854464 0.255937635976727 -1.024840691647293 -0.40193232967370773
Ni -0.07655465640920524 4.289333406492909 8.663631549413141 -0.07256732984476534 -0.01576523325405672 0.8245882650480121
Ni 8.553840110031567 4.491056100057274 6.034082003717468 0.8828358358359958 -1.7980737421517807 0.4303011106243879
Ni 6.234611511447201 3.627945270716859 11.80943436144241 -0.5700809337599085 0.23194924348192958 -0.6435445501666982
Ni 8.638289419526483 7.039255317760889 10.15063182950225 0.4224605315340466 -0.19697118474484784 0.1738911629969328
Ni 3.806198613390967 7.255211865401722 5.783405674261377 1.3782074537074716 -1.1751658943988277 -0.2484223014362883
Ni 7.377061727038283 8.741310606924005 12.144018893827367 -0.40389510982703347 0.2757461860622219 -1.083688872133753
Ni 7.445837288713172 5.319737877720459 2.2437148844674786 0.5957284591246838 0.5579558683616003 -0.0990131827411198
Ni 3.6856143908411028 2.8292628079274644 7.382769942745237 -0.4865823017146201 1.6977886346767728 0.34925556810528235
Ni 7.504285969144438 1.3304709903473013 6.108594212122273 -2.2197094637916868 0.7311163238400957 1.435461036013302
P 7.22613885159863 4.185459288406525 4.153462464887209 0.47572813260893554 -0.7722298060509539 0.613508151705608
P 3.564168066304648 4.4582503680781995 5.729713228832724 -0.27806609244465014 0.6230942527321464 -0.3504907260639641
P 0.7256945240672632 6.81514548643837 11.999237119347507 0.2050537046426662 -1.17732613527494 -0.4620177250013785
P 3.385786325462324 8.471610254587233 1.2899806280005264 -0.16542940538282477 0.14181562261862674 0.36154389855433217
P 8.022996226139817 9.19431768698394 4.455375166239944 -0.3562307138715349 0.6389407328460995 1.921935351395148
P 5.521057034184719 2.025802099020905 6.978882499065936 1.2572990135551572 -1.3609995744696173 -0.09546968836423557
P 0.3412016236969216 6.0137299769255295 3.17785649759451 -0.42777628732000517 -0.7170870994405392 -0.216770221748646
P 3.094863590179068 4.086299217353198 9.387016740712069 -2.4636313062544604 -0.5412598957631581 -0.8478374653839398
Ni 7.135535601327096 5.569518171388361 7.774564113238179 0.4770915886153654 2.068478461396431 0.4157198703761035
Ni 6.995884250797221 1.6774670399498364 13.312595385260995 -0.6860453996433862 0.07698268530364161 0.4545481560972108
Ni 7.6501646308327675 6.342062435648161 5.047147649469065 0.5434098522266254 1.4401430148700036 -2.411489334143582
Ni 0.1552682363039777 1.5742165701090713 0.13490061830589894 0.25833724655715506 -0.0793954085101923 0.1562186854178342
Ni 5.291508623308498 3.1289349612448385 4.958675808789911 0.08880718874239545 -1.1918634096591665 0.3223137494091159
Ni 0.535092029000138 4.337070011175905 12.906022585606443 -1.1325370039847076 -0.30749828166283816 1.6924937048264206
Ni 0.03368984508021546 6.5136023883841405 0.8952177084324864 -0.5392690905853744 -1.850883943974277 0.3408866273152968
Ni 3.9325699248082615 7.534000973788609 8.699390439261173 0.16109555389416128 0.8407790158752616 0.6959284630850531
Ni 2.634858809951386 5.757914969351497 12.875901292472847 0.0054813348295453986 0.5025293119621798 -0.048087599535846216
Ni 7.567035988210925 5.5576963686148 11.930550519260596 0.6200536661336095 0.32171159704874275 -0.2073741252457267
Ni 6.64966776150171 1.5671179856662971 10.642602250836967 -1.615299160622289 0.6101783160014266 -0.34259666802786803
Ni 1.1944881589093 2.287129056530476 9.663264482498061 1.810997135081668 0.23962527196994862 0.7464146447600629
Ni 1.8105150561143395 2.925231267370861 5.854024666779932 -0.5037791252088808 -0.6628705041888197 -0.11439069363845461
Ni 1.7856608392669002 7.499755348065975 2.6859392697866253 1.2459707330265315 0.19143997051397352 -0.8110858596862031
Ni 1.871669269375862 4.878424202265871 7.318956970271881 1.3223906038481679 -0.5497455646366661 -0.5975505999350871
Ni 0.25574347145174064 9.04527492757887 8.48914394158684 -0.3600500876176251 -1.1347142141416846 0.4275351178434766
Ni 1.6341968572611947 6.422843226051204 9.057317758627715 0.08148880070411127 0.6232480047011911 0.5563833816681579
Ni 2.481239572979205 3.1951884160440636 0.40667001541048675 -0.7566417218047098 -0.9171760038787623 -0.9313980610154152
Ni 2.1145068906623936 1.1323159315997826 1.5449069368245523 -0.7367328986959246 -0.3038979659060896 0.6523464647290442
Ni 3.7727784044640047 5.721752542403359 10.587231457923782 1.141667505531066 1.3165354306189714 0.05160101200574339
Ni 3.458065322869952 3.566185751805178 11.542152480316958 -0.0680262474413022 -1.3154583955047086 0.3537197745242231
Ni 2.0947794292458464 1.176604128336419 7.438624063048777 -0.2999083851307222 0.2963880306822896 0.538224451370944
Ni 4.949061537379885 3.022116856587227 0.15495824644071446 0.2918299789979619 -1.093590447518181 -0.5224013682957583
Ni 2.823191408830415 7.864488687477716 11.240884521194618 -1.4238645894249544 -0.8347515787342592 -0.9773058792911232
P 7.159353461531082 4.278410390896857 9.881846772678902 1.16107033553771 0.13076116457667802 0.009632380883441474
P 4.020100790340351 4.341215437749722 1.34053098682699 0.15508868557844904 3.56499676973237 -0.8619494793052896
P 5.4073512849321155 1.3612315229326561 3.543247419053469 0.1098328990644431 -0.8249147951494955 0.7434139102605262
P 0.10884771284519006 2.427284828435483 7.205008181629441 0.6729443434850539 0.9020422335611175 -1.835397932523536
P 7.601391669506316 3.8248071764844926 0.60119599164637 0.5568598070839442 0.23501065601607268 -2.3488518618180194
P 2.3155967646834106 -0.17120611749861983 9.038579880236203 1.0174814230687446 -0.5185184883015844 1.9265139719047657
P 4.908221748589608 1.7470588471226667 11.856361140535876 -1.1047058407050523 -0.8746520144736227 -0.48654476360846527
P 1.3436042886962065 2.4017794494492364 11.896375512530483 -0.16239421810092677 0.7900958876980974 -0.29719612840588167
