# total energy = -340888.47204665863 ev
CRYSTAL
PRIMVEC
9.07568933868636 0.00000000000000 0.00000000000000

0.00000000000000 9.07568933868636 0.00000000000000

0.00000000000000 0.00000000000000 13.28318873190332

PRIMCOORD
 96 1
Ni 6.365987879294197 1.8384714301957634 11.417950287444059 -0.3331103258039876 -0.19691693446814473 0.5068814182832884
Ni 5.026361704148318 0.35987739495983917 6.201363045929778 -1.1417343542132596 0.43910791028274054 0.10587365730637896
Ni 2.6715561658783624 1.4004695953197064 4.909280776052785 0.3089571255965518 0.47437290413262173 -0.1672847134240087
Ni 3.5446193123404526 4.355187263200368 4.877201845124024 -1.7169191848586367 0.9162239243781382 0.047822004579285385
Ni 4.737827394159309 4.55119492213446 2.524045359575664 1.0022913455918674 -0.5793245638453636 0.06822242261250831
Ni 7.198455468113458 5.9663580582151186 2.469318046331303 -0.25780502820276885 -0.14460758354146708 -1.1828542641820208
Ni 4.842560847143493 4.598678927854846 11.350073208166007 -1.2203154943522725 0.29203720991276155 0.24590390588980876
Ni 5.90279193129127 7.7689986675805915 12.47636804889632 -1.5509570469007934 0.5789422408052803 0.278815569016165
Ni 1.8126420188272205 6.765200218671606 0.22094220735079423 -0.12596425740866693 -0.2234869716471893 0.8489643798995314
Ni 2.831696701225496 1.4528544731901318 0.34682383123131655 -1.0181216277559046 0.20014238338397788 0.9334423451389536
Ni 0.2603334210411975 8.955635950442728 4.626747311740823 0.9400338823135422 0.2296095396051594 0.9032385678620638
Ni 8.554082083260301 2.4102216963220733 1.4404425606856979 0.9460705754259257 -0.4421682943756191 0.39161166447399004
Ni 7.164439785116515 0.7332312807633711 5.288568347433531 -1.0842342031142618 0.4153133789663041 -1.5756833460028798
Ni 0.7886029679385709 7.391558906514193 2.3971908218164675 0.7674336702138912 -0.3570724930465399 -0.10676891542713869
Ni 7.647620400664605 3.7944548837224814 3.7060894361505134 0.4692476670909144 0.14976830180680012 -0.0639765028519608
Ni 7.623851170736913 3.607041902429293 12.695182007137515 0.18008906427752855 0.256503535782526 0.06961878873940269
Ni 8.095950369812412 -0.5383453770102885 7.0558037857906335 0.8105551839937136 1.0683039050372505 0.8038916559306091
Ni 7.002919745016037 0.7649444614187121 0.3395088257629238 -1.7969473418568211 -0.1611336062209483 0.5421528398910727
Ni 1.7425413957033178 6.578413459930923 9.049610173919742 0.7479668197385312 0.10157580126197345 0.1545117300290565
Ni 9.030719126919172 4.766161695737872 1.2617077533737462 0.32610098436569 0.11072995695741575 -0.3924914959757821
Ni 6.074431364812663 2.469259054351719 7.0303001916631755 1.7986553256868638 -1.4561573880203889 0.1061114843487979
Ni 3.233050903246255 4.5337695989343185 0.5391476679326284 0.19429132391983958 -0.4745456822650601 -0.8135129810704571
Ni 5.897528031574559 5.566846221095208 4.499334619097872 -0.45113810197439724 -0.9027109774933679 1.614810908131961
Ni 5.2333055685283325 3.0380324944313384 9.404484141441957 1.055760521154601 -0.7250480061588287 -0.040638342346652596
P -0.0307720316887499 5.6178606699014555 12.558139100719734 1.29135918846366 -0.020910010679789797 -1.092658679732531
P 3.8549171249513057 6.51733407183876 12.690174041855306 0.4859086726863632 -1.5111144609825589 -0.4339608188641623
P 2.5041097007520023 8.640292054655168 1.3885051142911926 0.1748599546681053 -0.9516634961326708 0.8494857996206402
P 6.4197341105396335 7.801525937554189 5.969066243862475 0.21025067546257337 -1.0593806344056917 -0.9856077142885993
P 4.769710290202068 0.7198891101193462 12.679321332749717 1.3634107550142713 0.751389472266835 0.6917280518504603
P 4.231594528127697 6.2977114696928105 8.342280910038246 -0.9108197226434314 1.3266210969897474 -0.8928441120016171
P 4.7148114464324555 1.0811686990554468 4.0053466728900275 1.050305411577301 0.05086799049446078 0.3399841701056855
P 0.22345163540539797 5.466124222722724 3.1968516094357944 0.10588651282218538 0.05370237461946235 2.613926684209324
Ni 1.2649695560602727 0.9477742196826967 2.6775052801271606 1.4790574325470143 0.8599334773165254 -0.4664073694286419
Ni 1.6367823898432923 6.788043728304292 4.7004419077747555 1.2933312245883661 -0.4083045517486387 -1.7163175467188956
Ni 6.095305449896166 5.554358072801773 9.320308939558272 0.05872759574819564 0.7971396819187563 0.2205068059729428
Ni 8.640455417060169 2.276709232990156 10.34700625980386 -0.5078795205304995 1.028403469297887 -0.021173805864137727
Ni 2.6703581749083525 5.140733539027581 7.14767063424313 -0.8601826172128539 0.007868089894167095 -0.9445194288887218
Ni 0.42894520465656677 0.10415623915317918 9.230328019314625 0.09741267102321934 0.6505839735119828 -0.6473574961548851
Ni 1.340669879400054 1.2154616716557038 11.44330776297593 1.1928491706112037 0.14132017103944694 -0.28219451279072694
Ni 4.257251501402073 6.864942042614083 1.7691749131320338 0.07901848478674779 0.4510350007376297 -0.4331792035031314
Ni 5.887553849180312 7.833163789989446 8.222293946271522 -0.9597102776965472 0.47792205493646084 -0.3672669170810385
Ni 5.277758294067027 3.1532937468489406 4.743253748712102 1.6351156811275838 -2.3507321095598677 -0.7404270597180602
Ni 0.8940016689386767 7.042408068580524 6.7618866845568295 -0.7021222506005907 0.15769732684588972 1.3094862370816738
Ni 5.257446901711862 4.760416784495326 7.18174167894399 -0.13371767610184068 0.013080744443358118 -0.6354754000053185
Ni 8.391854139404817 7.139336428881311 9.112506514983085 -0.9373992729041727 -0.5268588898464798 0.5432023642015097
Ni 4.397461823339045 0.29218909001645615 10.490491090392194 1.566384437199457 0.07597455575410142 -0.9172809048877428
Ni 8.31093529479416 6.908741318532773 4.534668092161826 -1.4430599314064823 0.163582324871757 0.23912030730907205
Ni 7.490974005646668 6.071527144279306 7.048099433256987 -0.5792021793348864 -0.782722992272794 -0.697738005489966
Ni 2.3569564766024738 5.182744904180422 2.6538086557128016 -0.7567129413622775 0.39969984079876325 -0.24323175837428432
Ni 2.1521817019333107 5.287877687487942 11.655971126668824 0.10634339785394589 -0.23757430297819088 -0.9012696170611509
Ni 1.2788644361745523 3.302343790034318 3.8604532953430173 -1.0367191882524338 -0.05857667199262816 -0.5250331494916506
Ni 3.449451635738013 2.200382687097869 2.547131190109102 2.324596331704764 0.3463360804656423 1.9259655556004638
Ni 1.1353777904483868 3.319170117749455 8.535777325779902 -0.4152424165190526 0.974545800047483 -0.28137047422753475
Ni 3.8565961274471525 2.7514494576131776 6.951796387939789 -1.37695301247508 0.20876663471787918 -0.33325919267702603
Ni 3.760085248848035 7.3440022952804735 5.981127834765073 0.7062792101917578 -1.488350684923482 -0.08417380373544213
Ni 0.8426614028913433 7.401678299935108 11.141035582295226 0.21238186287296326 -0.38515253911220765 0.6081682275499333
P 0.25428628934939834 5.356417292075165 8.036315831435596 -0.08613812655066455 -0.47792822558404785 0.19675366941740308
P 8.613591377126617 1.7355984934907613 7.91873301772914 -0.6641200603252047 -0.399405449486796 0.7554746980798022
P 2.163290345473401 3.4292582273420154 10.49448893147014 -1.2281946399900332 -0.6950715144013965 1.182762218688847
P 3.7681807635847675 6.230878094668934 3.941879470978095 0.9629753216010641 0.9134895561661106 -0.4302270628533429
P 6.791492490187653 3.910169920598421 10.765174083574923 0.10608937286161084 -0.2453367205324291 -1.9804564875594923
P 6.511280587164545 7.809939101411757 10.323946748769007 0.4773787808384811 -0.28780363144738824 0.018972170227128615
P 2.0170174631730466 8.689219094953064 5.960671231383239 0.3253419947124784 0.195905719594811 -0.8089469589663295
P 6.8066670424744435 3.799582648101689 1.4296433981461936 -0.19371488259107927 1.4822332591718343 1.3884232178982088
Ni 5.129425230325822 2.78006510555591 0.7024910139867049 -0.9459931852207707 -0.5428529512818909 -1.2906711612576998
Ni 1.5881366959095637 1.4759248750519858 7.114342888485026 -0.257133456057041 -0.38691323055705623 -0.021119298477118464
Ni 7.083566318951692 0.7702147141178383 9.28857488481785 -0.9503692028012795 -0.40321788125435076 -0.46850538960825117
Ni 3.132201845225436 1.943322867139115 9.05383490722686 -1.2452955613363779 -0.9280191172408533 1.2321734221321232
Ni 6.407291340692033 1.9176568181755733 2.6251303855148187 -0.05621665640088384 -0.438553066220535 0.8490181159556023
Ni 3.7180648080060275 7.097660864227639 10.404947274582163 0.5757023937117439 -1.3680433686902762 0.1357563037984243
Ni 8.13889653094943 7.407042032232652 0.17153506309597635 -0.8779139730543462 -2.2624656238122904 0.9833862811572484
Ni 7.446239933743803 3.6983524111358674 8.511282948287786 1.5013419549768272 0.1351035007057738 0.05440351445154502
Ni 2.924849574832919 8.612928851817445 12.25665015201412 0.15339278593326486 -1.1714164546587245 0.23673303802381812
Ni -0.018922811912653673 4.827313689343369 10.239292350497319 0.2009653935059055 0.02485691114267977 0.5067068403786371
Ni 8.68288426391468 2.462470438854998 5.843806304689874 0.3450435869064638 0.7675817657559814 -0.10316808544975781
Ni 3.7072647378976065 2.289660241431094 11.680372932131439 0.07207470647906297 1.9370269556209476 -1.2141435612136058
Ni 0.9772520580962695 3.297833172518448 12.834549197550896 1.34872435664669 0.16969923640277226 -0.2303217351808356
Ni 3.0744895378141344 8.686732356121377 7.851148175642259 0.5944297949179181 -0.19983436522525586 1.6050222041763131
Ni 6.077253904143519 7.6361487295578465 3.7343692835940763 -0.9273778841124286 2.4761515502086584 -0.2747388278436301
Ni 3.329579933223706 8.43859393861353 3.726492492966263 -0.0708868568185489 -0.2643538850648802 -0.5382447630859182
Ni 3.5014825617309353 4.5322176560868055 9.256775485115424 -0.4273078323240189 0.07173300686892807 0.5254195862967919
Ni 7.1516975175264115 5.935056006279031 11.492827445776415 0.7015962028937918 0.4930848787198282 -0.14969759646986477
Ni 0.5791859782606201 -0.12565836192702046 0.27093473355686687 1.7462554719289087 1.6860278945964187 0.21414641097255377
Ni 4.747438548986886 0.32026201174701746 1.7266416958521054 -0.06019312455012859 -0.571349516059687 -0.3822027124552643
Ni 5.790924986622028 5.329916279708283 0.10426877769884677 -0.2727981591774915 0.46234399799254566 1.5654776091144718
Ni 8.120463806251779 8.816324121733263 11.605760783922749 -0.8240671024372195 0.46270806620018373 -1.7138050647096872
Ni 0.18921722829953663 4.994415278281393 5.537535375362303 0.20882242765647907 -1.3718876821370307 0.49336564318504067
Ni 8.293764090890686 8.981537967324606 2.3731084806125216 -2.2961979830677297 -0.11244488276599345 -0.12231123403711193
P 8.450319729016957 1.6721775775935797 3.619828640896313 -0.07435090410774936 0.27384691215698 1.0413818838354258
P 1.8803920384569373 3.028738988724596 1.6892226294176347 -2.3090077332378875 1.5543035947755233 -1.8691560028105874
P 4.989786676806355 1.0081184769523535 8.410396679941384 0.3541918290646352 0.20452919959776392 -0.8657716812648574
P 8.631534014609263 1.5883545124495655 12.583430323720687 0.20145878820255628 0.7252860903115639 -0.5972950322808552
P 6.497149739131929 8.00767114128753 1.5234088807723716 -0.506608881348192 -1.0893306438005625 0.3676186439935023
P 1.9690887486834907 3.3354156013579197 5.927729202414722 -0.9394502418959305 -0.19505519866905763 0.8416282512494344
P 6.917689948051177 4.046259879653692 5.86226988673069 1.2321492537624068 1.1644809038811559 0.001073435569836861
P 2.3019124218061937 8.821043480099968 10.063223980662556 0.44143912951907843 -0.5136974127638573 -0.11240451644636126
