# total energy = -340890.0752924155 ev
CRYSTAL
PRIMVEC
9.07379741030078 0.00000000000000 0.00000000000000

0.00000000000000 9.07379741030078 0.00000000000000

0.00000000000000 0.00000000000000 13.28041970347388

PRIMCOORD
 96 1
Ni 6.442759076230889 1.8786299312486154 11.139151521025527 0.29276534632803775 1.6424117005683647 1.1244498561011989
Ni 5.105480969171067 0.738450128264852 6.019004573184368 -1.9627850384216585 0.08145974723838874 -0.2284818537586194
Ni 2.946479773350796 1.8079269022333613 4.849172507813677 1.3643571780879407 -1.7084389153017672 0.04585613910216619
Ni 3.8031006867509607 4.4445546433956435 5.157689784410796 -0.01254415521359775 -0.0010634082675078458 -1.2808022388834202
Ni 4.033067006997701 2.669874134682802 2.7345049785059348 -1.4442128140640031 0.6186557573448184 -1.0577942637551783
Ni 5.158272322201193 4.778488533772874 2.418191495218632 0.48400939878112126 -1.4955425746862308 -1.564968530688537
Ni 4.696134748949666 4.7936327015637445 11.16884643026004 0.7849891625991514 0.06030573886859291 0.8742830611699781
Ni 5.452326873189045 7.933311768265772 12.201611527496924 0.9880960279280918 0.651776194047871 0.712987732560185
Ni 1.4802902272227352 6.751830761846596 0.41027991396956265 1.607476836364393 0.6811032251467625 -0.43979053817206193
Ni 2.704036981736502 1.5334808273366238 0.13452811963297723 -0.3640170426851731 1.5072940587952042 1.0504902738945974
Ni 8.220833185155705 -0.0032057726066593052 6.7568912186332755 0.16592999916832712 -0.6072107487326703 0.3699346937211887
Ni 9.254638139569842 2.3724622786724083 1.2499010680191016 -0.7661275498079579 -0.6210057456342337 0.1728534657610378
Ni 7.110672225972142 1.1240892381284309 4.7429029152934055 0.5293914264603463 -1.3282707167780285 -1.0737726414613056
Ni 0.9183953258149303 7.677131247451131 2.7954618417787245 0.9631820382952315 -0.5394994614286257 -1.3281511604810288
Ni 7.925045538872433 3.9612479009073858 3.528925918395234 0.9219052910336316 -0.12099354366695292 0.1197982378072711
Ni 7.49204392893815 3.8843474682964674 12.66048979273738 0.9300996539189659 -0.3739618126027108 -0.3364846415928592
Ni 8.22666763685704 7.093586265546612 9.363771422536367 -0.8924774726908178 0.8811083116219277 0.7577974326757078
Ni 6.760187729213516 0.8913726499024138 0.38160852907705745 0.5510416577402704 -0.7545735264217714 -2.3129019260859716
Ni 2.064479448739688 6.73248542587887 8.953977864105205 -0.9440476314586257 0.2683447513918282 -0.13738638320267954
Ni 0.5005015884820849 4.789476902373679 1.1467564913090016 -1.22145397883209 -0.09626390213075679 0.1135067483716045
Ni 6.823985598439164 2.1333949396753726 7.12544981234974 0.1796234374950197 0.3610078235452041 -0.9420072039898292
Ni 3.3566517091317953 4.550101054266464 13.189648248036198 -0.5090408878284524 0.04071804654465246 0.9732677046660078
Ni 6.2770080198882745 5.639020253834432 4.428396025060124 0.2597837491956945 -0.22679341031260297 1.15033675117029
Ni 4.994254361154 3.191363416454451 9.389549173451336 1.3852473912733885 -0.7678363049689486 -0.8478328373982497
P 0.24402798401277484 5.769946075916196 12.174214103753512 -1.2477879887409284 -0.3005334203092308 0.5662175941497604
P 3.8205314514761026 6.557197808512765 12.366075919374143 -0.41864681421491123 -1.3364195711374083 1.0478484653963758
P 2.4337739274219046 8.580300741298968 1.3447748784371836 -0.6075496201293278 -0.013136794492274149 -0.32601279552725787
P 6.486277008360914 8.241285524401134 5.696676069628301 1.4543591584693856 -1.6313132766623581 -0.6300328888335085
P 4.850080794929234 1.2843415732719634 12.533129973017397 -0.6706231515510451 -1.1637427401635505 0.4176060316552227
P 4.069117203901912 6.334935142223155 7.804703394029297 -1.2904225355820031 -0.45794972557959196 1.0257215515903497
P 5.137874425739914 1.1223742904277274 3.6478652541667884 -0.8515000018371917 -1.387887657109713 0.40841253808141276
P 0.47721187280274036 5.630971795577691 3.616046168970717 -0.09345317215483906 -0.17131363207774367 -0.9077536821235979
Ni 0.640179995495588 9.02941741534145 4.776700995693305 1.0604936649642123 1.3399031588106343 0.26948837807796816
Ni 2.2180625428249283 6.667163158697039 4.633883962173593 0.5586071287923541 -0.43878549394631533 0.3301152477314057
Ni 6.014593800288537 5.705758033404144 9.043048981112705 -0.5067333227411982 1.0830939188622315 1.0414551602755224
Ni 8.567406875252937 2.533758100512136 10.035521881180411 0.27654965580012375 0.5553935069510629 -0.35994184417453495
Ni 2.319199088179654 5.308234971140505 6.870252891168731 0.9136278815161878 0.5073185058207069 0.3002971359287086
Ni 0.6962134163218072 8.8504912052347 8.88243641621405 -0.17932390397672987 1.05619426625791 -0.2780511800463147
Ni 1.3232500163440128 1.2324666737750167 10.983093095020964 0.39984176569326624 -0.46446901475534846 0.27365613630241253
Ni 3.9922530664804254 6.909506138540393 1.3201159267364835 0.5272808078752467 0.30986498212280184 -0.24132631382145533
Ni 5.641969237975854 7.752725053242466 7.690451581972999 1.7442631240892283 1.6984789758755783 1.9992399388145827
Ni 5.750673330327335 3.02788988324875 4.457546506453143 -0.6101286937104138 1.2835836582832991 0.8522258242596226
Ni 0.9825107779481165 7.367152182099603 6.716757812917865 -0.34869609605738655 0.9428088739555183 -0.19115329251149016
Ni 5.350854597332066 4.815055937126503 6.9806800976385395 0.31915154963105036 -1.296757990881728 -0.7477631883681574
Ni 1.0229073237869142 7.772333529333581 11.159749041028688 -0.8990551259083355 -0.6034299415339994 0.38079529058477646
Ni 4.752573768517797 0.560665401865766 10.201606853265808 -0.3830864006117983 -1.2620262438274974 -0.11710809256961766
Ni 8.270993136951947 7.353496117075481 4.4851426463587 -1.3086876524397786 -0.8615381027994838 1.440930029547673
Ni 7.413138187111064 6.296416872437508 6.790159389267455 -0.16575130749861777 0.34178908452490814 -0.15377485186303194
Ni 2.506037649582772 5.386795908667977 2.5112342133298253 -0.31500384601126397 -0.5964643088494438 -0.18436712282759216
Ni 2.195423418416168 5.489602032736615 11.207173242921426 0.014163693094891737 0.17219089247637442 0.4577990589343406
Ni 1.4961421512075466 3.3190045238925387 3.652925710953468 -0.9544382306643305 0.7004399778021615 -0.7910327976900698
Ni 1.8754631759705966 1.0039430873082333 2.846418472983019 -1.1929797826517972 1.327885822634784 -1.6752593432260052
Ni 1.329011877666483 3.363420761961028 7.780413745881077 -1.5173321597574965 0.8215723610398239 2.649834968070159
Ni 3.722117045328843 2.8185301568025283 7.141187406487838 1.014775079881175 0.9009623702333774 -1.1684977383500328
Ni 4.554039082319932 7.085810021210617 5.815150826975114 -1.1081590893609754 -0.2135422017296516 -2.298708922415041
Ni 0.5322126954895939 0.02454915875266558 0.2229450158509495 1.4291595192753064 2.0790888899224256 -0.15514242163451988
P 0.14496843087334574 5.868097341940067 8.025530585576837 0.8946503119724205 -1.224892572199994 -1.0279452987145459
P 8.869999869554874 1.7865490356573939 7.896551093028413 -0.8422877392103043 -0.6935915874217604 1.1970436683085257
P 1.9279278722958273 3.4664809523556963 10.212337526021638 -1.3725091177711137 -1.4026707289561584 0.32107910567106634
P 4.261109682204499 6.105667504372996 3.6340676379038785 -1.133809442939228 2.069625687626997 1.5219349486368303
P 6.732902820557348 4.168638613326874 10.446656546861119 0.5825718671380675 -1.0932356352819237 -0.27639358983823364
P 6.185625806693636 7.794192307169534 10.020156312734 0.8006245551435631 -0.14088694015677028 0.034172789226966954
P 2.612482366392057 8.556091849947236 5.675506900391572 0.39208629011756346 1.0162282673879337 0.2452477603630486
P 7.013727774996914 3.9117957053050847 1.5309936994807356 0.41795390191294474 1.3340922085558122 -0.8797775086256462
Ni 5.2847338359827125 3.182516464030186 0.22960881263082664 -0.09037479033983145 -0.3193906622250499 0.4236622651516317
Ni 1.7175428067481269 1.1876421148254075 7.012526404226685 0.035609007452861254 -1.2787119320132945 -1.2471598682386265
Ni 7.151585978260358 0.6870561400278911 9.219811997929254 -0.28604705376759765 -0.6723079954526356 -1.712923176325366
Ni 2.948775444082426 1.7376412678965854 8.981455137265367 -0.6257476311945933 -0.37273848171857094 1.6226661425103215
Ni 6.64594862047352 1.9400323179716936 2.3046973452417463 0.43620539192396485 0.6510159188430789 1.2580407768171884
Ni 4.088172178354174 6.991723816403229 10.267012599383333 0.449644033927374 0.8544446862878124 -0.9044546996573519
Ni 8.253335527292851 7.458398288333868 0.13446460305146968 -2.0281162555293006 -1.8106184115860107 -0.36663159748988466
Ni 7.571566688985595 4.13811435901382 8.229344407077715 0.9702029496977548 -0.13920852401308284 -0.18500501352190718
Ni 3.08122566412037 8.670067818563844 12.220403361825799 0.18929721313935788 -0.5162949982877043 -0.13512741196517372
Ni 0.1764953397944829 4.882746465418828 9.989969603682674 -0.2592551303857341 0.18632476077459523 0.5278199682081685
Ni 9.035959623236726 2.231809345822632 5.5619592150102735 0.06757836127060621 1.4076159887765758 0.07049090693171085
Ni 3.6109448800959254 2.5306276404235497 11.266018633548958 -0.21082428857785626 0.8039032258948349 0.5580723393348066
Ni 0.9318608410945296 3.242585002541605 12.313564946682385 0.27999621958782744 0.7556050530100793 -0.19482354227422577
Ni 3.345345757623453 8.601361024967398 7.8853023064434264 0.3595204403664002 -0.12858472575064953 -0.726190347293388
Ni 5.825169206638327 7.824126764654303 3.390105892611819 -0.14344364514035296 0.27874177835543607 0.4959249192717846
Ni 3.4590676599140306 8.65943332806001 3.4617535039320635 0.8825620133493187 -1.498240433233368 1.7887696911420354
Ni 3.251921940023214 4.685917653124308 9.148827681195897 1.0149049205908196 0.04460298342135544 -1.2149465167308753
Ni 7.095691386533719 6.04619783648722 11.534642052680926 0.6934838581993025 0.5314724773590912 -0.9712871839008692
Ni 7.990050223146723 8.804813709333418 2.513744025679109 -0.616641812238583 0.947701169050813 -0.748226244047505
Ni 4.4589093908163475 0.327575880568326 1.4527449005823851 1.4055845601688437 0.5390983693354652 -0.6574585891446291
Ni 6.085296829303792 5.786015771037604 0.3759501090444711 -0.12773703303837355 0.20633488534793495 0.16599196275451414
Ni 7.734495794349802 8.797073760186855 11.311903012030006 0.3323657343284792 -1.4626545657089585 0.2562420545910232
Ni 0.2262506002285492 5.111496896819567 5.799439546849356 -0.8197736172681882 -1.2059867364344263 -0.8659506300448829
Ni 7.739785818209644 6.414212909741927 2.3795988202946488 -0.12727783401376788 -1.5462424150339436 -0.4066647021523706
P 8.876260789732047 1.562544200275004 3.2954162802801084 -0.31996067579590703 0.44579946337030324 0.8280258299746512
P 2.1881734543269498 3.3690011473363333 1.3971270596751726 0.27903925499119686 -0.4586225832769004 0.10370827422394398
P 5.105626149928798 1.284250835298381 8.125770639752572 -0.5558390791289137 0.11325966535780495 0.6297294986604768
P 8.443495098529077 1.523327248092775 12.089298785936078 0.9385071612563708 1.3703815299051494 1.4047319823605613
P 6.284421312329941 7.972156694756313 1.1952949555173307 0.3497695316272234 -1.0303279400141094 0.07033792629361435
P 1.920460137070012 3.3299475235065525 5.80747439441006 0.4899139371910144 1.1882096149566632 -0.5147723909955909
P 7.214966452807529 3.982380774954682 5.824818958060299 0.03907922538964882 0.7025323415548159 0.1468670689996051
P 2.6556736418171867 8.732531839577833 9.984033525450926 -1.0756125228835218 0.47422737969369294 0.2142726521377729
