# total energy = -340891.0928800747 ev
CRYSTAL
PRIMVEC
9.05586209577568 0.00000000000000 0.00000000000000

0.00000000000000 9.05586209577568 0.00000000000000

0.00000000000000 0.00000000000000 13.25416955773552

PRIMCOORD
 96 1
Ni 6.22472783207556 1.9613910291307177 11.406909518018638 1.12680344393504 1.2317085666805625 0.005027020900946181
Ni 4.378165132535482 0.48274354999898383 5.674786164024969 0.779014175962639 -1.1135144401356176 1.6225090481071671
Ni 2.6633923920279425 1.509168450679 4.522521005616913 -1.0621895646093964 0.024216963565835713 1.1722764886661747
Ni 3.3830074064278324 4.316105310557197 4.8477921720787025 0.5893534088362754 -0.44072641972277 -0.4536768092358509
Ni 5.22304988536024 4.147847395431481 2.892921363555655 0.2873809420876728 1.8867459479782087 -0.019018450084031763
Ni 7.567485763467683 5.999517601114234 2.49593229834047 0.005409601051345522 0.31593664223817847 0.8673737356446545
Ni 5.1027880385965405 4.567722434979589 11.851454536704825 -0.3285551023331374 -0.886639525852802 -0.8990517834742258
Ni 5.680896154086073 7.975090110066634 12.601255455759642 0.513696898543225 -0.49001446732462056 0.04112865171950981
Ni 1.9008707036847994 6.333244225883497 0.3764856881626485 0.32500877974277576 1.321363448135234 -0.6848521506662334
Ni 2.6037595410536234 1.7907333105869 0.3224167587735417 2.9520876850633417 -1.515654000724125 0.6201413407514094
Ni 0.7009282432555456 8.537332355410836 4.392193568290124 0.292925783165302 0.5865233955866479 0.8869406020329886
Ni 8.49697943453892 2.3196228163504755 1.586855068047002 0.9493816420770295 0.9699877483631553 -0.22920793329136657
Ni 6.6715350050781295 1.0087052955924762 4.829275651139114 0.9909774632409449 -1.1995605211931082 -0.13631963250106202
Ni 0.8191507099069562 7.3541205999436245 2.364874958540099 -0.028327129079467345 0.01851991318105843 -0.48699856331643226
Ni 7.603926551974997 3.575317690906289 3.8543523429839346 -0.1256436408444546 0.5231349040276733 -0.4274106764504704
Ni 7.150979504566871 4.0141194819405515 12.759921401902519 1.9189503006248951 -1.2899792773969978 -0.09934074128386762
Ni 8.076225976381167 8.945525333036867 6.860569784287427 -0.6712736406508503 -0.25626210919568126 -0.6586333261790205
Ni 6.878868964540093 0.7037083928757606 0.3463396293003235 -0.37939506780314014 0.23674563642930838 0.3230951076598307
Ni 2.040620765375868 6.511644706398924 9.395138012073126 0.18499087245452012 -0.44913881215618134 -0.0955427076940161
Ni 0.20852299413666797 4.873647563546702 1.1023238908980817 -0.9079992224755008 -0.30334723560894206 0.2593942270667597
Ni 6.21028373225718 2.1052886755972215 7.031429448552843 1.126351443999286 -0.11972753247033574 0.44073181903940867
Ni 3.4676706598460414 4.45989428668024 0.6625920628410302 0.4948594541217477 -1.218502352402934 0.16926651974072784
Ni 5.987491416437864 5.762190626856986 4.765271535599069 -0.1912635928371093 -0.584868119371412 0.1696735253711594
Ni 5.2027738104427765 2.817505050779796 9.195053270106218 0.23202920479024555 0.8117327492415828 0.41368689910647466
P 0.14433866694371697 5.719899751526679 12.292964030463661 0.48411070024567593 0.776186733816173 0.8404468293468235
P 4.043442362951159 6.187698412541166 12.717322627265741 -0.4290361278690353 0.5756352879192344 0.027313085992656184
P 2.2922107222123946 8.556032710348113 1.096439391799659 0.006324399556131044 -0.7118780444357741 0.4412331841558595
P 6.221368107290219 8.003570795915417 5.772814058516511 0.0554880057649754 -0.12493633036478484 1.1066405958339198
P 4.737465511465942 1.0421485937926525 12.57986369864931 -0.6154771025065207 -1.2404194641909991 0.06427860747341187
P 3.9672644521848754 6.111013373505397 8.222157569442786 0.5887201461276506 0.6139537238834588 0.414079506559203
P 4.719199837902509 1.0388522600409968 3.5917604194581596 -0.5079710518030413 0.17889607241069191 0.4634981662016469
P 0.32997568674746186 5.77733202804591 3.7814146196251857 0.09862905992882369 -1.1027985963800102 -0.317917163003317
Ni 1.4822091496386738 1.08312636913947 2.2999960467351923 -0.5773491852865477 0.47119604906653684 1.527074840966557
Ni 2.0744715773640237 6.415552955193381 4.8809936787646775 -0.5366241967633597 0.5722990244571499 -0.6805926040589311
Ni 6.231039767858263 5.806347009750043 9.098868243522537 -0.3671797566838709 -0.5859662375315973 0.37977867639480395
Ni 8.536417713353371 2.490090361793236 10.078669038926733 0.09747514883003858 -0.48175659819120253 0.693836613553031
Ni 2.495469543794564 5.08603469397961 6.903116034924867 -0.42651413277813 0.30474411595646866 1.1534675834897878
Ni 0.8071571263336246 9.040956006319687 9.152110372715144 -0.8329088690985655 0.8405787269389976 -0.9162321519082544
Ni 1.6330526422247376 1.092671247640143 11.390633417326741 -0.4515355945231321 0.5803661177360004 -0.7473613249440484
Ni 4.150210975401761 6.678661968436792 1.7107954059368609 -0.59095032100975 0.7630846492165761 0.33248014841915646
Ni 5.453394790050107 7.819854524432348 8.208519441338408 -0.01868112134927105 0.989685998123031 -1.2988778654382083
Ni 5.191635100238005 2.8391847843003006 5.022879112704759 -0.4318036633118434 0.38028029862157087 -0.5545010770437806
Ni 0.8384487517332695 7.239002482770421 6.887952899667251 -0.1947019290946969 0.28476047374569025 0.01517439374759322
Ni 5.296809880984511 4.598104851838942 7.141293354619699 -1.391590559882597 -0.5298858495982617 0.21556437436600295
Ni 8.236134386784283 7.298019535131793 8.693634721583432 0.1886384965094364 0.10299864975142906 1.1944442830124655
Ni 4.62252851153184 0.217462035472545 10.250283962079205 -0.3915790114638418 -0.8184718677376291 1.43596060135754
Ni 7.968461219115503 7.02813673714597 4.892975489717467 0.9713846287106818 0.8019607574564833 -0.3321261075138473
Ni 7.1516134149037285 6.200702630308686 6.952302043547786 0.012082642196146933 0.03346033654097463 -0.8570749248218078
Ni 2.3869440941246722 5.161841314405733 2.732201547921362 -0.6143357898132259 0.45501069755592605 0.12025203751523807
Ni 2.527581630287341 4.878909019342615 11.611619994272212 -0.4448157593007952 0.3605761353244242 -0.14715014745766272
Ni 0.9735594953447418 3.1439960418469366 3.784489084758942 -0.0003710101861735546 0.5823052437402423 -0.17219654890332925
Ni 3.6047039629505813 2.6596794886263524 2.664393064773981 -1.1275598624850902 -0.15289450614060768 -0.556401636500603
Ni 1.1602642012729927 3.312344515592204 8.093778048022537 -0.46413220024122004 -0.5065736572348823 0.34797670139285874
Ni 3.595240587207504 2.68308889178028 7.193965870095329 -0.04268776867651358 0.4386258284399994 -1.2794894336092673
Ni 3.957773908855933 7.019307271739749 6.099860173921499 2.0447533498653496 -0.1657955304729919 0.46951609026095265
Ni 0.4532531355422079 7.649767325191702 10.97331213084997 -0.0827985206544703 -1.744536689465589 1.285938788779037
P 0.4890473355059274 5.488223635129414 8.116110709190004 0.8224311094956932 0.9690742354099505 -0.053139560137456875
P 8.487579449829528 1.6313682519010893 8.009070420880748 -0.3706497175103423 0.3672795154865287 0.6384475952597649
P 1.7991009270334106 3.112708038792074 10.329942040594831 -0.23440541833190598 -0.31711626436857643 0.7157161872349415
P 4.128205230850873 6.2109266984559905 3.8901383926718944 -1.7244028948301917 -0.8314381980903099 -0.6514980006858199
P 6.717511616224161 4.122880384021276 10.30726344550068 0.42052011997822414 -0.790995259583915 0.6407757291723093
P 6.592812397102464 7.811486907985838 10.100180333414873 0.35725941224636537 0.3862478290589154 1.3586878956173052
P 2.3857487203465997 8.488729544297826 5.891915849363762 -0.39612395052204685 0.30462121722535923 -0.893921404226196
P 7.011138884256251 3.9771534534398425 1.712928967013482 0.07352069489697015 -0.4611504919050768 -0.007360039909497002
Ni 5.076127581000733 2.5934811377345874 0.6853956288301619 0.16606961006998494 0.982286106114534 -0.5663793165386053
Ni 1.3840798294932344 0.9940710226730383 7.036824025519495 0.22503220464712215 0.8755549859038663 -0.7958423032635713
Ni 6.6542654763297575 0.8700709160942754 9.317627984013248 1.7063660919331385 -0.45826802815095913 -1.4352982851831926
Ni 3.019532275136073 1.5770059125846374 9.229103311057386 -2.1707199212668615 0.28361633283891796 0.5025995030784829
Ni 6.359977130374945 1.8829400970137056 2.5314937626519436 -0.0369305544777622 0.026410114562412584 0.282442624245791
Ni 4.681853463199687 6.705077917759811 10.646186323859778 -1.1929862104097002 0.4758394613758192 -0.22718961730975712
Ni 8.45589298884864 7.517216673754936 0.3324542761645721 -1.0385510992548501 -1.432777832754184 -0.440968360530247
Ni 7.895027234521614 4.268770320117901 8.357549044774865 -1.2069028204907923 -1.5549779951347287 -0.6644411911100493
Ni 3.317316183805553 8.301508654238134 12.39447752622172 -0.5355260786031745 0.3132225857411251 0.5995231502804256
Ni 0.3226567391153518 4.8364460826351605 10.362334858808216 -0.36200823978526037 -0.008355056832914643 -0.5872263351909435
Ni 8.441095710414011 2.539544423930025 5.890895253721422 0.8536044497747042 -1.423884386919296 0.4808366574800945
Ni 3.819626734730917 2.6432430991778495 11.387703845984268 -0.8114170177733767 -0.12339623957117457 0.17381865788778453
Ni 1.1307602030232842 3.07807842267578 12.674696685043095 -1.8638122220001707 2.1136571148155987 -0.9845857007819881
Ni 3.0300732984518066 8.369337060281817 8.137609325471406 0.22442028209473608 -0.041463923571741494 -0.37843964586840634
Ni 5.443170721902802 7.927927181004485 3.668728001386927 0.8290938662278494 0.4247896938878555 -0.33592208422116987
Ni 2.960732563461623 8.45846485364389 3.3170019453957114 0.05380393319433315 -0.9789038199058624 0.5691957029414778
Ni 3.3253396774977695 4.366166115444978 9.373640301377918 0.7387753830472502 -0.28364024409831795 -0.668083672958643
Ni 7.136399566819164 6.080006102171143 11.597623254034412 0.30650377896005276 0.782995014987258 -0.8614830811918325
Ni 0.4965981132040879 0.45159862956301156 0.1524373242901609 -0.27020160209490884 0.19155541304591525 0.03687861819390423
Ni 4.491209457320968 0.06368897154400717 1.6325292134037328 0.6425402772718999 0.859530585451152 -1.7754945712996841
Ni 5.922995567593658 5.5742996030126175 0.718659620963627 0.03254168138144718 0.4883684470807654 -0.6210713087648465
Ni 7.945740061470163 0.12849815321185995 11.474107636070245 -0.5703609268941725 0.2258441590254562 -0.47410833761732546
Ni 0.12202592867255155 4.778968526806155 5.903764539145812 0.09134306779037171 0.8664496811684884 -0.19189171333941146
Ni 7.925056472764719 9.033131741590484 2.3578503264215303 0.18949364542088012 -0.9211606995581231 0.39059479317370155
P 8.71061627392163 1.2904512727394784 3.879177177361444 -0.33762903960994756 1.1424488637817807 -0.006894670237304255
P 1.728320309992366 3.387725510506438 1.6300768859862924 0.04204962087188242 -1.0533436841829924 -0.1928041978513518
P 4.664429984798078 0.9303902014047907 8.041251331924384 0.8762823509881942 -0.17011369823237155 0.0191680882880186
P 8.25799523754389 2.1064297142035637 12.535727238652553 -0.39465173685189453 -1.2618640072180203 -0.6895403001705221
P 6.336721676874255 7.58103333295251 1.4998816642440473 0.3201604505115389 0.8945670082299947 -0.025912091880071503
P 1.80229764630356 3.1312634999380693 5.8990464350672065 0.028066676329229084 -0.3825937772460959 0.121913484378061
P 6.909278548985312 4.117111799955879 5.863684199718744 0.44259715438292163 -0.07288948907087447 0.5771944048762382
P 2.426717439831462 8.445886261388258 10.424868302366754 0.9932264071761219 -0.40539766251448894 -1.0485233799762135
