# total energy = -340855.8476800271 ev
CRYSTAL
PRIMVEC
9.35515970861788 0.00000000000000 0.00000000000000
0.00000000000000 9.35515970861788 0.00000000000000
0.00000000000000 0.00000000000000 13.69222186759353
PRIMCOORD
 96 1
Ni 8.46641963850064 4.174178760776353 3.4289158573644554 -1.762037931574146 -0.9033516964011603 -0.1705083625676289
Ni 8.448476441962912 1.8084646554230228 6.950691966633576 0.6660532727921755 -1.7727121234585408 0.9612609100131186
Ni 0.28467377130576693 0.25555209429727116 5.611551356042063 0.950994237979788 -2.143872719167031 0.17586859843827776
Ni 5.04597674938656 3.3445538326416853 12.864335466053145 -0.9610457086785191 -0.38546749924946516 -0.6254738087079164
Ni 0.38481607961552394 4.45529195825404 13.034338365846292 -1.1425609638796128 0.27688184232856183 -0.7153428630559228
Ni -0.08912193003997386 5.910599330413637 7.933670416626982 2.1422045874359883 -1.6400892230827753 -1.1901939923765439
Ni 6.732955299366965 0.9837698965143097 11.609046088458147 1.2978648507926616 0.35323589290926904 -3.1190373837454346
Ni 3.168003256489438 3.8795005815574237 7.989493590798139 1.0442316945793952 0.5214351477277471 -0.587775522826194
Ni 3.128103499850537 8.145603142740304 6.744419112212288 -0.6514231815838265 -1.0893262729251885 -2.867053590210133
Ni 3.6007355291949463 6.452786973031254 4.484284534056998 -0.13734267444893766 0.7693897654989975 2.922213780322045
Ni 2.160695777864114 7.766896918004234 10.784212873184076 2.4520518289469773 0.9853896847405224 1.1123756985454845
Ni 5.65443634418002 6.129893631790536 3.461133156757901 1.3202640444234683 -1.5154174592332867 -0.3154260211503471
Ni 4.304655174807479 5.999744648353166 6.98511427719696 1.344535515376323 0.855297778316727 -0.5517240285192756
Ni 8.86718533009592 1.7232391494487236 12.632362116570103 -0.5865786743046156 2.221914698973122 0.9198736053155835
Ni 5.55295157043587 1.8818745945427073 7.684965363803102 -0.3155820871122372 -1.897589575560932 -0.7931048497277502
Ni 5.224342226544187 0.5292335528127196 1.4546207034286966 -0.7845335631189714 -1.1091615624835607 0.5308947504787501
Ni 5.310138397267601 8.36663750384401 3.3179954694242935 -0.5373021966669908 0.5777821590589082 1.0815854526375048
Ni 1.5292879760283973 2.39030882052418 11.820399730178515 1.1939406039031697 -0.5261469513811197 -0.6582921407895178
Ni 0.8030310153099552 4.549994241127567 2.1078213500687086 3.5022675090239495 2.766130077820178 -0.0844324567134675
Ni 3.2462030374377546 7.941071283561809 2.6937527844959 -2.1979504748480405 0.5344598421221891 0.15216688394596375
Ni 9.091559483255919 4.078634513518888 10.26816728917179 0.10910399131821855 -0.5137007551979669 1.2267684490664679
Ni 4.219719678787648 0.8369593734347621 12.872208768558961 -0.17752747419793943 0.5374862876533388 -0.3352816224236936
Ni 7.261914745996912 3.502010527598154 13.106455421878639 1.2381047000148937 1.2989061475729824 -0.24546424724922888
Ni 5.020558780151414 5.175059244604275 8.925001153309067 2.357462486305166 -0.013329113008738335 -0.32283156958579884
P 2.446626882649897 8.42756765976175 4.683027420337921 0.019187885782360505 -0.4516366388773706 0.2849252814583287
P 6.73667865297594 4.181990319227346 4.75346054760239 -0.7888558446434092 0.9866904058298167 -0.13168573327347644
P 7.159541232069716 9.17497944338466 6.980896971149406 -0.5668958511637076 0.296894795115379 -0.2590576696629474
P 5.585021058304136 1.0503692792839074 3.9769336355828604 -0.29120802914324684 0.18658187109072383 -2.1103331926486883
P 1.3782489207095103 7.907897886834601 8.323803033569092 0.7400635057310544 -1.293017292892373 2.1963337651802237
P 4.30266252576549 7.838445180319431 12.672999995318923 1.2938354179182943 0.5134791261054641 -1.4394868693432434
P 6.65271609357755 7.851402076672274 1.9824416271083627 0.806110775069115 -1.4809124834778817 -2.3330784010338466
P 1.9342915550228388 4.5728956723707155 11.618986881284522 0.5393387674810454 0.22823605629640048 -1.503195206135482
Ni 7.815543749076282 -0.18353139641108646 3.4332566515216536 -1.1953261713967864 0.26290841086760525 0.6798091889256873
Ni 0.5253287091032056 2.6759124947162087 1.0066423267620115 0.7552859791077637 -2.866548882659573 -0.29746532290686833
Ni 2.847860332236255 6.314349317991992 13.02139924429711 -0.8456905942442661 -1.5941785765935899 -0.47773179330252563
Ni 5.105840417084643 2.090887575275725 10.652576419335077 -0.3094561767201574 1.190354429213808 0.22155530184211522
Ni 7.744603572149486 5.782349444420041 9.331960896222194 -2.934969023105184 -0.3305515639378759 3.340883220244775
Ni 2.389232977144702 1.2101834745154063 5.112538711516871 0.11025430287257786 0.2541684598914461 0.4911403533989476
Ni 6.510723477806099 8.311891108568314 12.92600561511277 -1.430420388265601 -1.23912105709455 -0.608613542617468
Ni 0.4842632995505399 9.253675047803519 9.836149750676649 0.8258470771557777 1.0703756999646148 -0.7183621094982209
Ni 2.7078790758264373 6.018922725987338 9.120251758428607 -0.6403779795132584 0.35431395646479624 -0.2609988525497182
Ni 4.39641993749704 3.7402396724538653 3.8979424081136407 2.6365539346905367 -0.9519743425048702 1.6942191721579596
Ni 7.298334383182197 2.0577048233886956 1.8483812513496023 0.8258121101527842 0.8892407109210749 1.1696022842681213
Ni 8.456774468724625 6.666299785638437 1.9468153074759447 -1.2524625113984622 -2.214077719427206 0.7515879614308862
Ni 5.726293326769327 5.821968546264295 12.702493072172334 -0.2214570857013541 -0.5064469018490311 0.667044175950535
Ni 5.122501956726819 8.938892630128082 10.8423233839316 -0.8060899491335084 0.7511331332816548 0.03702954194947171
Ni 5.09433357050414 8.859822819316362 5.448162554242751 0.1081529402588589 0.34002942152132404 2.4383771596733617
Ni 8.245460118675505 6.341226692159299 12.707628119398382 -2.0209976422066482 -0.462402619144623 -1.4839409858915604
Ni 0.4503761041289478 7.309130237616264 0.13876415011703438 1.8590513102764177 1.3871890883807916 -0.4728778076443339
Ni 1.1616114847219308 5.927756693526356 4.034084306932695 0.5954399813499874 1.0096763252020289 -0.6311464336126614
Ni 4.940721846234327 2.7660307492771774 1.9051904593659506 -0.7858934195809755 -0.64868675648927 -0.8506739063914704
Ni 5.9250811178173945 8.393028409700598 8.713073104775654 -0.8951539910817163 -2.9022828457260728 -1.3001317924499673
Ni 3.477621625943379 5.201524991739433 2.6358209573009663 -1.9685633356663321 1.2410082468149335 -2.758953871786713
Ni 6.6547087426195395 6.796953947706172 5.654723547586541 -0.832813481171282 0.700764965241748 -1.2029237812383864
Ni 0.23660415359470852 6.981316082309412 10.295058696078831 -1.7654924657816498 -1.4886137087768814 -0.3178670264916719
Ni 2.542058867989505 3.7746292399578745 13.621008857899383 1.4426305571785476 -0.5392366946855424 0.990515693113178
P 8.48981689321433 7.368928419195596 4.583567103179155 1.1183170037305836 0.5031425200661465 -0.2405796654634179
P 7.414282234010459 7.439999568359894 10.75922524130072 -0.4677227458059558 0.3304214661179148 0.5113682504100484
P 8.762285923016906 1.7818585808905412 4.7285402728697505 -2.5674539945690813 1.7887956592839642 -1.0864456089432837
P 1.9818438323957657 6.619149780137836 1.5249574725470028 -0.6190825604695919 -0.4665361816970224 0.1261545190426021
P 0.9782316418999535 0.217016319960352 13.10756400831749 0.13672766657275806 -0.6005544197584174 0.37594336180911386
P 2.5838390117525365 4.346491449529441 4.78830664690569 0.9100990424273229 1.4290469049568422 -0.11365895767875264
P 3.220897330120468 2.193953371029716 6.664839445190293 1.5541662978667103 0.7618955140044813 1.8433434126228574
P 6.8532720098318896 6.119500049228797 7.556367465864143 -1.2306510719503256 -0.5808389436073609 0.036522520406066135
Ni 6.3635013276944035 4.561183012274138 1.6560466495464394 1.409651531149366 0.7419702358354641 0.3109515303187612
Ni 8.758403531690965 5.357026458293198 5.35828659832116 -1.0908015719191342 -0.20297162530265686 2.2175299396418646
Ni 7.4095578783005775 0.4726451265681599 9.123962950329814 1.003706223661523 1.330670841579089 -0.09306185025369135
Ni 6.489056927659394 2.095050621396314 5.505710819885001 1.1715061861590534 -0.6409636768133994 -0.8246723401213863
Ni 7.409782402136295 3.742438135011929 6.957045055668388 -0.9037340194412435 3.0479782630150796 1.2377930823117458
Ni 0.3414951410298831 8.50909787760654 2.2532192440152023 1.0024996049479316 -1.0474699990110348 -0.3911789478119456
Ni 2.070811402298684 5.791461370086228 6.697276590839545 -0.7591441765115893 -1.3985592778909464 -0.8493202205770535
Ni 2.7865372596060096 8.539034389035493 0.30939197458626017 -1.9751708136805208 1.6228484337244566 0.8032447663752297
Ni 6.551296805952152 4.3026999464047755 10.923148222725843 -0.3024689467690468 -0.16781204668238842 -0.3266411731398761
Ni 6.598259708256321 1.3886892790703573 -0.12370702038425342 -1.2799195791681504 0.6941178922388755 1.1850451011857528
Ni 4.535896015276494 6.739251321926865 10.767002185660374 -0.4154720160313555 -1.069994405365796 -0.31747159082546617
Ni 1.6414563422887538 3.0720473821998233 9.332426783181306 -0.9907226669176616 -0.5402227127478954 0.08756817412897178
Ni 2.1427338710067425 0.5796297987713969 7.884583893043321 -3.5241280565424664 0.8013483206834651 -2.303155131111853
Ni 3.6030181881914043 8.493493471024198 8.792063396728892 0.7747122061531755 -1.1746509024356222 3.2521770758566184
Ni 4.5613233396714605 7.136256239273885 0.9751322774510747 2.3638048835834256 -1.1531071148265755 0.7664921322362284
Ni 2.5949716519401784 2.8523975847497054 2.7494936332606272 -1.1375632535547053 0.21586493632555726 0.3029217180357493
Ni 1.7617262769545707 0.5827329052842042 3.081900236523877 2.3421011733577473 0.4186946367337112 -0.7819830287829758
Ni 3.594720161429691 1.50693849921472 9.082133224219728 1.0163290546318562 1.8529359414072992 0.24750133228391563
Ni 0.8458832603885363 3.2504035041976294 5.2095620095421244 0.389096097140988 0.12292829879582055 -0.41516502631389796
Ni 3.883850730874444 4.279424308768765 10.616606765337208 -0.9910247715391125 -0.6647636074464744 1.2118282828168678
Ni 8.64613225867257 9.097453233943494 11.839417834579741 0.1141729212006937 -3.8252204346789602 -0.41657244818438577
Ni 0.5338007418375992 7.574508056274106 6.5331749258618315 -0.4496949417699675 -0.17236392771912895 -2.671438662382864
Ni 7.891825722261181 9.11277698573119 0.7963037198822803 1.6099890612632854 0.14114250781100207 0.5223856845664745
Ni 4.891457574614057 3.7322129453269772 6.153407826001997 -0.35527786303996234 0.4637660751510529 0.9377689975387656
P 6.207316934473666 3.183570242432493 9.045602260632567 0.408023015952478 1.7979477580968777 1.536263706554677
P 2.932440332182867 0.5138461859382379 10.81836201308067 -0.028652630739686137 0.42927112669797685 0.6379444303711013
P 3.023363130488489 1.4362134909638193 1.2419114990501852 1.157347121049852 -0.7179116522243636 -0.7736439127896612
P 8.45239625392814 4.229841961714563 1.0298431231194498 -2.336404637193602 1.1150339621039376 0.5398925831019863
P 9.251158509811521 1.3618212600628725 2.65687942205927 -1.115016478602441 -0.11134779304707274 -1.2738335208750708
P 0.3381366386539475 3.669870160276184 7.227973290648356 -0.061040817262404554 1.080457766790965 1.998567081117274
P 8.564583330508139 1.5989464960596413 10.394970867456976 1.152860031812776 2.232302469965349 0.9113856224492304
P 4.436151301259153 4.66600757807458 0.7468317637139719 -0.4045959925487999 0.7312075980023214 -1.0273349188240566
