# total energy = -340888.48691604723 ev
CRYSTAL
PRIMVEC
9.09859109024260 0.00000000000000 0.00000000000000

0.00000000000000 9.09859109024260 0.00000000000000

0.00000000000000 0.00000000000000 13.31670776024850

PRIMCOORD
 96 1
Ni 6.171037389225658 2.358009014298015 11.439783896563892 1.0436945911290025 -0.5035181582380103 0.0011050601387206775
Ni 4.501045621449847 0.37708655047064804 6.001866378800733 1.927435969498403 0.1932986209892671 0.0041901268219476226
Ni 2.7483931553660366 1.760895789437365 4.882716951873979 0.06028157049887683 -0.05554714113768498 -0.128179777002747
Ni 3.898691608231969 4.251607751982177 5.45618839814536 -1.0937771096076907 0.3320780278847313 -1.0033490974324206
Ni 5.023641386856176 4.3985590935751855 2.6980979646002736 0.35158730156225254 0.8746741259608097 0.302547365415466
Ni 7.201343625329248 6.047305651604252 2.492142261033972 2.282293200061179 -0.25330122679514444 1.485529670534919
Ni 5.1052648458018055 4.7313127598955065 11.487298557951238 0.5429817635502713 -0.03741392187208395 0.07014483644620177
Ni 5.440584314755353 7.771843471813354 12.623053823125865 0.3705515013695812 0.4130572359422757 0.5919157702468129
Ni 1.8284255310820496 6.543870348451508 13.626986883652618 0.21963931576632498 0.4333614947172666 -0.2510535684115483
Ni 2.8576308376869863 1.917564426109398 0.2768619322932209 0.18452190323790157 -1.3468651919507644 0.33670164269967173
Ni 0.6680986113283818 9.012909467477371 4.887404545904609 0.38157407773233 1.2635015428214433 -0.38215180461267084
Ni 8.622070396864451 2.167994041984945 1.4280438583353456 -0.7108339194419758 1.5379446938015255 -0.7923088361890162
Ni 6.899124830062493 0.6361771150219666 4.860425404173967 -0.350346487176616 -1.6709373188118835 0.16250914641223624
Ni 1.0408787987270236 7.428198792188172 2.6606381560142682 -0.5112242686330163 -1.9349736726363453 0.3031898840954714
Ni 7.5216595178920524 3.9374698026390895 3.915324742252536 0.6294685316896063 -0.8017468416734644 -0.20675397516322458
Ni 7.351333896282176 3.9933169535707895 12.892476747500911 1.3434283983550734 -0.20885919443168546 -0.49555262353403046
Ni 8.053099113651202 8.586494906453414 6.986770646323484 -0.5366499077949726 0.9278823345526729 -0.20432839644086745
Ni 7.192099456976917 0.5824290090104269 0.24056128418761596 -1.7704161283355124 -0.15840155200176592 0.008177650714785916
Ni 1.8337027138028685 6.6313532999354265 9.353775437442316 1.21649560638555 0.9055062808503179 -1.9774572957218524
Ni 0.26501647680316226 4.917788380349268 1.5790149573870744 -0.13761161183960816 -0.7727193440928627 -0.35912603314145897
Ni 6.379085768698491 1.7250837356629802 7.014202897880844 -0.01576369059215995 0.6947750662069002 0.26416233787936444
Ni 3.038192374057072 4.382563770776566 0.7257736691714826 0.006480465518021097 -0.7060182432208872 0.14253116062841262
Ni 6.031692469623347 5.650725370134718 4.539771953888848 -0.49074671750495485 0.8252852911150367 1.956624161026585
Ni 5.612975316499067 3.289322581431762 8.979162793836824 0.6699706055687107 -2.0208408049138096 0.8977189235954153
P 0.22361515864015896 5.297354296839611 12.667504988957864 -0.4775854975326485 1.4396452492979788 -1.2717979785022806
P 3.987712221577644 5.884768423803032 13.003432243783395 0.8623585418182503 1.6088719169397068 -1.7949375105156444
P 2.3556342820736464 8.53232189624694 1.4362598859162068 -0.4422161168944191 -0.15619785948222775 -2.194112589159189
P 6.306024083787845 7.655763649137137 5.739647718698694 0.6167341148420734 0.4282308583589206 -1.1452773343695115
P 4.808295937483176 1.0519699810316412 12.855656569855032 0.4707522766608989 0.4536467273288639 -0.5922669829386445
P 4.150950040878007 6.459217058736856 8.34091938882193 -0.9259403803349536 -0.20184882455212336 0.603566981332496
P 4.6082816137732445 0.897096496343776 3.7283450598630274 0.9436532242336845 -0.4414954366783106 0.8167787963059224
P 0.20497396560841136 5.442303948435068 3.669525399284963 -0.4159474130058772 1.3127970466224617 1.0346324809267342
Ni 1.1397531860151928 1.0483578404451497 2.661037584154689 3.04398816801908 0.6136107387217432 -0.03581598125734477
Ni 1.9147165671583355 6.441365623395051 4.8056664447136646 -0.24237609524220838 0.38551429332700055 -0.08420697096622272
Ni 6.283241212179344 5.903557014007326 9.103580565211937 -0.7741079969102733 -0.42481566202978455 0.9731918571227497
Ni 8.504898743280478 2.452952810318264 10.068696307390708 -0.05285416768655414 0.08133839116917604 1.0711915109976906
Ni 2.4308614316180086 5.265345454060576 7.365403957246786 -0.7268071549417805 -0.4958207895937526 -0.6826011498485277
Ni 0.3999240136245364 9.25390384459173 9.241342329998002 0.5734215680973673 -0.2916985956264202 0.1925637997057716
Ni 1.3680823245995868 1.3896095906641686 11.417239408036918 -0.004180356629934736 0.40776127765065906 0.10284001268637773
Ni 3.7949585734042874 6.505137646998877 1.804840163756349 0.2726289805894789 1.3085300438159917 0.5183467386104106
Ni 5.69347055017335 7.948665487324377 7.75591638844647 -0.09173258991930654 0.9481477696699283 0.8978901590659569
Ni 5.465105017225365 2.617437136571648 4.7259263940839125 -0.6715680319628176 0.9447148327289795 0.7286799464844612
Ni 1.0851070490820243 7.652260691641421 6.82197605812048 -0.5614906209877362 -1.1008458435290138 0.9937565686479788
Ni 5.070753890525831 4.781018361971081 7.404861816393986 0.3517523663852071 -0.39804405036289514 -2.204014678764249
Ni 8.219193890493527 7.202180695691861 9.057784627645217 0.3620971999546409 0.7849595949127965 0.4320157793226495
Ni 4.563416462055386 0.31302246209899726 10.716034663867207 0.19542800862744408 0.5336229480431907 -1.2181102591708375
Ni 8.22011284817422 7.445295044485445 4.426367116936632 -0.5258381618914493 -1.5105105088499726 0.29218890499927747
Ni 7.261612691437358 5.990639627491736 6.825478105757107 0.15855298997796563 -0.13768874493444672 -0.13600801479791416
Ni 2.422581713900862 4.833408048361554 3.0014258780974914 0.21647660176762717 0.2411530214683847 -0.3066534171640396
Ni 2.467455964209618 5.440411441528291 11.331199493069416 0.20193958449371674 -0.807110677088539 1.3851208929978531
Ni 0.9459531998885705 3.365778040747349 4.005226099197134 -0.6241666598607186 -1.2873549524002732 0.06647278691125326
Ni 3.8172046281498084 2.524121988322135 2.581723347578962 -1.6096599600586405 -0.38946067956925834 -0.1299702932442665
Ni 1.147468791096666 3.204187066399518 8.520935009738139 -0.7379626573379678 1.287382720314415 -1.220905819638104
Ni 3.6215576280708994 2.532474494766465 7.295531328445876 0.8495567620678918 2.0602627583548583 -2.552263659981888
Ni 3.8319898383589988 6.9049843226007805 6.151532739917694 1.3041905359003731 -0.21182444770759648 -0.47088134603959547
Ni 0.8532358290610532 7.217511821354929 11.280262851645347 -0.8251487655371724 0.6703747829856648 1.4128510119232698
P 0.20653255422923253 5.8337526246381515 7.785160169451614 0.6646191114488103 -0.15552834421902892 1.2435423260906973
P 8.436149790455465 1.591106984690468 8.023023721437983 -0.007077989892703939 0.03267640718709857 -0.8603055159439635
P 1.9541589587010073 3.4326981768018707 10.640994945295342 -1.1856403115675902 0.3113510797500251 -1.0450565044735356
P 3.981570672721519 6.038279849433472 3.9751971097974956 -0.08930212610094297 -0.0646753286911983 0.17234027357004514
P 7.1368164186808905 4.213939585664608 10.264318741274192 -0.4699493211436293 0.16658280226097763 1.197042896977577
P 6.351744503050111 7.802487525957696 10.309182073273872 -0.17519085564496278 0.9644380221895197 -0.3440984493843751
P 2.6404383743616995 8.716204418294781 5.841866748000955 -2.1225940122939124 -0.2745861043158497 -0.8216358672879075
P 6.862166353834965 3.8228457545065453 1.6835914315909974 0.43233665299717794 -0.09870773568555903 0.21011569254660586
Ni 5.122197323462916 3.2062797423060494 0.4386485263453588 0.14661561511043134 -0.806906531497533 -0.5388032066925494
Ni 1.4668657259787765 1.1186535537228157 7.050437126272895 -0.6523613771273797 0.4543491527125271 0.14586202477385848
Ni 6.732283968766535 0.8355508979326814 9.279947651178063 -0.4905654547320841 -1.171885166765027 0.633208972568645
Ni 2.759520732034246 1.8835084003783207 9.172521498304896 0.5141728097383791 -2.7947125174435614 3.1507941073317416
Ni 6.408410527162627 1.780466858458884 2.7611257234686466 0.5600628874022742 0.07534643525179927 -1.9427528023611316
Ni 4.360890927257617 6.971294853065139 10.550587706696819 -0.9178437193697482 -0.4919934454278624 -0.3219404252300972
Ni 8.303856278799076 7.0808054931130275 0.09506844671555116 -0.13943606664285665 -0.1275187463799804 1.038432571399115
Ni 7.953860782727115 3.9711163917797587 8.19813793143746 -0.5217441943277338 -0.07181219684629568 -1.3645530961488308
Ni 3.0537509644925893 8.62198850954637 12.393792988833521 -0.38712817478133976 -0.31735460563162765 0.9350156031633445
Ni 0.24979817366722853 5.0951563113141685 10.059361153129398 -0.5634534011410619 -0.9988545519961763 0.5900769172658612
Ni 8.451790268209065 2.1593048876773904 5.774976637296397 0.8088009203067684 1.0223343802856717 0.43708496631544075
Ni 3.7332974228887887 2.6900893848918863 11.38667724121066 0.904178820288146 -0.2046739527057443 0.45479960998638447
Ni 1.0516333331684165 3.368134575789922 12.92277232561386 -0.8234086429176141 -0.4241320056991986 -0.702948603156628
Ni 3.06116631607443 8.36370680972588 8.054929750139873 0.7902925770899357 1.1973360027379638 1.1536509031451874
Ni 5.936020786331261 7.919113264087792 3.4336726358870426 -1.131844091682741 0.5640087594238996 -0.2671617868273205
Ni 2.871697259215238 8.677990336523335 3.4937842963726182 0.9308982385608613 -0.5543730361063485 1.7373849089121562
Ni 3.7239713672183763 4.519543056745406 9.314383998008674 -1.4709718273254022 0.08022767460350054 1.2069745542689923
Ni 7.336011869210005 6.209742794905594 11.43814615020226 0.12906500782117772 -1.375727367598095 -0.28327643300099603
Ni 0.7101550280360384 -0.27067762005987517 -0.08792423314247022 0.1921285119405659 1.2896365493455983 0.5792080928721574
Ni 4.357806504943207 0.23224790168414672 1.680422392381237 1.0145449661482397 -0.5003587866734222 -1.5760926656261565
Ni 6.022448301271016 5.727080744950427 0.692670265907422 -1.4315025655861862 -0.12487693788175912 -2.418809779064395
Ni 8.003584581984486 -0.4611093078360715 11.407318304521779 0.24021816835894116 0.8676992373048734 -0.5050114549540852
Ni 9.417769466664053 4.799797853584478 5.929237786816829 -1.04906819673609 -0.07466586424500689 -0.4419494934965937
Ni 8.460697788698171 8.843056972594189 2.1870028180889705 -2.3285568590144092 -0.4903404832054717 -0.030067765919657895
P 8.448851423349023 1.5274168484047235 3.6085084290050395 -0.641334944109889 0.11157919233158847 0.8904840964098729
P 1.6630495429206653 3.0293212479315574 1.7840526131317718 -0.041962974695347086 -0.3763557667561841 0.6681260961608041
P 4.667995665836578 1.0765088806834486 8.349335585402546 1.3522426542125938 -0.9537625447535445 0.8801981411028326
P 8.387736188287402 1.6227700810153811 12.160084763310248 0.47298270865331443 0.597030465765559 0.3144428313014714
P 6.619079300814074 7.839009269822121 1.316448731112734 -0.5375191977738033 -0.22936451347388884 0.1625903932721329
P 1.7716594224696556 3.267504160458446 6.220274413869987 0.9152913852615397 -0.43625218600150034 -0.36368639881863174
P 6.706289294571054 3.829060092089855 6.069195951445663 0.22922464546191493 0.7160051792302701 0.3149169427244125
P 2.264047866094746 8.80882807363605 10.343712135590732 0.5537973661085365 -0.917253394083917 -0.4971927302406147
