# total energy = -340860.61686213146 ev
CRYSTAL
PRIMVEC
9.35010104276510 0.00000000000000 0.00000000000000

0.00000000000000 9.35010104276510 0.00000000000000

0.00000000000000 0.00000000000000 13.68481799878650

PRIMCOORD
 96 1
Ni 6.635944251730054 1.4390553273834703 9.028736049914462 0.16113592021379344 0.47946651660544526 0.44565599581390347
Ni 5.739372427734722 8.416848617659065 13.700418587292711 0.057453099911146215 -4.035796611801753 -3.4929284910112104
Ni 2.7133992775338713 8.175344861837486 10.910330717290181 -0.12208986205492521 -1.8965552207591467 -0.9716769631401202
Ni 5.522141533816926 1.60113932626717 4.059710954214866 1.3698817074505958 -0.49032917035156204 -0.6892965595908322
Ni 6.932127397541358 2.6199824195675 2.0951734118868823 -1.3552855548039755 -1.306797120285285 -2.2326030319249033
Ni 9.093253616057947 7.540968566927628 4.928614894674186 -0.08500144184306006 0.7497107990128313 2.312978544960178
Ni 7.7596580765838645 2.2769459182092553 4.159965540960219 1.6977284708627984 0.44477539298116303 1.3155895217659341
Ni 4.12431080124616 4.30783458146475 5.515405721137617 -0.2181601601176372 -1.0140227750961828 0.9995667475718527
Ni 3.5846790786286897 0.28802985783746005 0.30705731314339196 0.5964049163664179 -1.7968113304995894 0.7540261385587337
Ni 3.946051127827196 4.11511965207381 10.011141800056453 -0.06780898922417354 -0.4786008261710402 0.4835383726819737
Ni 0.7833925927932767 8.790665651138749 1.3319340265463846 1.1984816863066325 1.3722532930065656 -0.3109666998274128
Ni 7.68233274224477 4.02155319249324 7.823609961623659 0.4824451396177949 0.24074113074194664 0.9816417876623158
Ni 7.164627006208337 8.803344387942111 3.502082157409259 0.1439002730617973 0.19209534470978532 0.6549419933703624
Ni 3.202764857780487 1.570975900804302 6.735146952125571 -0.26737133173496536 0.6082949829357847 0.1430284119798053
Ni 4.984968887732851 5.332839391249901 2.9302617774767024 -0.8540253393622065 -0.1301423000457565 0.3970544327561162
Ni 6.192160413309688 6.89000519304346 8.29787138889671 0.5071714387198815 -1.7841501900921533 0.11695305504899212
Ni 3.9168788130583962 6.675074423943973 9.089702447740898 1.1351988670875868 1.0878304051059522 2.2096158270011106
Ni 1.6860101920224249 7.336855864554904 8.83249613248896 -1.1626865309848944 0.40584709134708175 -1.2353736742369756
Ni 5.628620482723044 0.351069173030641 1.6292326393935597 -2.785484828197706 4.647052220027758 3.4460511097333812
Ni 4.770225120651113 9.287006406647391 5.836821049203755 -0.6179049952217229 -0.47496040120497557 -0.5738113473366183
Ni 3.378378452648306 5.641093517306885 7.320898982380406 -1.0605867388986507 -1.3744467011134587 -0.8500061909004846
Ni 2.405472405007948 6.626912054272791 5.26101846130324 -0.5082487309444602 -0.3610541034021072 0.1816085862458485
Ni 1.9962184891648826 3.8540087346912784 5.622023986546958 -1.3704283239826849 -0.3150835502092638 -0.7198242958660442
Ni 5.120760402921081 3.9836104830920256 0.672592027256985 -0.18823020532742424 -0.32575157144607125 1.5717834967278412
P 6.032152136823 5.052364414929489 7.052771749291943 -0.8043778515384082 -0.49959491192420413 1.038495049205934
P 2.5060794905567576 3.29737852866045 8.711946216757338 -1.1200262731122064 -0.7306005605459417 -0.8580270043224321
P 6.956157156822068 7.94232164752081 5.733158350684932 -0.4681593191227421 0.4689093099148892 -0.2173057825371419
P 2.335440149361054 5.101153241360128 3.7155103652961357 1.1436284859121786 -0.595063314736859 -0.44431336574308
P 5.757511623456348 6.011572564769753 13.436369868211345 -0.12649904686621438 0.09179043974043546 1.0416135402302575
P 8.555145959885127 0.910155650564599 2.5644802206996813 0.5601783299342159 0.7500255020397728 0.6575254378268224
P 0.06553111707968261 7.182476348802452 0.2127568706431581 -1.9290927883755358 -0.6454214554744369 -0.149196231353414
P 9.124108948986484 3.6477268089126693 5.566422676609734 -1.15306829116884 0.2160112320954344 0.44955790197147094
Ni 7.551767933452616 4.086162389625422 13.278802903066367 0.5897043644177908 -0.05861266743688615 0.145757123764878
Ni 3.784621636005617 0.5621392854737057 11.523505658437776 1.0764956968194235 2.090187056718116 1.1350577135240323
Ni 2.104202804313879 2.4485857201999144 10.915940777822641 1.1229771282104144 0.1618236903094374 -0.06799745108589579
Ni 2.185688933547882 7.00694690484262 12.907711423995371 2.577335772459168 0.8472900775209021 4.045782005149239
Ni 1.877603109306872 8.95861216327887 5.890232565513143 0.33768611810012816 -0.4881879556388431 1.0630262015780791
Ni 7.503016507425526 6.708575835423655 12.381407335182852 0.3038267463485219 -0.5332799628814752 0.5804409368379939
Ni 6.176106290085961 4.159270828464282 4.795064598668675 1.4636778647671502 -0.9231049677686877 0.7414243906343231
Ni 0.5541814146084091 7.022505472719312 11.745241430963139 -2.9987845748992483 2.615140502011767 -3.2834352625399514
Ni 8.990150053572192 5.861999000873443 9.546926121176863 -0.38938740312916165 -0.23341580072512705 -0.398655715804965
Ni 1.1190481245109798 5.599551019064006 1.295252645754885 0.7504883006088043 -0.532116024480361 -0.8783772858440099
Ni 0.6770716605921554 2.5381035860962253 7.230633108413102 0.4009648235541159 -0.6575930578399642 0.2753612919189774
Ni 2.6623477266884716 3.6902230174460655 1.8279222832515705 -0.7370447735093887 1.876437366963349 0.69150359454448
Ni 3.6407890340541917 6.088673496687549 0.9155796440894005 1.327971954590687 1.6798811582687327 1.527764410834414
Ni 0.24765705721560097 3.4554700344652143 9.681392727069346 0.10827455343838771 0.12831630258061125 -0.11994993289378697
Ni 5.819474742037384 5.369903191167696 10.144842632686254 0.8892399395901267 0.11720168072468846 -0.5736501391684056
Ni 5.693285780460551 1.208865193635688 12.93436949663554 0.4591784557803705 0.9731928855640142 -0.7968293497671889
Ni 4.185030356409168 7.698929171319969 3.9605232139807693 -0.8263841806061702 -0.20193778472150384 0.5153591167369963
Ni 2.91639931790099 4.598669469568441 13.150384877437968 -0.6020862830219114 -1.6881570251242797 -1.6237508909340683
Ni 9.100060489504 8.879155005937442 7.976428945537998 -0.761594694934611 -0.6290052188999424 0.3108324882423937
Ni 6.147261228848222 8.930131755975742 7.647500811408805 0.5370456005714944 1.3985160833578365 -0.4601179368755044
Ni 7.786848169964528 1.8841107795245273 6.931154987049064 -3.807015995855792 1.8521730950993456 2.021144709307474
Ni 5.326827276379279 7.62661549105654 2.1069283587225662 0.13657288616244867 -1.7938980135075362 -0.2384266236761571
Ni 7.6039414964045084 0.11102964300803399 0.9059209898726792 2.4889312184718295 -0.6412650101039021 -0.8537805703412521
Ni 1.6184557131107011 0.9192130932942579 8.656878797580784 1.8144408706558945 -0.19962893408266907 -0.13494177831692888
P 7.695329382478306 4.628804844728647 10.881031241149312 -0.03404500539985104 0.3375174537327477 0.23595887886195493
P 5.868254218367137 0.3501809134463346 10.770280231147723 0.8182286413785715 0.5155177538020477 0.16571479783372753
P 3.59558129626344 6.16061317291548 11.619874343254311 1.6865696260325018 -0.3044330124739531 -1.396803214431788
P 5.495437645682409 2.178077951425509 6.088552880386101 0.6240003094861835 -0.9012536762215511 -0.7534000749389606
P 0.8796621665404045 3.7383386366128097 13.501797199171177 0.07367187576285376 -1.9260236625319087 2.730091439029066
P 0.18561913782746442 6.877793961284469 6.99406433583991 3.446422119919555 2.255542414329896 1.7765978316661921
P 1.7568185060429762 1.559176073484358 4.978550043473626 0.4994236764536624 -0.6336182921919216 1.1632961395444352
P 4.222000655318089 2.380619836849143 2.119709946635691 2.1496677285822527 -1.9086890279082032 -0.9613161887310863
Ni 3.5262970486875402 2.683207801768341 4.043248231582358 -1.8486679101595649 2.273728084099987 1.1564629186726856
Ni 7.131574399571252 6.350504371838413 4.062953569202629 -0.6296747341631415 0.7723575898780698 -0.9654500083938018
Ni 7.847390073210675 9.09889172689307 12.083872164783225 -0.43914544838889535 0.3794765717733529 -0.8381528911063244
Ni 7.767932915869245 2.539393900018691 11.078037866847584 -1.2392838079246593 -0.9390635479804731 -0.172563959545077
Ni 0.7863939751781436 4.860275942298007 7.482557551673727 0.48661469761445225 0.9644405932926811 0.7420383700692381
Ni 0.2327791766835131 4.846662195405901 3.6386151355978633 -0.6745147732959673 -0.6957443720987051 1.3008002792719018
Ni 0.7743473051947714 0.14806913266352217 10.663045794089898 -1.0716867054665542 -1.0341866516385674 -0.878275727269139
Ni 4.293697228922947 0.7847913678860371 9.277472108772471 -0.7450977257208522 -0.014302018444968919 -1.2872773050848023
Ni 5.6587745580850255 7.590019196183117 10.86887891502591 -0.6594175126432128 0.04411370248976274 0.4043327115850843
Ni 0.6781759075069616 9.164772537745943 3.6919453060295306 0.9492484589332748 0.5050644196792076 0.08772912518686826
Ni 2.0580226560308335 1.8791271757515242 0.43146040545072534 -1.249626584611564 1.7060557597815718 -0.09763944232204476
Ni 5.507994831174236 3.9702959394283175 12.074716545994248 -0.24083137646290778 0.3166748059557836 -1.2506054035850656
Ni 1.996508342292393 5.454970409041587 10.383656364482519 -0.37632851306267445 -0.3696089349506538 -0.5626288483572375
Ni 0.2236067277129386 1.670947179492766 12.24294449617108 0.09320248959661367 1.571898682149467 1.4445375443932735
Ni 3.540901906273715 0.5720457173639439 3.4814174994379377 -1.3872579939455139 -2.4233611458805036 -1.162128087378263
Ni 8.100618855545099 5.844682614029911 6.1605626823706885 -2.6471502221491443 -2.5845153209267426 -0.4979239519796845
Ni 8.975255342858507 3.7081752111499418 1.7336339958824905 0.11733023588275278 0.035004026879010684 -0.9878417458254406
Ni 8.872796937333986 0.7471338365618895 5.730120502906605 3.0026039486453384 -3.1517379593022494 -2.8975458452617193
Ni 1.0049675435833754 2.103024691602062 3.1297312197487255 -0.2654239782006074 1.2560183470705208 -1.1533063753215749
Ni 4.8480834107407915 2.967329317434853 7.85548258552875 0.04042185546047232 1.4762904113248383 1.3846259556393057
Ni 0.2447566559203184 4.952093933012628 12.06149737335959 -0.671714841953327 -1.0688533497828174 -1.5389960178841755
Ni 0.270993974020552 7.0040390234666265 2.8976233803089304 -0.07131211728142557 0.3635023078322836 -1.6144830924788969
Ni 7.43332085541058 6.391831817760879 1.4370703009650676 0.2610628730184342 -0.31879956560827033 -0.4832354967295742
Ni 5.020181367674934 6.237629953925289 5.64233240567447 0.9758264665321194 3.086571807017562 -0.4015412648828762
P 7.711336755197596 1.8479726395945881 13.288313825689068 -0.09348865337846479 0.5402502235517211 0.3846187780959247
P 3.5124308490714733 8.542607474595076 7.947444567797037 -0.36068900675320464 0.5304669189127121 -0.6722815130900744
P 8.647917660890267 7.835132090947246 10.223393765251691 -0.7935429657064333 1.246520949103047 -0.3642810949798372
P 8.823269452933237 1.471042022519388 9.145372013414603 -0.18993921759873095 0.49777817043043954 -0.40860331393598015
P 1.8478978387874885 0.3655047937907532 12.557872724241516 0.5535937347381628 -1.4467810890118116 0.23095011279345387
P 4.003320495762741 2.5816002554245765 12.789187675126058 -1.07065029378224 0.0252924560182016 -0.5615947506657682
P 2.893753373551621 7.960573044453085 2.0442247121512445 0.6008254140316169 0.19621219509163626 0.08183898495467841
P 6.999083469996286 4.552760474211131 2.900031966297534 1.3291886006066076 0.16509824729565115 -1.461156641007193
