# total energy = -381174.04885985487 ev
CRYSTAL
PRIMVEC
9.17992101762665 0.00000000000000 0.00000000000000

0.00000000000000 9.17992101762665 0.00000000000000

0.00000000000000 0.00000000000000 13.43574232992966

PRIMCOORD
 96 1
Ni 3.0752644225711707 3.4769777743474877 9.906710250864052 0.6707946441319028 0.06408397496410254 0.2634907657336365
Ni 4.667815512444548 1.7468747451912863 7.843557844534287 -0.33382766358598637 -0.3283617553754087 -0.06646970158745971
Ni 3.24289896363121 2.3339949654736882 5.353887939341834 0.9153206958375786 0.15316678596538782 1.065819705162816
Ni 6.943407819234486 2.594007053584118 13.454015401536 -0.24763014455229615 -0.05679464039154089 -3.27370723661891
Ni 1.578377291538309 5.486949061172898 6.282580175641243 0.44713438013164286 -0.11893871802045321 -0.43142185449239245
Ni 3.4115524759446125 7.448982799484233 9.277232038173826 0.156788184768059 -0.43399064366083323 0.5619441635853871
Ni 4.38563391463257 4.764617781514048 5.259690013917192 -0.8808892536325862 0.34745193923764034 1.9950660099425515
Ni 6.652450216753903 4.482050627011606 5.195964836920829 1.9879828778435247 0.6857983166295866 -0.9621147733729817
Ni 7.949536362836774 6.462086190799024 5.098810976869314 -0.5672678897911456 -0.8828654035223504 -0.8740457483481914
Ni 9.18607174867475 1.1037845453435233 6.984019790629789 -2.622167841172194 -1.0348867630293854 -0.936148431216207
Ni 2.4862806782848703 4.2404718206737275 4.004025508279591 -0.0655757290182806 0.6185845377872509 -0.7454419964341484
Ni 2.2474742081498356 4.254553819796783 12.34794413782119 -0.8001329602191252 -1.2331298725081217 -0.29186520311127157
Ni 7.2088911403809925 5.249960215435753 11.867187074539617 0.7593650342731438 0.5018127455111293 -0.1764758930049735
Ni 0.024369018821421645 1.165133958732946 9.421801109223054 0.974210013974619 2.118088154003759 -1.3405731882944654
Ni 3.3729784470560364 2.173309624763162 2.9127082139197844 -0.07001833817066651 0.06444572917889545 0.7791841258815999
Ni 2.81162626558616 8.3244443447048 11.64454277367189 0.34147875237334097 -0.33831552415401095 -1.6593431862163808
Ni 5.98556566115193 6.310902068532018 6.758124879664622 0.25160789825312146 -0.5330349367502045 1.0778437262068856
Ni 3.3953499150240183 6.446792442077375 6.960964418532297 1.2194150940251902 -0.43349776318481476 1.630689012814798
Ni 1.0783928833002578 3.293618028269331 5.865507897702747 -0.05495295919711181 -0.2611304930315761 0.8313978317706778
Ni 1.7244206579324912 2.6710908519128593 0.8127186197927618 -0.5385602374438079 0.6707259956774965 -0.3915191047601838
Ni 5.038298772293465 8.83691344577685 12.476014136495014 -0.1742485463363515 1.2633159091731985 -0.7832665234810898
Ni 3.0030276226368047 6.532964362395572 0.04364501736026786 0.9286415813162007 -0.3593116667897037 -0.2232897680347187
Ni 3.753256682826922 4.083155511044141 0.8392825577734548 -1.5046486507525572 0.6296024861643092 0.1444772286111899
Ni 1.0636682896931005 3.878773745414618 8.628273114701965 0.7308584421930187 -1.5413483201664357 -1.3048988748213073
P 1.4558253434986874 6.855822191051264 10.755997086762868 0.15814675567848246 -0.6368134020904517 0.09091934998939182
Ni 1.113625420871499 5.292178673041313 0.8049771922435622 0.2606674373522285 -1.0154278829738255 1.70195022225363
P 0.18389401749208267 8.04688942717836 5.033808872833826 1.885382491971779 0.8136291949333472 -0.048069601813717215
Ni 1.1488304186791356 8.403419206801045 8.607528328770883 0.6681245534989074 1.2241166132659176 1.3731184692203384
P 0.4487374981308459 8.849049301605191 -0.1547578655907378 0.200534476616074 -0.9574271380893252 1.0546130378137193
P 5.9459267614039835 1.507893856553424 11.543278144906356 2.052253514897137 0.8030899859649201 1.6692419333873316
P 6.892909072705201 1.3637231940843413 6.720840629704852 -0.5015242677364331 0.293419692082585 -1.2221556328848049
Ni 5.9637358085348335 8.691925770320836 8.098904696690129 0.4503474877523018 0.15421811004803762 0.06643499169478236
Ni 2.7951758467931263 8.938939090009985 0.3488351696716109 -0.7951234228196757 0.5855466334956754 0.34062720300632304
Ni 2.4332666333463826 1.0506787011930208 9.85561389146455 0.3607054618134368 -0.4562391706463885 -0.04719671229046065
Ni 0.09886224338710851 4.757016806759231 10.505689093354512 2.553600376515441 0.7885539971322741 2.4138856022899007
Ni 2.6529146079339494 6.837049252194258 4.655094895635672 0.3390940541912483 0.3580302289741189 -0.7209789782957776
Ni 0.6262973699939144 2.8146923592674513 2.954385056174457 0.73368819833233 0.7460480054492635 0.4017420680397726
Ni 8.19902826125032 7.509845677049977 0.9800180937289474 1.6376818991928634 -1.8975067860391384 1.5717253897963965
Ni 8.012629961254476 4.354826099080436 1.099497522142437 1.3527622741614895 1.6475523642290402 1.2470161435719105
Ni 6.770210245926356 1.4599746678817516 2.836392774995606 -0.6438533396563686 1.6189370144851924 -0.3958488424837892
Ni 8.281436413875914 2.34212837565819 4.890596594138177 -1.2487254129535332 0.17191141356274264 0.22336407291607982
Ni 8.288817070521896 0.1823233329745112 3.659452576021823 1.7449051285486015 -1.3399041872518989 -0.5061237141816575
Ni 8.987702831432191 3.7199519287079896 12.751594452971016 1.5839864665519365 -1.0649285608071144 -1.2933422803319599
Ni 1.340442913917414 0.7826103142361812 2.223816633221528 0.3206047371378091 -1.7146779542329438 -0.1743087101503256
Ni 1.3399288383301318 1.2790292410795814 4.609991188796491 -0.3444164948454262 -1.540830757100069 0.20403966155585504
Ni 3.384297289897449 5.6727598462118465 11.022051399008106 0.7165721074773337 0.8025274285932308 -0.2882273492483681
Ni 5.617175423336948 7.289041032391024 0.5032276743985301 0.615601801009843 -0.9297435561311279 -0.13316514603248034
Ni 6.859016803629374 0.002989900335318703 0.6791360784374542 0.5397393453535737 2.700345061004569 0.06185354297168703
Ni 3.7903619243232627 1.947226525413364 11.739708262791167 -0.1406473133421384 0.3726382086952808 1.1841508715062574
Ni 7.949297684885536 2.7717211481233712 10.685822097130353 -0.07238966661632049 0.2956274983671812 1.125449501010307
Ni 8.54717677281606 1.7550081553757886 1.2906748891157656 0.9939555720326624 -0.5664093984455921 -0.15030334837466375
Ni 4.860905974996263 0.4321484625276699 1.6403564475221522 0.7801107514609275 -3.1746408320423516 2.328413391458009
Ni 0.1718003893012664 4.778066366074201 4.132901504034905 -0.7767238372665656 0.2896928780503011 0.14770679129208109
Ni 5.291875735641665 7.043404700882097 4.789775355566675 0.4795220524337291 -0.5824109160801711 -2.2210698344743234
Ni 5.511037174405554 2.6373179218126523 4.692218496974416 -0.019763298669856287 -0.5048343059462725 0.06580969940595763
Ni 8.362127921236834 1.101746602836797 12.348777674666282 -1.1343200640270594 0.12005894766782547 0.09541800919069374
P 5.131291374064355 5.924757863113394 12.399323238793695 -0.9704605742345157 1.2712801583255977 -0.3498176112563395
Ni 7.498903210977825 4.689746344194861 9.377301441198929 -2.902455623858511 0.3588059307978788 -1.6982601749965527
P 2.7140712429781413 5.699455057065721 2.2428557897933765 -0.15532059908359702 -1.697726928200902 0.623561679286868
Ni 5.951416354282462 4.872867412321779 0.7324080791617035 -0.633162949822058 1.6294145169777485 1.0088990807163722
P 3.605432411719654 1.678374173185919 0.8614153477901985 -1.6177345095366589 2.7578917490707857 -2.6123076605486624
P 3.420438639667635 -0.05464807091234952 8.04843991586929 -0.8553723403084041 1.6021893627132084 0.9860640850997274
P 7.766093997467804 3.466475944493006 2.919183730335301 -0.84458656254681 -0.24106380418868803 1.987865892649686
Ni 2.5261307162204503 7.749560959383957 2.302537211500492 0.24769467924164434 1.8101941795643988 0.5005230801654283
Ni 4.844776853445281 0.5301119916291545 10.135951243107154 -0.5536857802313367 -1.3829786498438699 -1.8988890110986458
Ni 7.353199501668096 8.471460782746338 5.7098549897948665 -1.8314248068084007 2.46752575621286 1.6853295829778134
Ni 0.1232477860666928 6.340066678189087 12.556332939055153 0.6318647998359247 0.5042264971589445 -1.1767648634548316
Ni 5.599779472660162 7.186473772807003 10.66407027384347 0.027645529631410457 0.2670735979888884 -0.22094312217941303
Ni 5.370336522150627 3.9001537818928407 12.199264298057944 -1.7437535314426615 -2.2376459936654496 -1.1747792004833704
Ni 4.332472990954858 8.365194014918124 6.384315734364412 0.42377873612483785 1.3314671122281392 -1.951571686204342
Ni 1.5209660643443168 1.3202103675893746 12.204517966961545 0.6209481529234209 0.6662252795936655 0.2946430229667248
Ni 7.585102671059626 7.915139198094867 12.212633017303645 -0.743319807884823 -0.07986566327839148 -0.44714055077922993
Ni 8.325096119110105 6.912241986755497 9.974910639446131 0.23754936327752638 0.49968850007927496 0.32463854088755056
Ni 5.682316144182577 3.0020270112258447 9.973526307328948 -1.9878221838959445 1.263408725997321 0.27253847775820156
Ni 5.473977832515221 2.736562049921742 1.5084575037151944 -1.3720062099927661 -0.12216416693628639 1.5737231369527154
Ni 5.875388246891889 3.6837922190954 7.212615434412428 -0.30790528729326966 -0.03493126465954629 0.5115641684709383
Ni 3.428856627409383 3.9904199470668935 7.595225370168487 -0.6158761377171522 -0.29168882543440733 -0.8404002923796042
Ni 1.2389313452715613 6.134693481069806 8.779115743900276 0.5123105597186597 -0.5313745183286461 -0.8474448579312115
Ni 4.869672799743667 5.264785788176128 8.97064194787926 0.2502657824029303 0.2555864232848953 -0.031200593972520455
Ni 7.432734338957631 0.043342079960619354 10.250612130881992 -1.882907805179041 -0.428689543162894 0.26660334322068924
Ni 5.6590266840944485 0.3108982273144169 4.4608275671859285 -0.960629704187023 -0.9957712850851625 -0.07225622636224975
Ni 4.933445712330278 4.571499779198728 3.083180268623198 -0.44768176799468057 -1.2852062814883867 -0.3566582883272567
Ni 0.43426351637248856 7.063490368470912 3.043974661155961 -0.6950907976751062 -0.23687727691116622 0.3450307313906574
Ni 8.240879522007821 3.4598388614643434 7.528247747090443 -0.019488704852230955 -0.9964068617866323 -0.9661210663188975
Ni 4.6340609421867445 6.7402469831247585 2.3813908986368766 0.20733350181577842 0.2858832744962238 0.9520972412359796
Ni 1.8126213408362128 8.5867789528792 6.4625387609142555 0.09797034329890224 -0.3452685584330763 -1.9111647431422054
Ni 0.4713017444440586 8.79676047044162 10.907565847728215 0.6158591684362877 -1.5082314830078087 1.2423215663097187
Ni 1.9784198976559584 1.686581022740033 7.491138833625621 2.415871265261362 0.7156552520900191 0.6851743098923425
P 6.5669484306834125 8.023664226538642 2.71799657728389 0.066508268134879 0.5392755183432777 0.13746865850384068
Ni 7.053713752391347 1.8116023695828496 8.794513225731501 -0.23664742028854727 -0.8934058980423581 -1.847729457505695
P 8.765291700562983 5.194522671300079 6.5229720181677715 -0.9970524657904313 -0.5635757856515391 0.3166506375860676
Ni 8.806316768412351 7.431348170856209 7.253580832773987 -0.33414519482640515 -1.100376360091763 -0.020143821937726597
P 6.614885979197488 6.715158258481142 8.76658056149967 -0.3847031102796149 -0.2808572820365421 0.02347160075937893
P 3.432996771871246 0.30289150004249493 4.258028419971539 -0.44529886958480086 -0.31125003539578655 0.29066732614842844
P 1.1108806244322593 2.7904022877683623 10.64802744355178 0.047701162730704946 0.24935278367035768 0.07460261510723926
Ni 6.899050439988985 5.841266479786026 3.024774855963087 0.8610539640742138 0.12459463075464992 -0.7358654084893069
