# total energy = -340865.0447307596 ev
CRYSTAL
PRIMVEC
9.32284170452562 0.00000000000000 0.00000000000000
0.00000000000000 9.32284170452562 0.00000000000000
0.00000000000000 0.00000000000000 13.64492120185664
PRIMCOORD
 96 1
Ni 8.145693277176699 8.30865655378236 13.425715558894654 1.3141468757821368 1.5660584213186062 -1.2957935700859295
Ni 7.862232268870338 1.5716260436858926 10.350628362439913 0.9926697633417033 0.23876678062439521 -0.7164898321761725
Ni 5.484460085133435 1.115916208230435 9.884981309791437 -0.7713265775103942 0.6910456810714549 -0.31414638310697507
Ni 2.754974367459163 3.093747796823955 5.5113751297307205 1.4743299451643577 1.775532366516155 2.279723125341158
Ni 4.9984789819927045 5.38005357857126 12.033783563908045 -1.5262081220908876 -1.6028527073288201 0.6072349171023864
Ni 9.080998069063797 6.019684439248487 4.330310902225665 -0.2897260452810817 -0.41206787544581286 -1.1129292570561091
Ni 4.808050613117002 4.542442847070359 6.784923813562064 -0.30615822269517595 -1.3911737840601526 -0.6767999697857183
Ni 6.454585691558416 6.96875906863825 11.843382231273887 0.9758681184033322 1.0967883856301883 0.658194438869389
Ni 8.448368662661792 7.526712511332512 8.80751063703391 -0.8184443569338035 1.0899217404173422 0.6335285606915928
Ni 9.29492932239733 2.67848977242067 1.8934785149820765 -2.841364155863829 0.8742208404734751 0.811425502413809
Ni 1.1971461298016672 7.100043328430066 13.55530119689027 0.34748279247557573 1.436410801521081 -1.3340006772832702
Ni 2.933534758582061 8.754903704698073 3.769450597423529 0.8031154398862168 -0.554526016744445 0.11687566484383743
Ni 8.369926270821972 5.9621811503409505 12.813522754245925 0.17107786191785376 2.3072056470321427 1.719939459742199
Ni 9.387169520265546 6.977075043622932 6.467651654496794 -1.1334471745038026 0.5807944635226707 -0.4169072058159853
Ni 0.7752521065260759 3.2589299098044546 4.625328505364998 -2.1144456721551648 0.0778450333039369 -1.8504499417606517
Ni 6.9290903763066085 5.832808073140906 8.058322399638637 -0.7048252513540507 -0.5188223926952483 0.012016307734585757
Ni 2.112872953675501 5.717158219233969 5.336829154334733 -0.051959423786426644 0.13366394004576979 0.46502000216281203
Ni 6.045760428073774 3.499487199636029 10.528407499410664 0.13767177565358224 0.6711833949298893 -1.23533819301335
Ni 2.0660256730723283 8.940577424199125 10.891103341119283 0.13512149842790278 -0.718134309758131 -1.9446855006074704
Ni 1.3089270043155057 2.354959189580492 10.770482547905361 0.535250970564917 1.1550709234211656 1.4289795420540166
Ni 0.42971588763898677 0.309594798751497 1.2569726709134441 -0.24274659120774963 0.9723007127670481 0.5384987880782532
Ni 1.1758434360348515 4.901120543915305 9.72114727975128 0.35696733492724325 -2.4104333820752424 -0.4150272151844529
Ni 8.276492749189138 3.5856955187877775 8.939279684605102 -0.9054312046380083 1.204392395364113 -0.5728896068532973
Ni 5.676147037667133 9.412714107101904 4.581104672475604 -1.4008635005440906 1.2903045219469005 -2.2659299282118073
P 7.754199176804753 7.90286121391882 4.618928374393043 0.8798327873436138 0.7686721706066826 -0.1592944961296805
P 0.2169555832494862 4.674864493575327 11.764691851839231 1.7004857218929619 -1.8000828021620097 -0.5704907676038176
P 5.738656692680918 6.254116621944482 9.964708389246603 0.35718896401974615 -0.6486571888029152 -0.19991278387167505
P 4.915990476763477 0.2880385236846999 13.328918355900301 1.3763714289399975 0.48221913964991786 -0.34239997863602967
P 8.359354168094809 1.6829314532622661 0.10755576255973737 -1.0470578511742805 -0.6524215409413539 0.3116729818658181
P 0.7521622239649063 4.658530874547116 2.7918191709759386 -0.6262790782180311 0.21384559190268332 1.474566486655196
P 2.8098952291573296 2.9648315388775535 13.510504941507534 1.555930845966301 0.5599998953748226 1.8763085546949687
P 1.0569492331428598 1.1199343530941102 3.384541220293379 0.03581469570576413 1.2873199853972799 0.2724587735602017
Ni 5.310206846973456 4.839179582258095 2.1621059495237187 -0.40604120963575874 -0.2997384352117612 -1.5485579505409977
Ni 7.718529983652965 5.277297215027347 10.70450945712161 -0.14155234165491104 0.1974841198255244 -1.462693903587326
Ni 8.230046350788141 4.473472462612196 6.294129327142642 0.3487686011665348 1.0454691665309221 -0.14010789589890063
Ni 1.3912849897579787 6.911395622359381 8.463672107658828 2.396278687841415 -0.09084530221834677 -0.05732865851813998
Ni 3.4310855085344416 1.6471970002171 3.651776754537697 -0.9226159439474111 -0.8317019932746579 2.333467923162781
Ni 7.738807164809562 5.012752252958566 1.5705436617400164 1.3659422631868734 -1.0144359513742014 0.009675832526867207
Ni 5.3469015527354635 8.125695781277432 9.028216799584223 1.0472203448940738 0.32433617915578333 -0.8334194901863968
Ni 5.980295432174177 1.9578154470104332 12.212532276437548 0.01078217821716853 -0.5306417539276796 0.9398096821178782
Ni 9.347640670562573 7.391251618364533 1.7748089925801416 -2.5074732431400752 -0.6012051659685388 0.878801774975938
Ni 3.7007487108124044 3.3020014394336403 11.673203075029049 1.442133305827155 -0.6346025104820618 -1.141788861600279
Ni 3.235016820302537 7.367198686233949 12.46302585117795 -0.39758510844860556 -0.5384008290478083 1.0776372666230343
Ni 0.7048133744669178 8.53457698181354 4.114776120083428 -2.321520520992918 -1.0724729488132756 0.8884413549482312
Ni 2.0820796068432066 2.3550151266319586 1.8561461268333515 0.1255582802194999 -0.2748265024614299 -0.6480534937806451
Ni 4.457399883157495 7.181049501795432 4.806682952208647 -1.4299771300805955 1.5125059420134466 1.2203262929855498
Ni 6.469194584833076 6.337798450938328 5.511729397723342 1.659631149770445 -1.977212012480266 0.12076780080939199
Ni 0.8677841093461093 0.6885226405114981 12.459859814064947 -2.1380026335394984 -0.8654317814269353 1.4476673482715068
Ni 3.9428442695593064 4.909222093536033 9.770882776778503 0.4001384709980786 0.5592920706745207 -0.47765028933231285
Ni 4.468577970608879 8.629837780460946 11.179870911041432 1.031544328919714 1.0003506769257289 -0.34229199230325563
Ni 7.008987131484557 9.296542174047946 1.643449217768846 0.22046386855014935 -0.7536672125574182 0.4557838282765247
Ni 4.1898716116771695 2.7994536462169215 2.09010191230769 1.146425846151658 1.860751837907292 -3.3816794283255303
Ni 6.571037309869705 1.707217456440627 6.856354496000561 0.7247114487550164 0.24452039527872085 0.5221676550183975
Ni 5.152240613632132 7.573494532042307 0.29611769848484104 -0.3260361925660256 0.36954517159225386 0.30257513332960795
Ni 3.1114052594035386 1.035516019589289 12.579102691244413 0.127224097957697 0.01993196303723664 -0.7805403827991783
Ni 7.8340959319827 0.9563464460804053 3.9694171658584554 0.8483899954533002 0.09100496772466263 -0.30799450457296634
P 9.141093108022613 5.455074487429714 7.987040882670718 -0.35269133325970875 0.32417162855346104 1.0587561134478154
P 5.829088259218386 2.204600395238608 3.2142520545139903 1.4248261820072754 -1.5161990745943177 0.6157586383026815
P 4.875482728659837 5.248741350253711 4.272306976707505 0.08481272287102166 -0.8656133013101222 0.3584115235729376
P 7.0484973355037095 6.87224900917476 0.7736551037067081 0.681144105687027 -0.4197058516070449 1.5123267361231052
P 7.07235448795416 9.637953967673575 8.565176413534084 0.48017511263669566 -0.8836074238946975 -0.24947131152609295
P 2.992138142835104 6.787578958938339 10.332712657139393 -1.1590939285376296 0.7077881906371165 0.3160047764719526
P 4.217168892792809 -0.3457655607981017 6.204072538849999 -1.0857629810539624 0.5744224985580559 0.875526703769092
P 2.771643608796172 5.218376854149327 7.380033442692931 0.3065857971508978 -0.2201795045405111 0.256161579062075
Ni 1.8835123969791328 6.662932562587211 2.912713123457857 0.1083678844831424 -1.543815807870322 0.935944285625201
Ni 6.776111863387711 6.438858057254425 3.0546748340904317 0.25074580736314234 2.899774991702554 0.47639250566581176
Ni 1.1867231925450807 5.036460239938441 0.798294442593499 0.2405963776339663 -0.9848723787844716 -0.15044990125485705
Ni 4.766666517873722 6.784185444482706 7.077798095346041 -1.6046226547450495 0.9024402403304844 1.4678080848854398
Ni 7.607364416705258 3.889303188463979 13.11008142315316 1.4184143649436605 -2.870101375897521 -0.9037977827996435
Ni 1.9983884550074493 1.0326725528064098 5.539415441346674 -0.621612011759665 -0.45356908001339297 -0.1693955891194244
Ni 4.484342896280514 1.655214644260628 7.451532181877378 -1.5530553241907188 0.1833667065875358 -0.4541650617261791
Ni 5.042212433397577 2.650651766474188 5.1044153669124865 0.604980573850571 0.4397542856174878 1.0784715895988717
Ni 2.4485978137353706 5.152035511110088 12.27392039356943 -0.9449603730808822 -0.14936875237553632 0.20347530441195277
Ni 4.420145806880823 9.59973031583815 1.8090573846246818 -0.37177508936403714 -0.4856685316510991 0.06349339256795516
Ni 3.137099011710473 9.304830180506896 8.56472612026978 0.7106616555301696 -0.20720109000297218 0.08052566545989358
Ni 2.0372833514604713 8.240637099199127 6.264956290234493 1.223629389216854 -1.0306680969623476 0.47729547709605546
Ni 0.630680000158399 6.748842550797805 10.856090476038036 0.23901849162388514 1.3909099888758045 1.1769872638782828
Ni 8.495644793992874 0.32642625753775917 6.540325071762037 0.18155125064535185 -1.0592664774253304 -0.4813948439764096
Ni 6.799707976264653 4.305055323488552 4.060373608395516 0.8263548700301317 -1.7045316098275611 0.5256427580511915
Ni 6.402433713907839 8.424091982325342 6.384131110668009 0.8789866372932346 -0.04605128583210779 2.925045850454201
Ni 0.8371734902152722 9.173685763343746 8.291936969099032 -0.7300308040854008 1.6937604873539862 -0.10034295729613688
Ni 0.8164982237090721 2.815134666311356 13.14847847984813 -1.7478670393904028 2.455144608939688 -0.10922946115248929
Ni 6.9150315307047014 9.12595281275902 11.458063581383842 0.15884223908361028 0.26747983228837163 -0.0544888750764997
Ni 2.8453499969451634 3.139933155651441 8.599534815113175 -1.0159220490014245 -0.169806708514914 -0.5402772201349146
Ni 3.084415632070965 4.362614549447554 3.524455634842281 -0.8952149262266389 -0.02961936552832963 -0.41906924646431054
Ni 0.35879796150559917 2.292626668563017 6.8265680160946625 0.4522549891876598 0.8136695612529794 0.6201567673703772
Ni 4.219238563697068 6.981009282909408 2.637645469724041 0.31693628714728644 0.022308176578897065 -2.3262976306665872
Ni 6.154231693709181 2.106775815065655 1.110066124931233 1.7884395614961264 -0.062477035488298846 -1.3197788772569334
P 2.1338120566077845 8.332000949927703 1.5985709213772934 0.7602250682805939 -0.00974988029791224 -0.2356979118910844
P 0.40741098836673 2.098618328393461 9.011556881089126 -0.11406262087507452 -1.6486705369938832 -2.0077587749188712
P 7.803927215558449 2.6442283283974546 5.438429485481674 0.9679666041680683 -0.8282942531446895 -1.111533148039531
P 3.2526183458306543 1.6734501230386984 10.267708209630204 1.4236367896848643 -1.692172059820944 -0.905760048732337
P 3.672519145505657 5.918699415667677 0.6515342652292918 -0.4756574272720002 0.020125567105281468 -0.5693797939278259
P 5.684537595387105 3.9918078352762936 0.05064260954517278 -1.8961515575628247 0.23768203220064874 -0.02012685265686211
P 6.128174350567715 3.700198663139651 8.239635825977878 -0.1720739072825359 -1.0456594281648572 0.6693789947312988
P 9.133783999964328 8.719821850586682 11.214065230602886 -1.4620511277970045 -0.5103305531741533 -0.4231205337155487
