# total energy = -381171.49684715795 ev
CRYSTAL
PRIMVEC
9.17404587590156 0.00000000000000 0.00000000000000

0.00000000000000 9.17404587590156 0.00000000000000

0.00000000000000 0.00000000000000 13.42714346614723

PRIMCOORD
 96 1
Ni 4.9006284532756075 3.755423148641161 0.23946736391827012 0.14965080239232936 -1.5924921900301026 -0.23599564563716127
Ni 2.333528624279443 7.417518729898849 12.672080950686265 1.0188690474448905 0.5324253281906637 -0.8990767231748904
Ni 7.030557480293535 0.7908522832320045 1.5737956216255846 1.0390514359300362 -1.139377938165941 -1.1377519725267438
Ni 2.9783172555563495 1.0986470224688005 10.07413064065234 0.36876587022406815 -0.31140301603388304 -0.62020638966139
Ni 1.5062040047759622 0.6128280907037674 11.883263470800928 -0.013870587334505143 -0.32952517955589056 -1.0843208492907972
Ni 2.317822657960707 3.856750483915952 7.01299652192477 -0.08331762638273393 1.159100613405849 0.23247323430619962
Ni 0.6153234311469311 6.388530236786455 0.030065182721823982 -1.5309505218718795 -3.3412740279252904 -1.1482811541928417
Ni 2.1748726771321154 7.8636250524345925 10.117271590777257 1.3280979386455902 -0.10122150324634827 -0.4905847380057938
Ni 5.901122360298053 4.252096811333956 11.63277991274975 0.17032684268444215 2.8851292167649216 -1.9072489530275667
Ni 6.017660263421247 6.837287858543058 11.30718568995477 0.9290516722704257 -0.02546549126095614 -0.14057943621868046
Ni 3.07382824582759 4.630672983126581 3.7770014216425043 0.5666680514236176 -1.0001293049435418 1.4878778590521216
Ni 3.9082719248306854 9.076773339870769 12.348271997193637 0.8771189879568765 1.175598868171188 -0.3005588742305275
Ni 8.357243757893661 3.865043821271173 8.797826387485179 1.3809778173637572 2.2531543737136936 -0.8280248015333868
Ni 6.859223001923957 -0.01299320099137047 8.041663923436024 -0.255205900017025 0.4200346957013734 0.24869201015790715
Ni 4.493750350353719 2.385628030076233 4.211705322719393 -1.2299309059548496 -1.3120048897384695 -0.8936306124586545
Ni 1.5909354912945652 6.668412024433655 3.8394381421869292 -0.6858767352760058 0.1227894592251111 0.48898911138389983
Ni 7.514470045352358 4.585426589502744 6.569860755401883 0.3756170888179466 -0.09517066906657803 0.572421151857311
Ni 3.2220166067776765 3.1324595721961903 1.799545952343052 0.48954164145326007 1.8353436822468325 -0.12554002538705475
Ni 0.7432490772557833 5.315928330193175 5.323687738085924 -1.2256754731126052 -1.0184589564906654 2.2786540606466947
Ni 7.78814100402889 7.924926026115548 3.090055297944752 1.1579765271037348 1.44269946274327 0.2895334696543014
Ni 0.6704713723454238 7.631090514887274 1.7511950616384562 1.047782130934815 2.802700163634728 1.0574646483299013
Ni 4.7200832329761155 5.331533382008694 1.9553680367591548 0.6674367834032634 0.12658492171180133 -0.11573075260611682
Ni 2.0478947099489204 1.7376101346964088 2.9253986074743596 -0.11123646428018907 0.4496111238069096 -0.5951689870767879
Ni 5.4350349661255075 5.5075649718007 6.491043776176323 -0.6870352743604813 0.4566731728600135 -0.35531720091832997
P 0.6732391819472713 5.340789994167342 7.657473235646282 -0.7617340487259526 -0.19407020904796898 -1.8703366533822496
Ni 8.774396792052107 2.426590144336255 10.48349766218537 0.30243115155257594 -0.6571418292351586 0.9489669231371141
P 6.052154675429686 7.146930250593284 7.673759919060799 -0.0018044001985904408 1.3899684508981416 0.23807463965337705
Ni 8.214036903784155 3.5239803225377266 1.4030556214204062 0.20772739482008737 -0.44398863541380956 0.5822054849375844
P 8.516688672975224 0.43336907742071107 11.212496694182455 -0.6487962854839406 0.17581023439651658 0.032129019324060794
P 0.3256722021838295 0.5256030985511498 2.2781293142274848 -0.12030577357130895 0.21481232669132683 -0.7188488193266523
P 3.794064229327211 6.680154802989719 10.852985106856515 0.7561174738701236 -0.39578096536033125 0.14885478885359527
Ni 0.896997827333081 0.9169192676725295 4.657875863575364 -1.3913113380792812 -0.872721115999497 0.374396071926652
Ni 4.480833293942048 2.4638918143432536 11.255531225376707 0.16375921676925348 -0.2506558187524973 0.21233661145732463
Ni 8.849477182444945 -0.011730852296593533 6.4231695987176955 0.08918976889279477 0.4900885150956657 0.8351516423861552
Ni 1.2516609314817695 7.669538940612638 7.829259994471184 0.7398971553565193 -0.5897213336986553 -0.29363617896876526
Ni 6.252827752097933 0.9543117607324229 10.609578407694517 0.7308044490266318 0.40757924354684005 0.2927720311962571
Ni 2.356830700476634 8.718196587806442 3.335919723962353 1.3241060438773777 0.3381828552308886 -0.38495867793384664
Ni 4.5024748678590445 0.9042269753816582 1.9499030577077112 -0.40185802479234667 -0.32464059777007964 -0.8186860406309643
Ni 5.017982846470278 8.42068228423365 9.687898727683907 -0.8180085549479653 -0.5757170489997633 0.00868595780977214
Ni 5.546095963937787 4.397147648638594 4.146570515320797 0.411328169066311 1.0237011787262111 -0.5995696872476448
Ni 8.992739080828931 8.71292151150196 13.09686220388328 -0.9466207915024406 -1.5669943028693143 1.2699884360973674
Ni 4.765714936521323 3.7128280542381864 7.708912110149293 -0.6410132991044122 -1.2596227765923274 0.5434152515432642
Ni 6.440556250217268 0.1882743538412769 5.870118672696319 1.5888512508434056 -1.6145555975880452 0.22353505127630532
Ni 6.350448772890966 3.1868433153839644 9.426337509393315 -1.4566199294791042 -0.5219293137553462 1.909623109686698
Ni 5.529114805260227 7.618347765344795 2.3414788523237293 0.316231547770778 0.9554067652251866 -0.5532780032699568
Ni 2.4763318203760845 2.3039606748371027 13.160399809917335 0.45470807871384267 1.8079884301623315 -0.35623662740880585
Ni 7.899688226265757 4.3798820945428805 4.334309104890454 -0.4245462104184818 -0.4094391795737142 -1.178731243152583
Ni 2.9436393626329713 6.010229286366237 6.005545018607857 0.6438957628585298 -1.0710809535617554 0.4069004723122605
Ni -0.03830072358883893 2.953354677078966 5.910937671842689 -0.5716400507169123 -0.8796677225206593 0.01677876212023562
Ni 7.379895968290709 7.061134574768038 0.8356674967057351 -0.007658544986522293 0.4393974164987013 -0.6801598873968867
Ni 7.559514609969762 8.195367720689163 9.88788283351656 -0.5633546707796685 -0.04037069050756273 1.5571780881098407
Ni 6.049475854071584 2.637565674378299 2.3678092810219797 -0.18402182367303146 1.605413783187777 0.31454876075171634
Ni 1.5066351849260677 5.331515033917201 11.207018871466966 -0.7121348976415864 -0.11802289107440318 0.10191364421736641
Ni 6.769115524597655 6.432565656371696 4.7870455102874985 -0.717582551019719 1.7127665961428438 1.5801611792685752
Ni 7.022759541408649 2.5668429557152503 12.364532993280061 -0.14840227469720893 -2.630170913982328 0.906462217005684
Ni 8.797084207184254 5.701063944694851 2.2154384726158702 1.2232195553729448 -1.471543383558156 0.12991964251198915
P 9.060049054474122 7.555019327553768 4.826091166390988 -0.23630572067841238 0.6558693902806382 0.5429941048454454
Ni 8.654482840094046 4.050368719404813 12.601454559503562 3.7155055492496203 0.2053388399832528 -1.1561423021084731
P 4.873308145041264 1.3932715016313104 8.614451891477335 1.0808105221446933 0.4122244556283352 1.7083592111037678
Ni 9.047489785846583 1.6765385121591263 0.15190660169131517 0.6459583018145133 1.1135900305685595 0.392815197863788
P 9.208907120763735 2.092838360063108 7.95817368530698 -0.9620710646192399 -1.4229587897812332 -0.40967932060897827
P 5.250379773331393 1.521625575676544 13.112344323485791 -0.05646631051784469 -0.6722666006917389 1.0860609719103556
P 4.072074511642039 3.9449130635439054 5.682689248468334 -0.6979786607458623 -0.14387739024366186 -0.06522014545107478
Ni 4.783870373054488 1.482232223239246 6.468875612033452 -0.8483781683787581 1.7855630112792797 0.4017659792991726
Ni 2.9585380129259784 4.98175453981567 13.02423495332317 -0.14409541979173893 -0.09492461449404298 0.9661516624465167
Ni 3.80644919108556 6.915111288614226 8.23744539891201 0.2931507546919145 -1.05913303717126 -0.08423962397637105
Ni 0.2581925086923196 7.400179783437161 11.255490859575419 -1.2491352467974424 -0.5152768414358351 -0.320914297958428
Ni 2.290300520719931 0.41798970713056527 0.8028629439238792 -1.330428900771612 -1.2617436795900723 0.9393258005029241
Ni 4.726064710803111 6.891533991044628 13.141400361175453 -0.19456128975177459 -0.956398696824811 0.7739568160443897
Ni 3.3926355095789957 0.03655673749234841 7.863351665871333 -0.4782771242830344 -0.8953113425951871 0.08312607919721812
Ni 2.234889284408501 5.703605155366749 2.067780371509956 0.1198195779635098 -0.456706082980478 -3.272179230010158
Ni 1.7204546691496585 2.8512108517326977 8.978126660763229 0.24453350790484338 -0.29848013732462786 2.090666567457696
Ni 3.419809033081388 7.688887003092904 1.4418333953880853 -0.27463649793781086 -0.4615731812647922 0.31602817351072027
Ni 8.639006224918981 6.527948210002479 8.917006415783487 1.266737790370554 -0.9346343085645258 1.454547620331108
Ni 6.197526604335467 0.4047222021713618 3.743111579248787 -1.0936768365844003 -0.04871931958257416 -1.439821884085159
Ni 2.1985508892049297 5.200913318663971 9.03496354378373 0.41102169356948565 1.0621080606391837 0.06149333141879086
Ni 2.04455535729704 8.063857774906987 5.662508182634248 0.3131691067953703 1.9204009170284926 0.3661014360180275
Ni 6.92401928703449 4.874032894655271 0.12682659542837046 -1.5338676955186745 1.9687217156210672 1.1994949580624954
Ni 2.066407934266216 2.839890079280992 5.004941023036449 1.9502776499832668 0.14024982079340362 -0.7505620912695332
Ni 6.382906546743588 8.722673522130941 12.937723701929665 -0.15768807087450906 0.8570834094622402 -0.6188521896263407
Ni 0.7553138648175649 3.833063097797391 3.441792798904746 0.9998891639082779 0.5136405913839929 -1.569891421911451
Ni 4.695561008694584 7.749435705022612 5.8186926418573535 -0.28708552233444107 0.9939159770439786 0.9101111266121811
Ni 8.153882685821566 6.791197452710504 6.639789919107821 0.4468698136163465 0.7400007708139191 0.5997152116865736
Ni 0.6195462444042408 0.2724141144092034 9.260203797557669 -0.6254437268009293 0.9689636779740152 -0.28786405237167845
Ni 8.348188974741445 2.125837402614799 3.2076775732752316 -0.01923622252179268 -1.030495318829909 0.4349797470469799
Ni 4.350259100826058 4.533116180653776 9.833033048804841 -0.7369218747782792 0.9432256497779626 1.1045299772488204
Ni 1.9385676067828101 1.500699577327807 6.884955282839508 -0.9040374096142753 -1.0277920609661333 0.0911198960359721
Ni 6.5184622467001585 5.769750025202081 9.288225920291652 -0.8755295319825697 -1.2932129538429469 -0.27533789488020965
P 3.665379889635088 0.46806073141270954 5.014581110307318 -1.108006365833195 -1.2134380505061488 -0.6187876549369924
Ni 6.840269423410809 2.454965467831495 7.376711657011951 1.1459784742015942 -1.426541622036485 -0.7843574425524233
P 2.5991447707901747 3.443982643624537 11.401040764968691 -0.5067029837238951 0.45022381769024394 -1.8026287085123147
Ni 6.818490238807608 2.233403088997499 4.959154278118119 0.15631767288954368 1.5357973084412198 0.28720842106555056
P 8.066903558094966 5.527692828169454 11.201930028291144 -0.47623849658645084 0.941506867314643 -0.9564909994283011
P 1.1541224771004583 4.236363322877979 0.8699389794025244 -0.0808316267360866 -0.6204102781420799 0.09425869877526992
P 6.886121304053941 5.977606379690171 2.848904496631921 -2.260008934741682 -1.7924083163358873 -2.0026934445808218
Ni 3.981031281649551 6.786408600830609 3.880873637207493 0.16888265403874783 0.3492771653718372 -0.4467916520802434
