# total energy = -340887.46475850826 ev
CRYSTAL
PRIMVEC
9.12009435125336 0.00000000000000 0.00000000000000
0.00000000000000 9.12009435125336 0.00000000000000
0.00000000000000 0.00000000000000 13.34817995632680
PRIMCOORD
 96 1
Ni 6.5900799957333795 1.4998998686366762 10.962967423051326 -0.6384810196008618 0.5419561504992343 0.21938271967082862
Ni 4.80570613811138 0.9406830315434136 6.133141370902068 -1.1920287315924374 -1.3638370439184127 -0.5644093372964281
Ni 2.808140950452162 1.8025502060462024 4.702349930674446 0.644066226998123 -1.0640304744728772 0.34386602165859487
Ni 3.5783055743250647 4.349883812852132 4.511431695530146 -0.851162673102431 0.8437517253503404 1.5790548335782741
Ni 3.714860749917436 2.971937848444481 2.486859171900737 0.3381622864055982 -1.3801077560539778 0.2854060777494891
Ni 4.906437582338839 4.921567819185679 2.630725927288233 1.6553127249007489 -0.6594936172967868 -1.7986805224978442
Ni 4.811159954648095 4.806308064351218 11.417512935074553 1.5472109495947997 -0.17161445114761414 -0.151603555243326
Ni 5.749535602272129 8.003001522713443 11.97136898059544 0.28315122027704137 0.005658740947674126 1.4614464043334703
Ni 1.7907944041802728 6.5830119224625525 0.2487022421593057 0.7119276667267869 0.26951948842621964 -0.3459283035042623
Ni 2.9699223075504775 1.6235865908288714 0.16198017515935256 0.1555936502393256 -0.4792955382452197 1.4325112093563586
Ni 8.480547913174123 9.371353147661857 6.30178286311563 -0.4201313691802377 0.011900608092327892 0.6511100212187819
Ni 8.441367987017385 2.5653457935283592 1.3262952209728132 1.316285005171062 0.021763102708704456 0.13542488860093452
Ni 6.787320280414886 1.1465965261353162 4.881416602960113 1.2062194212705226 0.4975796812663882 0.20305004394907614
Ni 0.9624162168393876 7.546075666014493 2.2516245733530824 -0.43380860955701417 0.49563207062171405 0.6977459759097661
Ni 7.681837393381623 3.968299057172923 3.600430923686388 1.61600904220512 -0.04391367066381469 -0.3482983463983357
Ni 7.026002274699796 3.265960576416327 12.684842184779587 1.7967547662300412 0.7747600286719754 -0.9646719925771968
Ni 8.472421908936308 7.3551282465676575 8.972633558355255 -0.5904556407615186 -1.134883649840013 0.5971798468592296
Ni 6.97540399017522 0.8379497265637659 0.09625894986357048 -0.48175222731582834 -0.3102218512415883 -0.1184041856732219
Ni 2.063120427234317 6.524552116441909 9.044713313566419 -0.11240271667414835 0.7326271040576673 0.09256948399830509
Ni 0.10049888181661217 4.980921394471537 1.1708824258938764 -0.39878812761777127 0.6013149520735257 0.22733257064552462
Ni 6.413706487366261 2.5449532621302065 6.999986293006428 1.0027070929730473 -0.7436864471956224 -0.04644235062293937
Ni 3.5023443068763997 4.3103482030082185 0.17475286756682706 -0.13964278333702404 0.3308068744817916 0.5517965336284238
Ni 6.127180477108762 5.80467569387912 4.57905354852869 0.524270303183697 0.5831251685383763 0.5268447487790926
Ni 5.270612077535457 2.98196083234724 9.341723784510553 -0.5586001868138186 0.26389211493711323 0.13796282453143982
P 0.17978533573565564 6.015067154891637 12.22065946885277 -0.03454945584009534 -0.700800960686006 0.4696916966068685
P 4.208111943181164 6.356742376850669 12.845727948593778 -0.9947646981975189 0.3350178272393456 -0.8468630172858125
P 2.67987594079938 8.71020101386146 1.4698345649662155 -0.19589877761627553 -0.8953509375838709 -1.402935295471455
P 6.647965235797814 8.125356711102361 6.003771005790675 0.09372570908993536 1.1417238126902982 -2.0557329888053046
P 4.967067970860717 1.130025314350681 12.393571901340819 -0.9313145001626735 -1.0930212052782724 -0.3049598315117006
P 4.120440474339285 6.079254380285286 8.22896645716759 0.6373350789218766 1.537817938415674 -0.033930077088541566
P 4.7424674025502025 1.3062985016778266 3.7761997697853054 0.933289107390541 0.5731778275176774 -0.1886528946871396
P 0.4050671751085318 5.7899376210976286 3.461103239352944 -1.5865457426386804 -0.5640702087894544 -1.4194242942654134
Ni 1.002681434246742 9.136784316015842 4.5046773535116 -0.33448329489211426 0.06610563337982164 -0.6008840351836942
Ni 1.791888815525433 6.740725717394688 4.756130216185075 1.8703556795456435 0.9784171100774309 -0.5902414678681834
Ni 6.0736820025195115 5.547242785213799 9.34215151694462 -0.20022722978830035 0.7512537180199191 -0.9120178567165906
Ni 8.594877418365197 2.3710056989115262 10.194325854967106 1.1893871802045322 1.098261113520973 -0.41149323388926556
Ni 2.557137708439657 5.5750955539481275 6.755461054147816 -0.025210437827356585 -0.9821282403804311 0.17372918349777178
Ni 0.8307366437897055 -0.07140304419607242 8.932949290970289 -1.087163975166547 1.9734234919721108 0.06064872403030845
Ni 1.7054029589741435 1.2425034403495265 11.622207073026056 -0.5545856663377868 0.06810183787424401 -1.8689117480102655
Ni 4.415712655263522 7.08224589774649 1.6020084471401284 -0.5665284405219598 0.032365560814899094 0.09318423476416855
Ni 5.6446089145548894 7.859660996781079 7.827666793114774 -0.5786121111593712 -0.5888939527013536 1.8103461317612306
Ni 5.660058354710735 3.3159204543228933 4.603626731265355 -0.7997164415069968 -0.6961855734011817 0.2386279410536858
Ni 0.964048713762585 7.737707092552054 7.027083005903141 -0.18937100380008676 -0.9860075208301794 -1.0293293235462662
Ni 5.245641258676717 4.592788410910452 7.135924038198238 0.633153179630045 1.1981387011449172 -1.0958201081796481
Ni 1.120285053378755 7.7019380817544 11.17366805526885 0.09392368403335437 -0.4378524406090846 0.24638110263654342
Ni 4.771350741967891 0.2279230187525296 10.149021785324742 -0.371134884676877 -0.12098248792335939 -0.6012344765445774
Ni 8.239823017711581 7.46070246099745 4.42003649208636 0.42569060843557005 0.12265781874325325 0.30977885016689877
Ni 7.656784493671997 6.469193142565886 6.879571860736262 0.006984915958265389 -1.456653096709885 -0.5367998031092756
Ni 2.2905299846640754 5.373897148234957 2.3017066605265244 0.8339717631454412 0.17727782008097856 0.9891743485939352
Ni 2.534401312743953 5.548145674573555 11.559911355240624 -1.5810556660583868 -0.9498557534999706 -0.5548636025895218
Ni 1.4381294682969228 3.499735959837101 3.8355998575533325 -1.10869207904631 0.3033359227550324 -1.2380607341508356
Ni 1.766233989575968 1.2879215111736775 2.358770180072635 -0.7235724500545667 0.7498804918214763 0.6191972316705853
Ni 1.363162291153445 3.2004874176921145 8.289220185784844 -1.9231396561158944 0.9464379860676733 0.18960266019491862
Ni 3.6278732881662816 3.0080625429293124 7.528427371064329 1.1200671536524711 -1.0367569834689048 -1.7297651875833695
Ni 4.480766289638757 7.205859659182342 5.810035573442042 -0.365934314312544 0.20891035938459504 0.21165861155369353
Ni 0.8966211187778073 -0.16966385481183185 0.077656693024209 0.17589765190400028 -0.1820248478476607 0.6920939198303113
P 0.45547484965715895 5.656410316893535 7.751782134460269 0.2149138852661976 0.36175781433735116 0.5087572951497625
P 8.633537499132983 1.9981944741826845 7.7983940256601 -0.12954117612664787 -1.1995008715997666 0.7370756267473241
P 1.6399754007226464 3.4084438134616497 10.87149196277556 0.5553107174292694 0.004579906061198564 -1.2364591939916705
P 4.0910737699108175 6.38442186378868 3.833223160915426 -0.7457263604437867 0.29849684949517624 -0.02878555677312462
P 6.740388273896597 3.8165589241664533 10.55219015674942 1.4775265977247845 0.44102543902042757 0.5087516387228076
P 6.7207709505346 7.969202452337078 10.087753902194308 -0.8598319187416548 -1.0078600979288965 -0.7895603269096014
P 2.678827129926935 8.541187421790545 5.7685099589688456 -0.24844235604094633 1.1149118347037765 0.13475177379330985
P 6.735892067286898 3.928836408085352 1.5237352357248122 0.3699591192012209 0.3294855845672067 0.5350095439780721
Ni 5.201855684775764 2.6415989040024 0.517019071652246 -0.8428958051079484 0.3600395460946638 0.9962813919523617
Ni 1.6194004674336333 1.1260580732244752 6.885058509613332 0.3783622556632516 0.54299513328671 -0.2762737764309178
Ni 7.110089546386276 0.46242071366110943 8.525909439412107 0.6116734124897143 0.8756115501734146 0.6363192360628525
Ni 2.7827232469608156 1.5773477114958505 9.15651837658799 0.6411372262767862 0.10584357539939192 1.1028926987557135
Ni 6.5935821120378915 1.7866538812577497 2.4963103258756503 -1.1025705395296042 0.409540738148585 0.5450198770262227
Ni 4.073991832831775 6.975531671498822 10.46860357825335 0.4087606654494509 0.30486444358441683 -1.2111718801797915
Ni 7.996243532657079 7.515304467026405 13.1945159322869 -0.12981062773795063 0.014132325636324047 0.5694486994925483
Ni 7.937984368716382 4.110289809112923 8.111381990234118 0.23762855325489396 0.32701192621573355 0.1412371244073374
Ni 3.2923632501183184 8.357882641570743 12.416383993821228 0.0016447346922745867 0.5458521431195309 0.512113356106189
Ni 0.3985718437750057 5.194714650748594 10.04874999386225 -0.5847873867321476 -0.7764605563028498 0.6607498583013911
Ni 8.996480781566298 2.713009244274107 5.6768475367549485 -0.447388662234294 -0.3941562852727147 0.6785886862550249
Ni 3.694714461071944 2.7963851485862325 11.53954162407883 -0.18760388459733496 -0.45678167341341974 -0.8388535167177747
Ni 0.8953324494188811 3.3474212608744223 13.049247418368141 0.009049254686461835 -0.359611971638942 -2.8848453669759158
Ni 3.1725525681068993 8.402534624453281 7.928164762921932 1.4346331407953679 0.04577103558752762 -0.687364632675442
Ni 6.1393922837018415 8.465080232829191 3.617490060529074 -0.5297498382410296 -1.2044543589503 -0.31910758376699233
Ni 3.514410191956792 8.507461312170522 3.5811966442951966 -0.7220647551607887 0.15152127994216485 0.8028691282033656
Ni 3.2398223854560833 4.413341430682341 9.233550343136002 -0.16072274393577482 0.11680547372753432 2.309142716153856
Ni 7.232526815626079 5.8797979126298285 11.393859969877276 0.4487932558913045 0.08882132980978251 0.39040633131197927
Ni 8.428216810686376 9.353842566139294 2.1272729962687027 0.025824931482903907 -0.6995449767917179 0.6492138326373336
Ni 4.773037959458346 0.29393882310205066 1.6422134719234989 -0.7402447685039252 2.0899212046512394 -0.6043992474258042
Ni 6.016508129829431 5.646460293747118 0.3950058868086918 0.7043529397033225 -0.0793504142048698 -0.5526473116644933
Ni 8.358420727148781 9.090235353468358 10.945200566872105 0.44830783161445376 -0.633281220567477 -0.12133035818108137
Ni 0.44032454860232384 5.002089133905845 5.460406717032058 -0.9937995060707723 -0.05112664347248615 1.540051198621567
Ni 7.4907805328002715 6.240616213034622 2.320007042236513 -0.23116402857647286 0.6242530489269378 0.2154802992926289
P 9.076792334111975 1.801291632999268 3.7063361975480915 -1.2621589127506199 -0.6446591233871155 -1.0039551064475354
P 1.9013573103250878 3.3768153255865183 1.4846784308444056 -0.2306840036162608 -0.3095597921775572 0.5062394138239154
P 4.916086642365335 1.2257133462958596 8.200160638553518 -0.09626055969664712 -0.491192803903438 0.2176153433577607
P 8.814388973920716 1.3993143459219057 12.465331541233521 -0.13595402163152714 1.3216917780089303 0.6164374095372609
P 6.519554304632344 8.283708912652507 1.422008789182712 1.5011925738831564 -1.9832844439265909 0.2243071535556395
P 2.1292319925765395 3.3443569091079732 6.135197040212061 -0.7212548576649837 0.5892976158976755 -1.5116335667108225
P 7.25215325908262 4.339778748098486 5.844514090861862 -0.29386166471601 0.045317235879560665 0.2900127232835651
P 2.572003462544751 8.7684692978967 9.965724301180575 1.0857501255381559 -1.0136463655933703 2.5511750549034
