# total energy = -340866.3857725195 ev
CRYSTAL
PRIMVEC
9.31203655253359 0.00000000000000 0.00000000000000
0.00000000000000 9.31203655253359 0.00000000000000
0.00000000000000 0.00000000000000 13.62910676971278
PRIMCOORD
 96 1
Ni 6.074409118015495 0.40390772692474913 2.315830878895467 0.2496086084349056 -0.0836618970960301 -0.9331916625807284
Ni 6.571094528408449 4.3584335658732805 9.632875414520871 -0.6853604577612197 0.36460299709563015 -1.6169971171500024
Ni 2.1467038070022784 5.607866770231602 5.066865377460981 0.7488371381586265 -0.3191286668129149 -0.018990939280206003
Ni 7.290793904332559 6.837986810595116 12.62986128727328 0.2562726507186425 -0.5473675513227928 -0.17957767185874876
Ni 2.3291452288857153 4.128193459908195 9.131242519060203 -0.012158746849720995 -0.4654084958504824 0.212113439702925
Ni 8.011992518155976 4.313139819648238 5.500598626545307 -0.6632674825169222 -0.05611381227443239 0.14676705308663113
Ni 3.4574660846825833 8.272766792269072 2.3843302204315306 1.0092844890802488 -0.10491077917247738 2.3962272657781893
Ni 2.7127359542656864 6.356582452331129 9.763715116558203 0.7601229954850909 0.0987846116700815 0.9926299112427035
Ni 1.6552517612019388 -0.17133588698459082 8.34290784586506 1.3986407818611588 -0.1710284967371571 1.6214168434842526
Ni 1.6641168200848009 4.315048787159779 1.0422506323216532 -0.5203779101078264 0.5230089199727702 1.9276807385193573
Ni 5.702858856013193 4.915963823682852 11.70320469059923 0.15808556342324387 -0.2923426569683223 0.7203063777087853
Ni 0.39634821557904815 4.707020345517245 12.759815414625992 0.899156170262574 2.0927221644351444 -1.6219233508070263
Ni 4.818215375055329 4.001791874534279 5.26605542844811 -0.4601230790818269 1.251917694638586 -1.3072599188543164
Ni 8.482417985219444 3.183599087051312 10.387492134240219 0.7013594042926373 1.242318480985925 1.1531035152821496
Ni 1.5468596546929965 3.2263040870899724 11.06911086752192 -0.06932722564091286 -0.9043459419936295 1.1119915757331882
Ni 3.7389317042134507 2.58986363077896 6.719436203313784 -0.46071468991923875 -1.3415095840658058 0.036662388418040086
Ni 3.7649588466268953 0.9717855198505347 0.9096314000820994 1.7334603770467696 0.8767415500127999 -0.06464807499768867
Ni 5.041387645209393 5.958409077570316 2.5461082330071196 0.30484901696544914 0.6660311613049884 -1.176894189943844
Ni 3.4533036043037604 3.46338853998668 13.288010894607 -1.2418993911706353 -1.1856248849486226 -1.7293908349630864
Ni 2.6358557797521276 8.148637343835722 11.825007992279495 -0.34507803968882506 -0.5138136266267473 -0.16695869754315765
Ni 6.222107331188893 6.1311846054197074 4.61267544628225 0.10037046809996263 -0.035318987016268205 1.1451806608906472
Ni 0.28465406087697237 7.334299739522402 1.8513781521339618 0.5161947252644142 -0.25170148640819234 0.8034625388129906
Ni 8.183054631263303 3.296935885016977 13.142043789045287 -2.4731315324354117 -1.1682578544250848 -1.1493921278688333
Ni 4.960419486610144 6.217004335109261 8.266339624578997 0.6265287323349918 -2.1824433803513763 0.24829580316075303
P 2.380733911880521 6.414782681341515 2.4398960742759903 -0.7034515109349757 -0.1963446069044425 0.4378161880545105
P 1.6489382003588924 1.3262202585054634 6.701268419825903 0.130445175998156 1.7113828284214396 -0.030013001422322504
P 5.939254218198418 7.840557923582984 3.2492610510226614 -0.18974304242752485 0.6076370376368115 0.9513451935613034
P 0.8344096992944201 7.237547678815538 9.259969319983542 -0.3765581125749773 0.7023834746817775 -1.1792578050800142
P 5.83660763829738 3.038294067294822 12.845773893661507 -0.062207840987312225 0.8248913981107278 0.9774439475308844
P 7.568339156437287 8.217183245554994 6.550489784931444 1.7695712638367136 0.3736851619025564 -1.106238475299495
P 2.9456765508568545 2.3139386730498814 2.4621937460144494 0.3641756797502244 0.1822405634028926 0.5780264138592303
P 4.524513739377317 3.5809530025876595 8.847089445754552 0.5642352736124089 0.28380710869348547 -0.3094644042502735
Ni 3.758589413563999 7.692422044687429 4.717006573611764 0.8852369890783206 0.1356064084841213 -0.12127687923532662
Ni 6.004121865444232 1.99569050878445 10.387315205544027 2.618716906509116 0.10905462613752187 -0.7332521392361759
Ni 2.424994022038339 2.9669918027296185 4.775162104846269 -0.48446268426845607 0.6722241774895777 -0.7993485166446169
Ni 0.46916368609852205 6.693910979675326 11.306734487340178 -0.9241300665990924 0.518977430215874 -0.4256579554254218
Ni 0.7991887831046629 1.1383871674065047 4.689312576639462 0.09323077173138783 -0.23185462688559424 -2.278861805782127
Ni 0.31838970722238447 1.0821704022007927 11.436592700715478 -0.13553133227181174 2.048027649741247 -1.5813444009433992
Ni 4.252155291681995 2.928290978446872 11.134134956983315 -2.3341001574301417 1.0253052899885375 -0.0039440722494125625
Ni 0.6261441373963272 2.5701593612452043 2.289267363171463 -0.11218314446417454 -0.8272467857167818 0.36412580034889547
Ni 3.356309430644212 4.60057445466641 3.221444135166689 -0.4501808802674505 -1.3180667796618333 -0.7955689949975266
Ni 1.8536074537059755 9.026147804726072 0.9146263765366867 -2.0882705564216937 -0.3911146702329135 -0.8578048610092968
Ni 1.0885863954468977 3.773032382395216 6.674650894289377 -0.4959195199551459 -0.436771291729764 -0.02030400166467471
Ni 7.190037667869779 6.053559467974815 7.124547045372636 0.6956723812101889 1.431937853351392 0.07503970264465787
Ni 3.0779633433883014 0.7009840446816983 4.3025185106547585 0.7088832234735082 -0.3119480899040757 -0.4731552296754367
Ni 2.4748972264010045 1.0530609756589584 12.416389365688836 0.25286208237519675 1.502989003661947 0.38523095775862687
Ni 8.344171489237334 8.566179754811191 4.2602539699492485 -0.7713674580506586 0.026497532069896305 -0.1285394743350109
Ni 9.36539461161845 6.381948440143016 4.864106022829102 -0.7956980643762231 -0.43381015221891095 2.294194322374139
Ni 0.5213045728661786 6.074558110601762 7.240804098029126 -0.09293046688214963 1.7058418439985525 -0.5257312039999398
Ni 8.567986289919673 1.0983919700305675 0.35492920780060094 1.359815067243213 -0.2549567601206964 0.7619003991004879
Ni 4.404397778736523 0.35144743730028366 10.873437972774344 -1.1081647457879302 -0.8429518551568644 -0.1641248276387883
Ni 8.107319837256668 5.756226138006555 3.306870896909966 -0.540505791205953 -1.8115139268170863 -2.1458725232058784
Ni 7.701035678580967 8.94847610709797 11.305044352689718 0.010976553616161741 -1.3766879317391516 0.9641785978805459
Ni 2.7705450777371223 7.242110576769952 7.034254744484092 -0.5887456000489473 -0.9704194365839353 -0.8055271346515029
Ni 4.831084609694106 3.332014327046117 1.3606170594524334 0.9086520255681513 -0.22181729725425026 1.6839177902319513
Ni 7.943064822934397 2.7939741619275433 8.132747284510389 -0.1757061047184845 1.7811540835783066 0.7258874713409885
P 7.8722747203844845 5.351124607984346 11.064531207901549 0.2873536883941632 0.21476244728999785 0.36051648573108236
P 2.7505335109941917 4.918682938382217 11.650446415802232 0.11723253396262391 1.1314674250696126 0.23075573739446065
P 1.0927209397157955 2.7627881512146186 13.36437518229061 -0.2667622373960567 -2.0132583645808615 -0.6557734881327222
P 2.555651208157495 1.5292133452570476 10.03440298488001 0.03265172459675021 -0.906789775548432 0.3280635074086995
P 0.4753114926893472 8.78387654741996 12.63217905319339 0.9054499736910858 -2.2008301103886807 1.1598382629028219
P 4.9961404591675596 7.358073369068565 10.30470905969951 0.6904095901493529 0.4419250680165615 -0.8430541850626836
P 8.616297136016614 5.3991467809453955 1.0225361195475913 -0.43821882280956787 0.2580053171390331 -0.0252438621684533
P 3.945193315826258 8.029797132214835 14.060195702654509 -0.3119545176619789 0.49280180026177073 -2.5216083969898766
Ni 8.60388419117328 8.702545219391686 8.525306432379946 -0.3650202871387068 0.37271328490759037 0.2642762377494094
Ni 6.357234294896046 5.136705652273443 0.5324389750786135 0.053212836577553525 -1.0200471269133915 -0.405395862742276
Ni 7.75423534391478 1.9297985375080517 3.626950738782812 0.6787933460666632 -0.40928285650150803 0.8731417484766834
Ni 5.7255057291257145 0.2108747945650865 5.081557908874194 0.16571222673056624 -0.5755699818989378 -0.7273090342788636
Ni 3.4685939684693694 0.20264854139584254 6.734905358582913 0.6630849341924709 -0.1984580537030195 -1.4023981920210622
Ni 3.4750472098620406 5.532225096591383 0.5664940242808346 1.7655487729408819 2.2414946779875784 0.25125128624465115
Ni 1.4618221360813417 6.667064378037415 -0.21660449071070098 0.4371443587984665 1.0069465849756918 0.7945014729649607
Ni 7.051204513579245 7.098602780085303 9.42301470074606 -0.0015200361889522208 -2.252115648036534 0.7675997634781103
Ni 5.571158721790171 8.145238450461514 6.995943163332967 -1.0699962051380087 -0.38147406181935595 -0.1553339688200357
Ni 5.8711366701646615 0.9013949036725495 12.695908769561596 -0.7441266200568346 0.1876337093940059 0.2712680956862102
Ni 5.085070409095429 2.076574859053924 3.7516025924717598 -1.2502097108085437 0.42043347380168883 -1.6681222179605915
Ni 0.5116172611478579 8.800982758730692 6.371471467717482 -1.1599161673286087 -1.4808410068099982 -0.5765606279469812
Ni 1.378945009970552 7.950272339295044 4.261849121825965 1.8250268737018567 1.3737015954173182 -1.2532271574786287
Ni 3.207931438795974 4.727814123338076 7.154367911513894 0.9694218485573561 1.6187873762812057 -0.6980578507232301
Ni 6.92038902283718 1.0330494089160271 7.271114777297735 -1.3776811488903564 -1.0561315313407746 -0.7267251367509355
Ni 7.15647708781323 7.114656731255528 1.5774599383011612 -0.40029145163617513 1.3145320270356973 -0.7202814380081207
Ni 4.678776938383086 6.951817146502789 12.282510214891666 -0.23371919089815876 -0.07128614913949659 1.432131971640069
Ni 0.7588322787070293 2.0731200934598673 8.600402420672962 0.5379367449271961 -0.0313574312653589 0.6404360864447035
Ni 3.962699944712582 8.20534764698344 8.677652283041196 -1.053914726195114 1.9674230514143023 1.273418287714523
Ni 6.1972441933556555 9.170279507865713 9.270572936107403 -0.08406170363761006 0.33302059430365877 0.014477367680568615
Ni 4.511011286246909 1.3570989720092137 8.505994199588804 -0.09809607024348913 0.15033780115702497 1.0580799133163972
Ni 8.691426647641542 2.0702612982108772 6.09907949669025 -0.5503867977650909 0.008264811111953508 -0.1828298602474593
Ni 7.38881240202269 2.9361596494090763 1.5918796270407742 -0.8552121605814562 0.8056397489699674 0.6966668839129744
Ni 6.086216780477123 4.079128338843279 7.1646037021904085 -0.5393737344840388 -1.2399042151174775 0.7140709383220347
P 4.545158524611882 6.163786045702165 5.968690497226374 -0.7330058275533248 -0.6495431909522943 1.6837149301925258
P 7.209360143901228 8.832448130542867 13.565881136790523 -0.3030656998127813 -1.2684066934325446 0.9499706818112801
P 5.955540970284684 4.07790846204322 3.365871961071534 0.49340703794593727 0.9406013247812381 -1.670705919527368
P 7.950123346708777 1.153025689007197 9.912135943774993 0.6479143970996197 0.6116950097562691 -1.67854444173518
P 9.570166297368592 0.3837695164834915 2.5447719557490416 -0.42454698174943006 -0.9265340480548947 0.17820136033651246
P 0.15923117055409475 3.8406750165602466 4.036969024151819 0.5440945369984759 0.17154297447973038 0.35806673863900906
P 0.24996486197945414 4.649816504427518 8.675540313130867 -0.4126060073374701 -2.605740034633474 0.7926302240841768
P 6.3958606228856585 2.3383548331243182 5.343986000694849 1.395341799394913 -0.2874475336595501 2.553660797439731
