# total energy = -340865.78408555617 ev
CRYSTAL
PRIMVEC
9.27782306475933 0.00000000000000 0.00000000000000
0.00000000000000 9.27782306475933 0.00000000000000
0.00000000000000 0.00000000000000 13.57903187200165
PRIMCOORD
 96 1
Ni 4.026510332037323 3.6759199482591822 12.8832558325723 -0.8554006224431785 0.9083486353951196 0.778772235155162
Ni 6.766678308308587 3.7835519754162217 3.144876830664846 3.279035590810359 -0.6313269250545838 -0.5438842207598826
Ni 1.9897498008947616 0.1523028903891498 9.45294769837469 -4.272101561149216 0.8083442923853241 2.333045233803066
Ni 4.29322919392083 7.089435222431429 9.84993090937428 1.426925230628149 0.06998259983672463 2.9544651841565828
Ni 0.30071095059120145 1.7911301614345516 5.8445916421390995 0.39378450375559276 -2.0883949978147 1.0858545123265042
Ni 8.867335207956495 7.44582424572109 3.3937395939821573 -0.47933744722674865 1.3771998383785637 -0.5641889937555058
Ni 9.235748290137245 0.4831083161539818 1.8226181656555909 -0.16344965594863464 0.16384380606325974 0.23020629264889386
Ni 5.321360451694683 5.914148410590012 11.856572843002843 0.5395143738269612 -0.0075274187252967134 -0.6539528899842157
Ni 6.0194702597656615 2.7419214848595486 12.288140995613785 1.1110196987382222 -0.9916037839710341 -0.0753160962344961
Ni 2.3886961992873736 8.869357773418114 7.406506686486015 2.0392275349511135 -0.04747747675567307 -2.2853926649221092
Ni 7.082467577194387 1.9297408403179381 1.3090869393860456 -0.3779328814353169 0.22803319625697502 -0.6427117698527577
Ni 1.1480842341649715 2.4823187133845797 0.16397346421561645 2.7540284094606373 -0.05423202187068725 0.8410890909165126
Ni 5.468775784812363 0.2572406376835562 0.5355744064542195 -1.7355535121303725 -0.23372510443542974 -0.051864550079775196
Ni 0.8531153283636581 7.167257603587643 7.601569208524278 -1.8598380678437711 -0.6088698816026482 0.36340512013278703
Ni 3.2167048102396305 1.727604905857942 1.4656260838567319 -0.17144758655244666 -0.42454235376373983 1.0712316202070067
Ni 2.0906646840416556 3.333466215443608 5.2019780614314985 -2.1744793883092934 -0.9480076445476384 1.334751953626998
Ni 1.7015527782605826 7.6314178213826205 4.26657308003195 0.9127423935874409 1.1008083054228588 0.6499393979494484
Ni 6.696640020832638 1.7658295375178852 4.176951163306533 1.60537573086099 0.44068219674839587 0.02588535240719413
Ni 0.29286376771305095 5.909852778439878 5.326741589161374 0.4170175061416044 -0.5877415842644651 -0.05895719526049846
Ni 9.268860841203832 4.892233294372509 0.04758224415805465 0.6731142934040149 0.27052453265196635 -0.09606001365006683
Ni 0.5339656319081433 5.3572099606107075 2.7107145986820282 0.2780442380677792 -0.03375807028705154 -0.5120038271115182
Ni 9.043502515228099 7.012846791763266 9.726633277712917 -0.24589336436684744 -0.23043872037467406 -0.437715143700272
Ni 5.4311727673080545 5.218163224036054 3.988269928077908 -1.2146528967498564 0.7574151096356246 1.0945075600158118
Ni 2.349497396189495 6.921803512520785 13.552132147464317 0.7331099572313567 -0.4916314341027533 0.12753031634420617
P 8.724753620735619 0.7711800881747122 4.135819789632254 -1.5782493069578432 -1.3005465113898829 -0.9933079111463344
P 6.622909159715753 1.6599510189491296 10.038136192271798 0.014759674807677807 0.40201460497486896 2.1316419814287935
P 8.079351126368557 8.01450841989493 7.532683226692058 -2.650623782520041 -1.6356229597813057 4.13524302542555
P 4.473126186126242 7.58056607232239 13.036766695544488 -0.15452278577265002 0.9044295028463715 -0.3534274400947849
P 7.941825952801728 4.922376942009198 9.421322382370017 0.45040508046311467 -0.2073602412886558 -1.675630610522495
P 7.86159133760872 7.426609873835715 11.479184394640582 -0.36193187802137017 0.7289185448578286 -0.7325751677738094
P 7.684885916590448 5.703282044481471 4.15507498393979 0.6985329905874357 0.9365405244483032 -0.4539827705120439
P 7.023905957039638 4.048201882722019 0.16273765816292118 -0.18460623542159174 0.7929780943418989 0.8644264800908725
Ni 8.795654745770884 3.305734801843712 1.7990042500000356 -0.495183927340702 0.7143768995982278 -1.7155477584324068
Ni 3.5276510554054075 0.21162158091852198 3.852751547673225 1.7398387697692874 0.3371477290981548 -1.1295879486587126
Ni 4.447473004927276 0.853832504098443 7.353874523150167 -1.0638391843976776 0.02287381927437996 -2.895065244931711
Ni 6.4407391008218235 6.448291248921628 6.209297306161763 0.42903407098650626 -0.4994912964668043 1.033224544835614
Ni 0.637777051463832 8.190768505398717 11.973501249024752 -0.2638275802477649 0.3932617984829034 -1.594520276203725
Ni 3.1364887506930605 4.763791109736525 1.4370828607252233 -1.3249197980279248 -0.6036400006622765 -1.5009938276087893
Ni 1.1925621186741384 5.50484796148563 11.056849531696622 0.5287339953820055 0.11784548495627446 0.3095605635085056
Ni 8.715345907992129 0.9947589276571503 9.711995656021196 -0.4322551490269652 -2.088270042201062 1.736356467647642
Ni 0.2686866881881368 0.33668942124996215 7.832792974338705 -0.33825870277414644 -0.7993981389356297 -1.8372514407925065
Ni 5.287190228781195 2.4193222937314203 8.545787194199017 0.735381783984669 2.284492778815659 0.5274160479015304
Ni 8.709268933784054 8.354661252552333 5.7593293745440235 1.464463593893239 0.6734745049569111 -4.039207951476146
Ni 6.699080088339085 7.739207571534372 9.568464947485074 -0.17445629147178343 -0.25699487359664774 0.289328809842663
Ni 1.4940078728642399 1.2263612286588894 3.8303595213355375 0.6678908402215465 -0.2527119299505776 -0.16268012477246177
Ni 4.325710853008563 7.310952529594732 4.74862836325064 -0.7010626989878248 0.1488056807832147 1.4657558303421014
Ni 5.152671069937137 7.944126852959899 7.580901929522898 -0.2071650945587142 -0.9594855632802508 -0.0870665519022049
Ni 5.1645188501870765 3.4902335943654674 1.723993977061328 -0.17761129216099733 -0.007494508604832253 -2.2239579546553956
Ni 7.234132153346108 6.669047774581019 13.273205525789997 -1.4337301693651243 -0.9531922740723712 0.3449474276482317
Ni 8.91259242961601 3.0430517930602234 10.17767465347703 -0.5068389950811271 2.8226115578466744 0.762212531024268
Ni 5.687537578479791 9.110404898456217 11.65400085085158 0.02948566816394277 -0.15719621883975507 -0.2541949422540074
Ni 3.058221034022361 6.454043499317056 8.26848975828185 -1.0328105972266473 -0.0562739920013805 -1.516531775343388
Ni 1.5625617086252401 4.797998443942887 8.8370978543053 -1.9930932024868964 0.3301972659222507 0.39299517508507803
Ni 1.982448154021855 3.1130808027129544 10.60059401928375 -1.2766951586935817 -2.0469809536442876 0.25247127469468134
Ni 9.249238245096846 7.256111316550575 0.46752713984094574 0.09877355592648795 1.1528294356851565 1.3479969915623624
Ni 2.9020288801400445 5.872351816990972 3.3912002537672716 0.4132886352267915 0.09115383459770107 -0.03456359690748241
P 1.9353446455418717 7.38330099505207 10.129564501177846 0.8166870079230645 -0.4251059395766936 0.07690658065006754
P 3.1143889757867536 1.9074369533008255 8.961509752535198 0.3065220337924979 2.0046364272398054 -0.8609020118773818
P 7.561871258537248 0.00754379805890774 0.20670155126578704 1.0355184830761135 -0.3147768176021224 0.5071647538516622
P 5.251266497279423 7.007400709534045 2.8016122160999797 -0.42239702528596285 1.4515579415751645 -1.1260647659968026
P 3.6177108853867352 4.665752351787345 5.033787826563104 0.8035345297015064 2.045177324776646 2.2732408600509237
P 2.4404850084926655 6.927889764552076 6.304581478397391 0.8661738017992824 0.12490856245064295 -2.294323391752836
P 1.4922636420991746 7.610774664721607 2.038212510476246 -1.026201833660878 -0.39715959087541275 0.11753978079039756
P 4.81787154127677 5.244855521435486 8.758923843649107 0.7929097029978086 -0.8231929273623823 -0.15997840957058254
Ni 1.2400367400828594 2.566273735688178 8.109846403505225 0.3544684797647895 -0.34154200151110853 0.3654049241716352
Ni 4.455043708673517 2.6863937128972277 5.24574340911749 1.3157106207248308 -2.7691963754503277 1.906579951985
Ni 6.674271189052996 7.797732080396248 4.491536170738579 0.44148489515534933 0.14524984511115632 -1.6338586687920311
Ni 5.100641037328166 5.831520117006649 0.612065419978589 0.3698634741636211 -0.241463610730268 1.0335320487737039
Ni 7.587422383680812 4.123825419775464 5.4570866553394595 -1.42058077646736 -1.6731842058645314 0.7578663382404303
Ni 5.309818839610952 4.327371583364663 6.668404821431981 2.2114307687226624 0.6828248358235596 -0.09846476643681751
Ni 4.112775532322311 0.026751675468029243 9.412523294829656 3.3669608911684334 -0.9208521671787688 0.7030529899449762
Ni 8.30950608694822 5.278960799586446 7.302029119223243 -0.04988737174874634 1.686955805727327 2.3232431601109798
Ni 3.493193219972148 8.31128742900616 1.915851938959944 0.9634658880842373 -0.812868919728555 -1.0215334816509312
Ni 9.200687396194787 3.1576329098078686 3.979321467583729 -0.5092478616329359 0.2747956492234945 0.7900053848668201
Ni 3.573734003331363 3.3820077865224487 3.3818714025211376 -1.3365620102525435 -0.4302350332731429 -3.054144282616475
Ni 1.6892318290265038 9.177131003043186 0.31031906431621054 0.6425901566732287 1.063821958006497 -0.055086913671814806
Ni 8.128903980178206 2.414850382940136 7.694870709938126 -1.106506898469533 0.5093162529770261 0.6375644213238633
Ni 6.729687627136696 0.40222425333568435 8.295267411654892 0.13926277428978598 0.24803869284462443 -1.120440992052122
Ni 7.1998227630843425 6.179187986470983 2.1199176606493744 -0.5093445351118002 -0.3731542290997509 -0.8227221583735509
Ni 4.169388809601188 1.932440686874502 10.859735682944763 0.6607843110837524 0.44445323375505386 0.8404730545990687
Ni 8.185795592153637 5.153673074844727 11.421418811717974 -0.8922548151570505 0.09188762743993206 1.7419684145177807
Ni 8.549133705033904 2.6260043615684485 12.820371674580082 -2.47829456469359 0.02065752834935152 -1.2950975724601694
Ni 3.313082837832711 4.097133122376033 7.512233048753989 -1.1393324296399863 -1.0890930738684597 0.26470458353607956
Ni 2.9552650297674115 9.073265772112832 11.6269921796804 0.5422973358887371 -0.4520390165221118 0.9862774866621142
Ni 6.117193571725415 4.089924253735311 10.253024494745532 -0.2802124493636916 -0.17253747718251575 -0.21594746873703455
Ni 3.684798825079223 4.474564248725099 10.723483426723503 0.8397996826811278 1.8853961188185338 -1.0368302599090014
Ni 6.908276446268309 9.11956210997281 2.4053220584948054 0.1062248699982106 -1.1624309633306626 1.153458584628723
Ni 5.430671764854259 0.2562840941097358 5.27320019915012 -0.36926389290640915 -0.4288682348326033 1.2184607005317207
P 2.9050720061556903 0.8699452996818954 5.67526116279716 -0.462430644169081 0.983495553041603 0.9884755227546976
P 0.6153089469757532 1.282297224842821 11.66904576898259 0.7931608997766663 -0.1629837720558096 0.042703709516113554
P 1.4682062464937782 2.8976497475809437 2.502303144597084 1.5067577266757597 0.9730509606695115 -1.3394614432875254
P 6.482108914552816 2.1312922719151732 6.364356637829109 -1.652131241848974 -0.08067324678135138 0.08359016331783023
P 2.2299711996664247 4.902327566034164 12.777801310524625 -0.03807392405358604 -1.1529780454478789 0.7085986023535539
P 4.01119264590369 1.584911984758445 13.104431715841162 -0.1206742126543212 -1.0547871014977384 -1.6373479128922122
P 5.243111290670421 1.4326536279207436 2.6287107026012655 -0.9686284061217835 -0.3779773615200071 -0.5282994789477482
P 0.16851774202800485 3.7217060058421487 6.575510616457422 2.3746569958065815 1.2456789128177257 -0.5824276282507195
