# total energy = -340859.371844311 ev
CRYSTAL
PRIMVEC
9.38249218440638 0.00000000000000 0.00000000000000

0.00000000000000 9.38249218440638 0.00000000000000

0.00000000000000 0.00000000000000 13.73222570872587

PRIMCOORD
 96 1
Ni 6.694567796618185 6.980349131214548 2.8834237970918455 -0.08407121671930681 0.5263261572714613 1.0690634089110942
Ni 8.078091354085947 1.175504319497507 6.29297085290824 -0.05528077485017576 1.3810199834556023 -0.8557685473055583
Ni 0.9752162552265667 2.557263968402803 7.179372435516232 -0.4565178782290718 0.7206079681096041 -0.02025257960144899
Ni 5.095012352710251 2.974681670719281 4.102831613059255 0.8072893687582483 1.7287637429020486 -0.9643482906891907
Ni 5.285401887548209 3.978842914856507 0.6805956745839369 -1.5939037256656485 -2.2279447072172855 0.7841826075374558
Ni 2.3362593610152547 0.753197400415601 7.084991130184304 -1.1069275309467195 -0.21457655653143687 -1.056511797498329
Ni 4.029161221348523 3.062623771548977 12.40732719888221 2.906221518658846 0.28519113352520564 -2.013848432756377
Ni 6.610585107561682 7.019051912172886 11.917456952362489 -1.3188229411015675 0.9134736153265106 -0.515782320317344
Ni 4.449412436355769 8.437891170859357 2.4104729990332565 0.5157026161193442 0.6225674336943987 -0.23174432655997507
Ni 2.166877226556863 7.926226332851607 3.826444029807252 -0.21198668431707363 3.628397345476203 0.6391137680888541
Ni 1.0822423455033556 1.2439308362318473 9.092669979483304 2.885476315691695 -1.381179648961918 0.7812384373074674
Ni 3.5876680436528705 4.952107611673538 4.961480721534721 -0.21882633294672635 -0.851085282897276 0.27313240258845867
Ni 1.0007741643975996 8.346430635397086 6.2754621839273055 -0.28031323660761404 0.8632401730922552 -0.8936406397609834
Ni 3.1420559518140156 5.41620321344886 0.1292541529115519 0.4423636982158768 1.350337723880397 -0.9661364929378652
Ni 4.603163338553168 6.016898521399317 10.918533953706241 0.10971077166428204 -1.974695159595683 0.9940098223093656
Ni 6.802522753637974 1.7266506853289383 11.005129666883205 0.22252872149897804 1.3244582850104738 -0.3362218748497758
Ni 8.843665200165098 2.1475305273238714 13.071073793697666 -0.19660608809594526 -2.2426861271925183 0.27038055087493434
Ni 0.13573464038013947 2.6492405409445197 4.952087908439596 0.2211045874579418 -0.25908800868025056 -0.011811390812631271
Ni 8.771344949104039 6.829544331616159 0.9707351768785177 -2.3849511786437376 -0.27524842049019693 2.238082052761604
Ni 9.161534658610556 0.6621393738752956 10.930975138567032 -0.010542808512852811 -0.4044887775469744 0.6563614994257083
Ni 0.4223801025222634 0.7860896038593934 3.1928659009053564 0.13193847271423081 0.9071512726529086 -0.38064565238078957
Ni 7.478287382909075 0.5410339155727899 4.061292504662443 -0.6551109148480588 0.03727893895611645 -0.02103470918311216
Ni 4.999245253257706 8.627136041630186 6.675784046926406 0.08699276124147598 -0.5512254916163023 -0.417980384275506
Ni 1.7732629073413069 3.0719218214713315 2.8701729031409458 -0.932527032413536 0.09242704488316986 0.9532868906687065
P 6.783241731851458 8.01068752901814 1.0611964769051383 -0.5100094223893087 0.7624051066510483 -1.4278287162790246
P 6.835933808908917 2.870235765839715 5.498657494500973 2.6689943146074295 2.3128880421289004 -0.32405155803582897
P 0.8494814751968263 4.601793494669552 9.131765886871253 0.3440976780534267 -0.152767236534124 -0.4398051934600813
P 5.8932278896873544 4.567312835270306 12.264992913380594 -1.281837879236786 0.6526907354423405 -0.485132713752287
P 5.444322543032408 9.034392504727784 4.366174717192135 -0.03496031812526882 0.6848650061820398 -0.20594356344678727
P 2.991654599386828 7.572975495740964 6.6274876675365775 -0.11019748149271344 -0.3720311712389012 0.1783833944403315
P 4.275911387754174 4.74712830122583 7.0100813112336695 0.2515719028088635 -0.1554632953090484 -0.30053959095681787
P 5.6258925350580435 5.380896894722502 3.8241087274604566 -1.247973622389173 -0.9436542526749491 0.4874587907823025
Ni 1.7614691144529115 5.901240538157275 3.5853608887831356 -1.864820608660027 -2.5930267008318633 -0.13247454772335895
Ni 8.706267982139911 7.719670763688505 11.392762647223382 0.02006128952624932 -0.15690028486589105 0.842913288609445
Ni 4.649803708042597 6.926587450028785 8.41108445195607 -2.4702590959836233 -0.22327357008480256 -3.0179089544335254
Ni 5.981235667963524 1.6110771445180776 13.272772984818578 1.1219818541766806 -0.0024615741666151156 0.1319803816957598
Ni 9.311110351710632 4.736010047786889 7.075968925537143 0.6411279703054055 -0.987710619564215 0.36391934076504423
Ni 5.534094229871044 1.4487787917866062 5.972172180350008 -1.3219825697764718 -1.6692720152943188 -0.9665134166613099
Ni 2.1831558507902487 8.091405110735614 10.961570507882676 -4.127511718219562 0.6781084041844967 -0.5933645868781974
Ni 2.7454017050759134 3.0790806631370797 9.06891350884415 -1.6899174594588122 0.3368525664552392 -2.5800678266783503
Ni 5.959130515978593 1.1184400010032989 1.9480399749029818 -0.8264386879931895 -0.43984864510350696 0.46657654801665455
Ni 7.677749787852904 5.206898574026171 10.531532415101458 -0.997947723911191 -0.738894682233934 -1.9315060258027186
Ni 8.4287150933376 5.684185960050564 12.567238645558941 1.09537967820812 -0.40451011770321305 1.5763780580770594
Ni 3.734954408618684 1.2063258068788736 3.927704578532793 -0.9904365031358104 -1.1660423348310047 -0.4604542371690005
Ni 6.375459849182062 1.4560408408682433 8.202024695583807 -2.289333137627096 -2.6400228670757437 -1.3859665288276002
Ni 7.092216587545762 4.230321857408342 7.492824616561644 -1.5331544715017338 -1.94692827389506 -0.49554002512854006
Ni 3.6072211577176403 5.31235778807992 2.3305238434395377 1.3564466649916123 -0.5854401898247982 1.0810732888877768
Ni 7.469711784897943 3.829914613728825 13.384993222862283 -0.28185409873217265 -0.8452385943085121 0.6280125159693701
Ni 4.257699970095961 7.141333935016525 4.366037732803774 0.38959591959554196 0.05661646294246378 0.676881216645615
Ni 7.191051761997914 4.939929136598648 1.6998983848813 0.17380914480608775 0.10326835847304795 0.6056261778543699
Ni 9.477349351230588 6.3646887479602015 5.420260203142528 -0.13812531825123306 0.5357695620725483 -0.5603667917959382
Ni 7.7230672259204844 6.325216602628873 7.839027325416311 -0.05630947322500625 2.0991190691004236 0.2206207058429878
Ni 8.849407285485462 7.939821564271882 3.5667676036861327 0.47420758219935105 -0.07855594332803245 0.37085026355692263
Ni 1.0957437520000946 8.389149123082737 1.7532753838805684 0.4937855043312786 -0.058674116802440876 -1.2552285041793738
Ni 7.574908289165792 5.008308740871221 4.9856490835881955 -0.17038006451988075 -1.2819929167574113 -0.32151747876006564
Ni 0.5489837013439413 4.668371660410246 1.1401341998231456 0.3280938464260027 0.5528553139102415 -0.6598270893768056
P 7.239212095248616 7.904139945851383 6.2463642603912835 2.0133915477246167 1.5338059890428037 0.6483239738332125
P 1.3603394188621727 4.4472450806221016 5.427237024456619 0.5887715681908764 -0.4301846396511817 -0.5595448101152751
P 0.23049593665238574 8.117432144524324 9.647726029878456 1.1200645825493096 0.713387539101765 -2.453685507895658
P 7.31870995296013 -0.004032595213549916 12.023607656102692 -0.44749562012580346 -0.5438119727610505 1.3178598058573496
P 7.448225877408345 2.6037729829992826 1.7168168950931968 -0.27954164854891217 0.7235423681475798 -1.146036066912407
P 6.173839470996919 6.63761606803222 9.487018009600908 4.676274350117669 -0.14704704622089512 2.8871627022551825
P 1.7263410630812714 0.8016317024430264 4.917194419376794 -0.03697734855529761 0.11528055244257567 0.42950818240944744
P 8.799286011332871 5.806467982894204 3.119618659599769 0.5691571363940585 1.0907059268815344 -0.2989928152949883
Ni 5.590567451346979 6.138683272148218 0.12844819681838313 0.3752535348309408 1.0235551400666503 0.6733894014422726
Ni 2.4402361412771443 3.3552074131016543 0.10527344070514838 -1.6195535650232689 -1.5690103048580784 2.589503261059637
Ni 4.234909896169221 8.23858826828554 10.836305790719848 3.7701700306720363 1.190346715904324 0.19801582395927833
Ni 4.52402201555109 2.1933546199785425 9.938218313885528 1.0872387942685406 -1.2440151519620577 0.603664940362941
Ni 0.914637255096724 6.670942680871981 7.990974912583361 -0.5652063792764266 1.0956468158265775 0.2900230076962102
Ni 3.1983227584581733 8.646285708523752 8.6873772720353 -0.9848587519377168 0.4018438837249595 -0.11310565627844392
Ni 8.395726250222566 9.119829480099085 7.8768462755949455 0.5149554535406744 -4.130159183144738 0.7512179796859773
Ni 0.9997139427616502 6.921201899417856 13.24762978180957 2.0213861358943186 0.2369459253655726 -0.21197254324968656
Ni 2.6859542335239075 6.004344746630284 9.329989802824416 0.4342387551158973 -0.8436853908887793 0.5388433159018656
Ni 3.821235808301804 0.880499056668382 13.098511016087112 1.3982080651991147 3.0803973027757334 -0.01762234106745352
Ni 6.626338312223269 8.778813413017454 10.055422531867434 0.2583015082232132 -0.213781057213335 -0.7845955267051585
Ni 8.431492311074246 1.6971333643847129 8.769756493148584 -0.4124977638943799 3.058867656234074 0.7065491760236928
Ni 0.07263831755184295 3.0367562401302775 10.539923178013225 -0.8611208127564072 1.3838199147982426 -0.6112347822903988
Ni 4.998776128640028 4.584492178769631 8.97282834290082 -0.11145937892427256 -0.45002918518093465 0.3457889497129206
Ni 5.902600999548537 6.38713166966986 5.98987319042419 -1.2191492419583132 -1.6767315568961576 0.4705098216327897
Ni 2.1074766674666248 9.081136081633101 13.128735776954795 -2.576882486971833 -0.8674891781765962 0.8257144082326554
Ni 3.404728207743619 2.687821349502261 6.00543217749406 -0.43466761512319985 0.5625512010417667 0.7390528050783529
Ni 8.811426956438346 3.7223724863725915 3.0203068545360576 -0.23507801891889835 -1.364839517040998 0.2854050493082246
Ni 2.4252616834809 4.069900003147577 11.036768369348565 -0.0891486312422142 1.8583311442809414 0.7011352040969732
Ni 4.736629292282223 8.45243403400734 13.70833173610062 1.2685797286752991 -1.700668013107097 0.6985923830704615
Ni 1.59423557074348 2.15548688083967 12.028303593525637 1.3206085722470804 -2.957562592134984 -0.08320604050553411
Ni 8.875481231735938 8.872347479289857 13.48500496185557 -0.17986177875807088 0.956582787811159 0.7345065804685673
Ni 2.924663603982579 0.8580739616941949 1.529578001187555 -0.6515679346918068 -0.10782538171611107 0.3365993127938526
Ni 0.9018188940433226 6.055366740048815 10.998044008657814 -2.489011694000778 -1.5327922030663088 -1.869397686507748
P 3.1068246930264865 0.7753241321329458 11.14922129320264 -0.048461180825181055 0.2979929132755642 -1.1174106898662304
P 3.5907455011448306 2.831776929682569 2.014861147195632 2.8145570629733143 0.6893775493404127 -0.4423084194979092
P 3.0550802476967336 7.2938463482232585 1.215772100180414 -0.7394143021828298 0.3762033003387198 -0.052123974388748946
P 0.6000207067502376 3.9595994230394043 12.64294503811039 -0.6835519437975711 1.4864565532245624 0.41920011561521997
P 2.683974527637311 6.222224984064106 11.937588966205473 1.7574971062809992 -0.09818425908192123 0.018615301108342135
P 6.553783498853373 3.066029616273311 9.355436060336443 0.8896199486373647 2.4441009495310166 0.9951110257933443
P 0.7676652036247541 1.2634745678042636 0.9098962817104821 0.40705730960509895 -1.1033488124565254 0.1526096279103372
P 4.232395388218474 1.0156454147779548 7.723388107158976 1.1415307228428857 1.329671196669981 1.344575367475323
