# total energy = -340870.09202381945 ev
CRYSTAL
PRIMVEC
9.21666383428544 0.00000000000000 0.00000000000000
0.00000000000000 9.21666383428544 0.00000000000000
0.00000000000000 0.00000000000000 13.48951915613501
PRIMCOORD
 96 1
Ni 2.303133624325336 3.1646612508372565 12.504257593678648 -1.372655927761623 -0.7797597958794119 0.9960566775360653
Ni 1.7665026050578307 -0.3255390086947268 6.28625026784752 -0.14112965229519567 1.8816837029639528 0.515292525165119
Ni 3.5525629701954506 6.25929429192605 7.3201543879712565 1.6794754381898815 -0.5454456517097316 0.30040897891622453
Ni 4.112724131538216 0.7696384124593803 5.045187809159513 -0.30595330577322144 0.3937104559845478 1.6587585173575043
Ni 2.1624320383790296 8.63117500976465 3.9033676187142707 -1.5735555010265996 0.2540129081501883 -0.4111944717019241
Ni 4.990187369349833 8.047880022879816 11.444494280597388 0.9014259401333573 -0.8278368538922969 1.400580422086033
Ni 8.28802019200277 2.919479566745573 2.4108469280484655 0.14337242558278535 0.30081675587760454 0.7001944374502586
Ni 3.505041852866802 4.699926983773583 5.372011620754863 -0.38736625893407484 1.6609272428740491 -0.5942243637753315
Ni 8.519515130704026 2.3204609518229815 4.765266676767763 0.6493200191978946 0.13453297291428443 -0.9577397842337377
Ni 2.969839416451496 1.5350537496743877 0.799321599129017 -1.1404650005825325 1.366087530515486 0.700515054014471
Ni 0.6993963761162656 8.154627420261587 11.088168850604585 1.4942390253834588 1.2080227930278487 -1.2255572023671861
Ni 6.586753131640862 2.641145543819299 11.815347937363883 -2.304363292487341 -1.4805900671414565 0.12379321789927712
Ni 4.3851779231115655 1.5136803068727707 12.227263673634374 -0.41389233024906136 -2.0348700293133666 0.3831625052653723
Ni 3.921552095923236 8.78046652615128 0.3345492189935025 0.17263183666853496 -0.25208946587523035 -0.6655817324723956
Ni 2.5434489100559787 1.670759903969777 7.840513387719032 -0.21497610596270075 -0.06679443191673012 0.31873425958797363
Ni 0.6688698647306531 0.1645441729163377 8.797459288761603 0.6198464352188099 -0.7087096740101214 -0.521274968000799
Ni 7.405976272400552 6.7694089701240205 4.4433664068475425 0.6663792886730265 -0.00474831331826279 -0.3744279536058519
Ni 6.192067947900611 0.6457747491755467 10.431606918395397 -0.9933495630175472 0.41717511476539115 -0.7701215014586995
Ni 0.6336345599309197 0.9673994408552469 1.7366000617954047 0.7060619519746292 -0.289650711958456 0.7074164091199946
Ni 6.730662116506945 2.6779476814246705 6.384886079627867 -0.8502607301134518 -0.0917708993564097 -0.6770812484715629
Ni 4.719816543741626 2.9890377266523447 4.441046572628841 -1.2466590173428078 1.646156769433094 1.2973218338049979
Ni 1.678170101474089 6.6804497334180235 6.0055070090659886 3.0381918730522774 -1.5992207670031877 -2.265719611973214
Ni 6.316714105920908 7.82639438080752 6.561005460312446 0.690115970168334 -0.2505892271806201 -0.10165679101155396
Ni 6.744616145140688 4.975044391116518 11.763534619814141 -0.4080189021874199 0.5811060812258185 -0.32773903418974526
P 4.557372848451199 5.7424698826545235 12.031356116280941 0.7095591664946103 1.1358894653967084 -0.7432223630750102
P 9.040136805363336 7.363321553432944 5.911147729178677 -2.6268739883986116 0.7794165536073803 -0.12038650621057331
P 5.861807242462776 8.081225911649222 9.25638646086573 -1.6279767560899574 -0.5422988785506337 -1.30379227202069
P 6.879243949799256 3.7570899513126053 9.753003335276308 -1.4845894181088368 -1.2916872612270398 0.7706768597415372
P 2.6788140477995523 8.197125455948632 8.188366860565115 0.02015256368847497 1.633992109046102 0.5716580484390413
P 5.481030004038454 6.033108151436839 5.640291185400722 -0.7681458657895673 -0.6566186097418368 -0.27902331415159687
P 2.69875890774897 6.427627435232964 3.866312022860929 0.8792668875378148 -0.44537343157647813 0.5934543183785264
P 6.32419803673372 3.695577938695964 2.4410361095476873 -0.013999142492569438 1.0864746624090063 -0.0345841657327727
Ni 5.636865351554512 4.70252608289823 0.32981093225598146 0.3807796068554926 -0.5340224974744545 0.09850487564613358
Ni 4.687696471226044 1.9562091911663608 9.065388620192083 1.0069082755385885 0.11815993087289973 -0.4457884076267096
Ni 7.510225953956866 5.797779080693551 1.9133268206087573 -0.1734093382645078 -1.5314205195297625 1.7047606951192316
Ni 0.036502596039587706 1.4142325070325608 6.677352012794642 0.09771220454150913 -0.07675899932860974 1.0767972872202423
Ni 6.839870363059925 4.27551806004402 4.473502131698101 -0.17523610706060144 0.5485484590047713 -0.6067307237724583
Ni 4.30519571671552 3.5655031658373093 11.58516268655487 2.044149397732763 2.154455636889199 -1.0098629872915381
Ni 6.583315316132021 7.706577754494014 0.13011256117926112 -0.3649999754237327 -0.42723944097992866 -0.372534593237881
Ni 0.23065714398341775 7.51081582042487 2.1854506556265667 -1.5155889518141445 -0.43441281879991633 1.786681184044123
Ni 2.183040498104953 3.484249059869627 3.1898264290285177 0.839020124202626 -0.24084243220650137 0.7933069384362273
Ni 1.9643475050921166 5.829014353507125 1.9239020203804584 0.2565744982297775 -0.26366174409386206 0.6245003890510535
Ni 8.593607889083586 3.2438692574940466 11.2394539313198 2.3300031045426324 0.669619392876879 -0.8178799997899011
Ni 8.115714666700386 0.6828478566896579 11.606691890970696 1.7456625755399162 -0.07192635382665677 0.8730013662440771
Ni 1.1004235460539262 5.467315608657339 13.226270740511122 -0.7447403423814336 0.07088762814949726 -0.42663934550208465
Ni 1.358130675927152 3.5981485881759587 9.397851186555018 -0.8072829410003451 1.1853261227612812 -1.1932242945624354
Ni 6.711860122839287 0.8526473711693772 7.892191220314403 -1.2288327877946643 -2.2523313635917663 -0.3747310866685675
Ni 5.018556259795446 2.5993018912451977 1.2524533331849965 -0.42513782125589367 0.5421135020127051 -1.325504466886801
Ni 1.763617789362744 0.32117307516513394 12.644683601384434 0.275232479650597 0.31154854047281183 1.1155679802305367
Ni 7.318805068425696 5.342641800646354 6.548392456227059 0.2619738148684778 0.962894846072116 0.5803388640424908
Ni 0.311739820008836 5.462034460435982 7.17232279109294 -0.25733400210362134 -0.30566431377789294 1.7102011494085128
Ni 2.1995106758912786 2.597421691878432 5.5309861638803355 1.229817520305437 -1.2058553530628846 0.7790026059984132
Ni 3.9662068308839236 1.476444986079958 2.9932838435556244 -1.31842827676631 -0.4640753788613556 -1.4122825410143096
Ni 1.8629089059223902 6.420281754373589 8.881876553663963 -2.0301551403362006 -1.1053373036414642 1.1330165147242874
Ni 8.394951922655792 7.539737710684237 7.99069154714038 -0.2275536855173952 -0.8336151511369708 -0.3216097813635558
Ni 8.245734139577666 2.120837235721118 8.784671168068527 1.0589723432236795 1.7707742830058795 1.6142156977501232
P 6.180703801727953 0.5283507687228858 12.885093818749771 -1.0619759059366936 -0.3042484072669728 -1.043631341991235
P 7.799896473065109 9.493532135997205 2.5426396869951846 0.11653370812338641 0.4374523769571885 -0.2807757780663293
P 8.328306228434796 6.3607697577500275 13.619692319676945 1.1500305327837808 -0.2367780323291406 -2.031184352931663
P 1.3288862024430943 1.3655408734314642 3.965932174309759 -0.4581050202105336 1.4341194343837431 -0.16025068939536272
P 4.447491785458151 2.2721103347737004 6.7838524035929355 0.04321150239046752 -0.1617622409438827 -0.2773464406698062
P 0.7651664872988176 5.954379411285303 10.789591347829464 -1.7273079842921284 0.45477955538172643 -0.2897589554015461
P 5.8120096092341695 7.067697069663275 2.0556947793271774 -1.3742186442630526 0.5885255136183413 1.077158784324719
P 8.504491969097025 3.61027771742431 7.126377723233493 0.3583860696516409 -1.3677716030861282 0.2926025954979284
Ni 5.7656129248601555 0.4312799464154646 1.707220103356977 0.7311291793559022 -0.8359823658175668 -0.5514319512001535
Ni 3.1233060814319717 -0.04885108188072888 10.631359667787137 -0.4451638866688333 0.671322748721231 -1.769711903179636
Ni 4.413178147014676 8.973601711105088 7.159211165508818 -0.3578739059019127 1.06552788495401 2.041787839479122
Ni 5.260355428359664 4.403325533666281 7.225431049873224 -0.5963228981755729 -0.4234164676894127 0.19485516684310958
Ni 4.072382795124815 8.237651125633285 2.742055106500534 -1.5440654619872827 -1.495670615623663 -1.5069857835261657
Ni 8.439367024363854 5.07496224079842 9.33051147756776 2.9453709351647985 0.04633127896637182 -0.15119809227479122
Ni 8.998237852807858 8.486749891739063 13.625493287723232 0.13968906319392715 -0.41484440974968556 -1.3663950344535758
Ni 6.496466695381853 5.994140097894261 9.597792877549791 -2.058590512858758 1.0708274427900526 -0.6766469891476218
Ni 8.621313179752693 9.156792116074877 4.593639497903585 0.6593339517904708 -1.1551112897407976 -0.49574905581555273
Ni 4.029304109633328 6.670560253415378 9.764914029598225 0.36692367480900684 0.4021642431788558 0.2532994270229315
Ni 3.812334632706694 7.700863423085215 5.297981535687529 1.1661433791852434 -1.6073961037251285 -0.4281838071710691
Ni 4.477823825242594 5.078639689559887 2.5807469041610167 -0.14212261233608428 -0.10758884022527276 0.9218397279030188
Ni 7.818928883321831 3.615835365552545 0.021372521135260683 1.1104005770969843 2.038091621574458 1.124211771948464
Ni 7.752900705559528 1.3903152650876724 0.49418183189734266 0.343366456314357 -0.3729014896589965 0.6253051443405359
Ni 0.9594178102100548 3.466101449314912 1.2821623265126083 0.10953490820805008 -0.21786139793029577 -2.0962391764494672
Ni 2.678214964667985 7.4096905878162715 12.116676614212432 0.4039470461108914 -0.6979182398215722 0.8485406620985515
Ni 0.6046122080387198 4.1405584554971995 5.134407877444331 -0.15071703887331464 1.2220111368871405 0.57580626627946
Ni 2.5366009290289835 5.213018644302267 11.366336051920378 1.681275724623414 -1.2187167824065848 -1.3279927805262937
Ni 6.456217525604078 1.877738517594577 3.7409266884229133 1.0541890629024233 -2.050998816554429 -0.6621498239727113
Ni 3.83180944281442 4.319739611817266 9.174396865145756 -0.3489735180884893 0.7512763437277384 -0.7597866951915948
Ni 4.149646085769901 6.443120646681656 0.5666100608375008 -0.9550948904117227 0.44558014827064557 0.17479927663349895
Ni 5.8277055872812396 8.615064281857265 3.9200000097792977 2.179280409242363 0.33310441226671667 1.3438901684828404
Ni 8.069078349073745 7.027079233342996 11.30421666117496 -1.7783690646340016 -1.2128330699322982 1.0093487666592809
Ni 1.2413463319257343 1.5273025356182601 10.644093410165194 -0.9249489629559619 0.16181803388248261 0.5131356267231163
P 0.44236759268124515 2.0380900302562983 12.922203792918133 -0.6718973902777783 0.449916056641838 0.3035146144247418
P 7.9865892101886775 8.661525482876218 9.768056911873064 1.1630323443600872 1.268105360142042 0.42266262024252366
P 0.1614077423059926 5.267618159246975 3.4329205388232773 -0.6970366085475673 0.28745498985871787 -1.7068715708146474
P 2.1456669273587017 4.302513667618809 7.191289763038369 0.9740374929524966 0.12300466055971075 0.3368245414307812
P 3.0039226383059074 2.5690804514235066 10.160143918155025 0.4724476620854508 -0.8500283023876716 1.1120537964296913
P 1.9519142259462 8.176222062988707 1.257976879658049 1.6314572584393903 0.7229134763143291 -1.1674389580682152
P 6.83141868257304 0.5803908161962664 5.636433090033427 -0.2369623804258048 0.18496207609911372 0.4038200336147239
P 3.1386610429272257 4.121479961922664 0.9671017426221756 -0.02388940502308789 -0.6265762977434757 -0.07353072219929917
