# total energy = -340856.6517904342 ev
CRYSTAL
PRIMVEC
9.39547652743783 0.00000000000000 0.00000000000000

0.00000000000000 9.39547652743783 0.00000000000000

0.00000000000000 0.00000000000000 13.75122960722955

PRIMCOORD
 96 1
Ni 3.570224600440316 1.6396797234157465 10.008103576371541 0.9548254388004201 0.22203892634675307 -0.9181882471933607
Ni 5.187618254201688 4.236354470771474 10.024824705445694 -1.0911620405823466 0.40476337136459967 -0.3728634373322095
Ni 5.084700207408256 8.083078541641212 2.8699224434565758 1.3125034266414428 0.6095602228014534 0.3869001179309337
Ni 5.432454969683707 4.641788061718175 3.784874590293102 -1.6572153412401007 1.9032668284513672 -0.29910183006902685
Ni 4.779525743477505 9.075710606980454 10.178976284205948 -0.7622755230517194 -0.27799512999739867 1.2806937383300137
Ni 0.3683928653963605 7.315994279051938 2.2437609290738623 -0.3968556864817488 -0.42305059970956177 0.24015980431717995
Ni 4.798598560255912 6.104165752904704 7.933345655359227 1.7401868971373258 -2.7404861519998285 -0.8964943071596948
Ni 1.4803606327204553 4.3983982495779665 10.726894151511216 0.4526139151889753 -0.8115656275360991 0.4794724301427162
Ni 7.303789555409006 7.099841952547493 4.515917806004562 -0.04055041061853661 -0.4920590085584751 -1.365307714926668
Ni 3.449389380446677 1.2429275525199066 6.101571661913316 0.7935524787881301 -0.4004860841454845 0.5409251381315587
Ni 6.918809916248804 4.652188853921966 8.370593268420883 -0.10485190091008395 0.5700462238672312 -0.8012310783793104
Ni 3.8859313932422963 4.286939714877357 5.753830992852233 -0.09089081074430153 0.22058728150189108 -0.25074683580440693
Ni 2.8801738475880634 6.5181022498536 6.438614641721248 1.049467489057038 1.5609262422983634 -0.7444480079519954
Ni 9.116411810076048 2.62081172583047 11.348284643056454 0.09533701944111322 0.05053374708349362 0.26600453329442575
Ni 6.3444456624076455 4.573154107744648 12.217292911052386 -0.7408397217754467 0.2715118362659001 0.6792492026571593
Ni 0.173370025420467 6.772080763722511 10.803075491552768 0.5050183969326206 2.5447616951778884 0.3141013888016526
Ni 1.865725486406724 9.30452803546386 7.955842183681501 0.589910566891326 1.2853021836363026 -0.25014031256865954
Ni 2.093509412503123 4.833098749029463 3.742066921423262 0.19478986082281294 0.8295646352166809 0.3244811893740799
Ni 1.44930858372901 7.894079141486323 12.725044177860429 -0.05345811981914019 0.3731642564020799 0.35608416099134155
Ni 3.5685522056686136 7.739767839629894 8.391632558377479 -0.7908785315003928 2.508686803832202 0.7187714291214976
Ni 0.7252076854153662 1.6586397944792066 6.4356437921324146 0.16262176073070056 0.47171361213290375 0.8431685991533608
Ni 3.6142611976030707 4.738354766569634 13.517417304312147 -0.21797709757255362 1.2206353395855365 0.6306959763388041
Ni 8.703771888849033 4.469775682615186 0.3662723064077466 -0.34615353214119093 -1.6407194004676067 0.7845145369555779
Ni 6.169407939953598 7.565913947182783 9.184446332665113 0.5218411249169141 -3.030119637567104 0.2358534636323422
P 8.397582713483766 5.431073834675615 3.6283854170429617 -0.5672313801262554 0.3498536067005975 -0.6848498366733883
P 5.250126357663135 6.690518634435146 4.872954359262962 -1.345151037473135 -0.24436072977240494 0.2986822260331049
P 0.22117232946242618 2.2542754065402244 0.926853396596727 -1.1585928205314948 0.6486803287313667 0.9242802190237114
P 1.3722280966107598 5.81600649645459 12.403512189786227 0.08527217900594347 -1.334089894562967 0.5947923204636595
P 0.05102401284654817 9.051479673743257 10.520240651490992 2.369197515353907 -2.2168992480364014 0.5606650397626474
P 5.545642272013493 9.09306405160593 12.293585117713636 0.8430865809625158 1.5698867939257608 -3.4642362652828402
P 3.6613231381168827 6.332024842811067 10.187762933590758 2.0249445426695387 1.6393124928177507 1.9420529480806297
P 3.3966901541855528 9.267838700725102 0.4677415707641188 -0.6010280169607262 -0.6236005029446035 0.43494709403683157
Ni 6.581239850223498 0.9751940614275546 3.92406481267999 0.906304351271581 -1.167758546191163 -0.7277484358091273
Ni 3.8335891950785017 3.249293922845827 11.782699520030087 1.175988133189807 1.1771857530423337 -1.171927075746556
Ni 2.4669701977863174 5.502385499379116 8.86197949470448 -0.9474962521288586 -0.8666764524673138 -2.770041754169758
Ni 4.846496698155575 1.1749794683123025 1.5421725313921102 -1.2434970746750584 -0.28089353459111627 2.0231198307559737
Ni 1.0088862392439912 9.337637693753074 0.9885487913629375 2.3898411597461875 -1.2227310457723006 4.1975022884760875
Ni 8.581931352897124 2.8916927014650717 8.903742386615818 0.7252670641481703 -0.8172400522130571 -1.986408077157237
Ni 0.6923996219136331 6.842490462706441 4.596595820977221 -0.10108754877164526 -0.09426641208475378 -0.03675751923500766
Ni 8.709409174596345 1.8393054072043205 4.49909990352508 -0.07220737540218532 0.2819055207953983 1.6323064938135627
Ni 0.5116663617595517 7.562193338589557 8.663975470115883 1.008091497213412 1.301262820730617 -1.2219008365615214
Ni 7.007230743195398 3.189162874874496 3.607029499536894 1.7751556999030265 -0.11672216998510866 0.03179786123688718
Ni 8.577327569536818 0.5628566745356456 2.7021718523785547 2.1016654896713614 0.1901374496524661 1.0273292623971015
Ni 8.857303366177085 6.555054657927233 13.425861206942423 0.2832394091154735 2.1247532247287597 1.0912499723104627
Ni 8.176178315758076 8.929460623742681 5.330705720135218 1.3009386046219789 2.5796564501725445 0.04084685881303288
Ni 4.712263529035824 2.30032263561952 4.1311580209885035 -0.8403362719108882 -0.08856936169997649 -0.3102514189279431
Ni 8.66300491741972 5.039789830954669 11.727392109563207 -1.4100526232425263 -2.2127487162031376 -0.09905097795759071
Ni 0.1042456275869236 3.7089675981579173 2.789670983105463 -1.0994811019710031 -0.338225792653682 -1.502649360934341
Ni 5.641776784957657 8.400391960881176 0.4076358905786505 -0.05447679089164167 -0.5477560450104632 3.2422958121871646
Ni 5.867850734377372 2.4056553198080506 8.294878883548733 0.09049486085746349 0.1772341113272367 2.015067135654826
Ni 1.2705126707767551 1.9644343598421623 9.63932267780624 -0.5463293398662655 -1.6136703667696144 -1.0992052226017972
Ni 7.90478058892997 0.1438315876521751 12.440558552622312 -2.1350911163196584 -0.9284993993113816 -0.18633864473166617
Ni 3.6615768159755118 6.973670102046398 1.2555560121415108 0.9394656685148982 1.126877234595769 -0.6291831392387035
Ni 1.3907841621956627 3.4165521909685834 13.311794488036057 -0.1425833540225867 1.160670014775498 -1.403887632082395
Ni 3.339678404327734 2.189446620446133 13.657899404682793 -0.147376661646172 -1.393652327507632 0.7113527680599233
Ni 7.903023634872058 0.7724049207871139 10.125552666726293 -1.3890451677529239 2.085940879847253 -0.34968545655384936
P 4.343134058301815 0.7718346153790108 8.062909272784955 -1.085916475912691 -1.053368880993973 -0.23153838119675607
P 4.317127380054214 3.927609725867425 7.826649687567471 0.6025565377901106 0.36785158593991485 0.04772687376231781
P 0.6942787171627373 3.405456133522623 4.759506802241175 0.5131166005597226 0.3022038660331183 2.2918240223697497
P 5.344400566310688 5.638018594459449 0.7831148241593826 1.0802302241611912 0.4215313348515579 -0.2589113738930703
P 4.779272065618875 0.15835323573725157 4.522683488448961 -1.3152524501414897 -0.46116437586214776 0.4057691869212947
P 7.263116538742148 3.4849136761309905 10.329098143204499 -1.22029441130635 -0.3614569952674807 2.0695686091368164
P 9.331887662290816 6.547124875976013 6.57422894584909 -0.11045819135326784 -0.16296526011304835 1.043403285140829
P 1.2766197303363431 9.166405139178464 3.4442838786548613 -2.7084322088880772 -0.8025176584012178 -2.49997693476303
Ni 8.645689054699227 4.125205986786966 6.7264967316221185 0.9416986716104749 -1.0826123512401227 0.41915434997894907
Ni 6.982210589953576 0.9474961974557602 1.078110229125737 1.1508923665634436 0.47303747315064987 -0.27124881241250054
Ni 2.9294531204958183 0.15934351893352944 12.03319231221191 1.2395846269945296 2.232005507550221 1.7171909504627845
Ni 2.269505473534213 8.353442766082312 10.40794779849978 -1.4160949727818644 -1.4336201261498214 -1.9081964045425008
Ni 3.1897078124967364 7.276204437152159 3.940661921467702 -0.5832192709140794 -0.6810201785146529 0.03203003185235129
Ni 7.145137543527148 6.94455352116153 1.909316737995441 0.02161629271819503 -1.0263792397790066 -0.2596353965432884
Ni 6.84941492869939 7.411301990086497 12.476064057354135 0.2710747487284815 -2.170886271641397 -1.1696053695919146
Ni 5.45598124220249 8.577468501680501 6.351679239569071 -1.1434801332597726 -0.24689480904816838 -0.004558565904959891
Ni 2.0687523325961763 1.803320733183977 4.21178154219894 -1.5475220530773155 1.7170600813118753 2.160999351544988
Ni 3.1830840017436444 0.4804320405289434 2.947356200481658 1.5712222249077328 -2.558621998099748 -1.2543479013466334
Ni 6.048027782337718 3.6221252112205717 1.4613704961330094 -0.22743644321324058 0.703036534884744 -0.3257775395880002
Ni 2.2008339376557036 2.4286554456570846 1.979668185026649 -0.07004070676816969 0.511369535961629 -1.0087484140711207
Ni 8.638200860131546 9.34511649284451 7.875906411332236 0.989083845762658 -0.2190783010565324 0.4397951661577522
Ni 5.880741327786226 1.7693185046514384 11.348229209746606 -0.5241417480256328 -0.0840143953394424 -0.20364833965470733
Ni 5.83920392730478 2.723485490241518 6.10021025740534 1.1235031759172134 0.21767036496541223 -0.7096563541941069
Ni 0.372859474803481 0.8528010714724082 13.053656596833255 1.4056454953137665 2.893482216715307 -3.619483073705709
Ni 4.092556706833783 7.544050673959457 12.529116553522092 -0.9193920376934747 -1.511210363130475 -0.9285420796238589
Ni 6.362391022036589 0.1432594031488229 8.557981344399668 0.3353451286717773 1.3444941206154264 -1.7985560811048382
Ni 1.9021235613818703 8.927731856113505 5.261660244302137 0.6760173259834229 -0.2892797017722824 3.500831033687738
Ni 6.995890403367054 4.911983167586853 5.524899879106257 -0.9308391031881518 0.8389995553773356 -0.4234668613113739
Ni 7.418451947509339 2.5302769167286345 13.01511259508363 1.9071476515630126 0.9378330180074815 0.6337098234644635
Ni 7.418170083221973 7.49022399054887 6.8833429329695885 0.018828702670728864 -1.7790840884231554 1.8313250480057428
Ni 1.41474262662174 4.888503872449298 6.3381337814659044 -0.10084920750859407 -1.1465957960706188 -0.10114231326898065
Ni 9.401583305080088 5.488001025247224 8.925923226936243 -1.2737404469406322 -3.1534109761292983 -0.9429914222799695
P 1.990544388328464 5.921921700170343 1.741318106344538 -1.1478492088617458 -0.9326566160128646 0.9739778433591548
P 1.3501769138625233 3.5758243042826465 8.31147693188407 -0.6355754159182925 0.9099342347146846 -0.6300585998651214
P 5.5002151443664005 2.2264647968534836 13.670894287877973 -0.48197925572496997 1.1703944411521134 -1.9226776288778114
P 7.395038420705502 5.986571972215769 10.025031405923094 0.5791502430510285 0.720761462968333 0.7235066298136378
P 8.309321609633347 8.671489032469426 1.1628151452172273 -0.9216908610299804 -2.598914012850576 -2.774598520302505
P 3.6865499918361055 3.649691538524929 2.963156572883749 -0.14462558126359612 0.210321895020141 -0.5715132953310609
P 2.121592491000984 2.0983950601507937 11.558458628025875 -1.6283559938062473 0.5273818522294853 1.3733084737439576
P 7.7352768019845355 1.5033889449982258 6.909759253981494 -0.5869756526327182 1.720806692838501 -1.1519601457063258
