# total energy = -381161.09225820453 ev
CRYSTAL
PRIMVEC
9.30253135794118 0.00000000000000 0.00000000000000
0.00000000000000 9.30253135794118 0.00000000000000
0.00000000000000 0.00000000000000 13.61519495663732
PRIMCOORD
 96 1
Ni 6.629551444541026 2.9722704640048954 0.2617769591291825 -0.23274062903497336 0.6888383890074912 0.4032294512185765
Ni 0.3420308291560254 8.586906412747961 9.157757192220114 0.6089490715800158 -0.45176005182911233 0.8573569748386008
Ni 6.80114594170869 0.827434135231028 9.464085835499539 -1.1261257011417252 1.5128432707482076 -1.2079523448012295
Ni 7.320896985065063 3.8786719291479286 3.141570026636547 -2.808282542818512 0.7739825270760025 -1.560309177539655
Ni 4.469643154132602 1.9978767956851053 13.51268617841262 1.0121548686495085 0.843504899446857 -1.5671179729313722
Ni 5.3869657913278335 6.562135998321031 5.962828774804863 1.1988629809054514 1.5612450590903628 1.2896550612883595
Ni 4.968203030593826 3.3863819589585806 4.502204805354329 0.2041767013543516 0.031952641647196585 -0.6585829325570594
Ni 0.5767113743553602 4.933076671420829 7.069881194445235 -0.6375857614801019 2.3221018474176844 0.7148242715482914
Ni 9.019213659434268 4.2918996836033525 4.4109553430228035 1.5967008287948115 0.2546032334360196 3.233863622259411
Ni 1.6356455192451387 0.5911275075148923 7.6499154330740575 1.3119647805291534 1.0358367856474806 0.15069904115118563
Ni 2.6155741938435124 4.463438365581652 9.659450161310962 -0.5251601619878181 -0.2760395489329246 0.1781872192691254
Ni 1.6020726828427698 7.3271668913369385 7.506152249829534 -1.953938900884938 0.31842932675304514 2.542443331457357
Ni 3.3388088125574407 5.663883550825123 0.583237100245153 -2.345308110330819 3.667355729017271 3.1732501223424125
Ni 4.156464126611918 0.2736014069959187 8.146611082210526 2.831114196001047 2.9096446854077826 -0.4065099217420612
Ni 7.755725217804305 7.24950005533711 0.28276067957053 1.1155350701100724 2.335859820433726 1.959255428001845
Ni 7.109971384458992 1.6558878279211027 2.2383109566546993 0.12731177257549686 -1.0928108890396793 0.29859866518036315
Ni 6.40153709345805 8.534086638546619 5.036505938324708 0.5630610507986497 -0.27795784900156 -0.10746491305289879
Ni 7.041821038245704 3.011369004154287 8.136916914071179 0.3963790039556464 1.001660396876088 -0.8461258820094717
Ni 7.588428490217661 6.706855481809989 7.279677467719844 0.06516872338784906 0.5471531213191416 0.48523967164379656
Ni 3.3681024844419127 9.198324602102932 13.2564488768278 0.12141263348224252 0.12106527744515279 -0.542405322221511
Ni 8.193120949254286 6.506432439335886 2.6771150913829618 -0.9784520770804247 -0.7051492103523727 0.919498738474668
Ni 3.1318274853330834 1.7217125412442287 5.9390022007185825 0.18988316754981494 0.29887583010114976 -0.21103100527202365
Ni 2.469673288846352 8.15078512812179 1.8154634543124117 -0.015731294692327747 -0.3186800093112705 -0.5298722227515068
Ni 3.982237013012593 5.500540399151752 4.716902582508241 -3.3497846364994626 -1.04553704365438 1.221130019833768
P 5.995965322477038 8.803804238615967 6.994657203233233 -0.34083854768618077 -0.051805414707065615 2.069583264424836
Ni 7.492817070837348 8.10986329178651 9.786262271545679 -0.13262032927260387 -2.75785163986147 -0.0689569867856877
P 3.6538297413271326 1.7110146299494866 11.525725903513932 1.138836206729858 -0.3831231673870047 -1.4426400702602447
Ni 8.94830046134747 5.393151974815662 13.402348851571805 0.11016868513730703 1.0523574090103232 0.6747281748583541
P 4.3045325214627095 7.1989314937734425 2.5464638263731665 0.8321722480428573 -1.031285161721056 -0.09759959022304482
P 8.932923376677723 2.5005949037539366 3.3428433204952923 0.7168053065340623 -3.0785018855252337 -0.8191305843675507
P 0.3816084496807908 7.20205714437782 1.4229515073893888 1.1532166438212463 0.14860410629536988 -0.5358837190529093
Ni 8.14359427122541 0.6322279524561352 0.04323909694703533 -0.8214345499103789 0.4615353860483213 0.4361292872703908
Ni 0.3453974153278229 2.6838547754986486 6.886674347130419 -1.5717554717033835 -0.8796358408414593 -1.4187663489664404
Ni 3.2016801948219684 8.13523129535239 9.395764322705537 -1.8274048870157302 -1.4229757590620975 1.431939910233921
Ni 5.469711809559773 2.0835903214848908 6.855455051212894 -1.5018626033669875 -1.9339292905322307 -1.1693945391326892
Ni 7.978492941087078 3.293189197784036 10.064788438749803 0.8188529052261316 -0.6153377487151789 2.164934682043652
Ni 1.1246760656820145 0.6406393014932708 3.0980834823499985 -0.20659225277437968 -0.05446419248615136 -0.9886390449157554
Ni 1.4188221136296182 7.135060312078052 13.05751703016287 0.2592512737309922 -0.26350233569786236 0.9863314798285012
Ni 3.4073684701593963 3.1275111106889435 7.9968300912994215 -0.7581753848404169 -1.2025504570593677 -1.217347412862884
Ni 0.4220530661470082 2.268626976757686 0.9740150552852718 -1.0751417538946904 -0.7600702878702845 0.9154806184542104
Ni 4.7011273494877 4.691545741980234 9.206540597977295 1.574813798913733 0.8481984482677843 0.06649669817065322
Ni 5.85228772252287 5.708051970675066 3.825774943934632 2.4753043717170145 1.3748850742024579 -1.0877093061470557
Ni 5.914372818158618 4.157440892425786 11.736217075896121 1.7254573042366348 0.8459968126307753 -0.5757730990486793
Ni 3.9534735854270777 4.65269837018298 12.643682750649692 -0.09312047140576866 -2.3491807059123477 -3.566273322451948
Ni 3.395498439888013 5.826408079721156 7.4564981271182775 -0.2383888284596862 -1.6987417426186615 -0.5605264573022539
Ni 2.683538489425587 1.2734700579945357 9.593538934444323 0.9315685251550087 0.23912519240507848 0.6431766253043181
Ni 0.8269931952350534 1.3543834775090284 5.212999148612206 0.16895824447168967 0.021869032158949434 -1.0080801843595024
Ni 2.430025899334882 5.873395166633975 3.0869185839709115 0.9722590608958352 -0.8496876312188012 -1.6059544861825954
Ni 8.289848672421876 1.0267855260693441 11.142757423718976 -0.08556219944253651 -0.4168920363073336 1.2818908439619083
Ni 4.946546737120643 2.4377563030617777 9.320935689084862 1.3718712270767988 -1.516317345339737 2.024771250316468
Ni 2.343047229242848 2.5033577556274484 13.014138395242425 -0.36790069401029546 -0.1645572871905166 -0.49918379252871453
Ni 7.503375444158681 2.541339991989563 5.325379311383737 -0.5095808194923224 -0.6117813988224884 -0.43904337559339224
Ni 0.4507476549989746 4.328226069347673 2.369725029252467 1.126189207389809 0.8642681001361374 -2.487949314174535
Ni 2.0012815222363014 3.736008305133873 4.237906860172211 0.6277901155459188 0.6489922035448307 1.2422146084182089
Ni 9.21543195764296 9.004552869694692 6.627972804935186 -1.1797226605315747 -2.5338134236965004 -0.9947289598635772
Ni 0.8687438871323855 0.4485997004616217 12.911385422383006 1.9547909644725883 -0.00240063902169264 -0.44947356978778075
P 2.4531612953262067 4.051075746561368 6.4715470157303105 -0.6360063328081239 0.27053096040986957 -2.417138304899243
Ni 2.9096179139439493 3.5722930521980762 1.6239392135292225 -1.0161585904922628 0.7323890199049323 -0.33458459635666893
P 6.765340497731765 5.310685032530542 0.18765438765396086 -1.1994731036856245 -0.824474365177967 -0.3712287299422639
Ni 0.8495583460417107 3.3230689291568285 8.82364002666273 0.7248006660347132 0.46664442514011245 2.674530928154942
P 8.997855046971027 6.13035899593368 9.087516567165151 0.57067588703143 1.0507137027593132 -0.01351783198077672
P 7.847838885317815 4.460991799781202 6.257733909327816 -0.432312741737778 0.29555319348582004 0.8158290307981434
P 5.157249076969259 6.402504556740358 10.425236419889595 0.02692073565024396 0.07152706150570906 1.3401037048572146
Ni 3.1256506043768146 2.004928114608074 3.382531641145629 0.7199885893580503 -0.892437877702134 0.01849394503912944
Ni 6.500655567236726 6.883203572605142 12.166552185891572 -1.3194875712687597 -0.4514607754211386 -2.4304080254249563
Ni 5.694619115101494 4.327165580749759 6.5933357589222785 -0.07447765949360076 1.020625110904049 0.5038961104027193
Ni 3.588842255844465 7.400191764088003 11.88963256588797 3.7379481945238533 -3.4823761694166606 0.6470823881166275
Ni 3.5759210395067282 8.123900811911524 6.695885006340521 0.42728983460188996 -0.7483982508489949 -0.9930526006024188
Ni 2.4497751738381317 1.153848804656198 1.312669995737939 0.06764598128374802 -0.03211950624236404 0.37555512523175966
Ni 4.974584567244428 1.1078198784941253 4.406652922176004 1.3511453073833568 -0.6522132815852897 -0.01213072182526298
Ni 5.357383740964981 8.66027547916677 10.616829499406332 -0.5578576522208393 0.11709883659823704 0.3335319867224385
Ni 1.7840208976374308 6.42012355151622 5.541357116880395 0.7263849798026975 -1.354928428574873 -1.8327314414349662
Ni 1.324885149930222 4.159543264558492 11.531458123461602 -0.6620685771128147 1.2156571696446545 0.3600292616820187
Ni 0.9336950927419669 7.367204987173955 3.6131320960024653 -1.3761551991641332 1.9672106782931795 0.3009247422103785
Ni 1.8835207752100926 6.250640729012823 10.633630801658015 -1.7623986573476742 1.5697083593663677 -0.05983162744565179
Ni 8.49681139458311 3.270007289134908 12.54726015051729 0.07925862582201189 -1.2031870622021021 -0.7618816300474104
Ni 7.628801477190861 1.0500232499078361 7.270487496791082 -0.19107178854127738 -0.7376564389514587 -0.46687505309367977
Ni 4.829790663502984 0.6411593130075108 1.6190777105356293 -0.316529538627171 -2.9808272190898792 2.2779233531282577
Ni 5.119173815291537 6.989782676695454 8.388008985449805 1.597587602275139 1.305047998804662 -0.36770220484624416
Ni 5.967676324001116 1.7579272966098207 11.512791663632012 -0.2691559344392139 0.10326835847304795 0.5120855881920471
Ni 5.342583413251995 7.308775786441543 0.5733689747656204 -1.81943472432606 -2.4778091404167393 1.8126696376880844
Ni 1.0904613546019613 1.9833555439189379 10.998544928200072 -0.44068656762377006 -0.004774538570507906 0.41673005680817254
Ni 8.869842910164987 8.104923647527809 11.782685081547855 0.02223078637374236 -0.5292734128252432 -0.2859735202171849
Ni 6.543149531405754 8.496578831294096 2.80433558275319 -0.7355404210497204 -0.5725268241972398 -1.6765371814971644
Ni 5.144532516325857 4.8070924864950095 1.780649660199853 0.8208925613639798 -0.07630031452463633 -0.420569742269237
Ni 6.9990945107876605 5.103415326827805 9.003456101223692 0.05183421106247202 1.3689777075790874 0.5718331405643248
Ni 8.578217848270318 6.304595412064566 5.1701526184970295 -0.6478784016553616 2.1012062906467555 -0.01672888271890667
Ni 6.0983210772388174 9.129988205258433 13.515995088888742 0.24352846367909667 2.1895843622715323 -2.1641471531453504
P 9.197031550216003 1.4442552349164226 9.195321744915157 -0.7216847461135507 -0.37331260905448616 -0.9482161610140185
Ni 8.448968474766714 9.159356297395389 4.008694343024224 -0.23157180553785278 0.16975605778263667 0.32906186676622684
P 1.114201415144728 4.035177720124225 0.05131834560745576 0.8559603516013904 0.5067022123929467 1.3993432072448224
Ni 8.367059684375231 5.566486045385166 11.138005690597797 0.3072871940932966 -0.014187090133659439 -0.9252690652995419
P 1.7933606393243187 8.660238269040528 5.60609715502355 -0.04677685114422267 0.2798280694410794 -1.1397232373205017
P 4.860079706264445 2.6357606873301127 1.8795095236011423 1.187580980233729 1.6729283810999833 2.2530235045627847
P 2.076873893698105 8.51294198430927 11.369572678483785 -3.153100129757098 1.515091700462752 -1.154996104319172
Ni 3.9704227979305733 8.293039440747176 4.40384820891047 -0.5269041412621184 -0.5662312209965151 -0.8438859369353596
