# total energy = -340888.671256574 ev
CRYSTAL
PRIMVEC
9.08312743996854 0.00000000000000 0.00000000000000

0.00000000000000 9.08312743996854 0.00000000000000

0.00000000000000 0.00000000000000 13.29407514499001

PRIMCOORD
 96 1
Ni 6.736247020820655 1.758865849932624 11.357925660860149 -0.23312629450916625 1.8965549636488306 -0.9207300397786078
Ni 4.6369728097562195 0.17968333219696325 5.8123821621310325 1.257652540239834 0.45107356728504894 0.23861508553787938
Ni 2.902277161519883 1.5994660492681592 4.688527731893746 0.33475737448910736 0.6701726942771877 -0.30398692607547
Ni 3.62919983786481 4.574644390350012 4.630525606011754 0.036175421479292535 0.0018162272731323558 -0.39677983893849084
Ni 4.315139443915243 2.7513973342455413 2.1751628311893154 -0.8376772370214863 1.8686525808116077 0.9991062629956664
Ni 5.446615526254504 5.253680819666443 2.626975748429717 -0.07583314508023067 -0.9731620323260789 -0.5550698050630568
Ni 5.797387735614599 3.5098747947666804 0.1082617940691638 0.11686306643834712 -2.413478082438837 0.6644453048751073
Ni 5.834029071068497 7.95805480397524 12.205662104864656 0.2955323675502136 0.44062486114789917 0.6671588471515284
Ni 2.248537241682655 6.390561362738246 0.39635043374633977 0.775141323270794 1.6464737864528807 -2.3577319379164687
Ni 0.7064883648995536 0.5544704217768298 0.2840121321532025 0.9711138915477985 -1.3087506444672299 0.7402668799911122
Ni 8.205624521162012 9.190217352230826 6.544406831070024 1.4724574107319932 0.6307648819035265 0.8446863213494678
Ni 8.837383272977814 2.7276812889133337 1.5085048877322227 0.746348824519134 0.30087280592652055 -0.5736671084492702
Ni 7.003636121735836 1.209709057615519 4.706501424158538 -0.30508350157375846 -1.023652841986779 -0.08485951694855709
Ni 0.9855919750697897 7.53641603556425 2.076548226605919 -1.4557578385891252 0.30046271497229543 1.2195395354181964
Ni 7.900295197591666 4.406788198186395 3.607174162519704 -0.8032226548880425 -0.8044961222838274 0.26271480679956044
Ni 7.886552426014634 4.243991307918619 12.57059763459492 1.3551348881587242 -0.5671514188179394 -1.4798305632676128
Ni 8.277008818467957 7.509893303902033 8.60026914360487 0.479527965971 1.0754487436121478 2.4234917579210973
Ni 7.356642780407199 0.9559446476227095 0.1066250145330229 -0.35090853032767305 0.1578161118119411 1.1265285930070985
Ni 1.8559008986817536 6.667433248535397 9.416180126240173 0.6217138274448518 0.5462486072270012 -1.7325252668270095
Ni 0.4198003434491974 5.143257241304263 1.2248333728520795 -1.5433985178272451 0.08642249056030277 -1.0019095367724165
Ni 6.35852517281611 2.3693882501640897 6.883206570360266 0.1896175725932541 0.024911932750331288 -0.27186382028868017
Ni 3.6680392901208503 4.412356155210004 0.09965825590805028 -0.3124276006436555 -0.03127078508882356 0.7372586892924077
Ni 6.047618809094874 5.84002393507434 4.893934480552146 0.6093100544638603 0.507098676500417 -0.21044942173694078
Ni 5.634718009128765 3.009367232169723 9.371245895578193 -1.1579096784215415 1.0529729311071347 0.04272736366519738
P 0.4453439139904595 5.964989600214332 12.242819361948147 -0.0519509391459944 -0.7653302507176432 0.007263623540948781
P 4.143804414002781 6.372667601993531 12.369511729584367 -0.2571095447976411 0.004326909510128032 1.076424734372172
P 2.5857392588840677 8.58824217477133 1.3008427985698054 0.5368483969590239 1.2547528500945357 -0.40450189017309685
P 6.665062552314905 7.950960881568325 5.973293395175153 -2.7326072634723837 1.383602656581114 -2.430017731965073
P 5.09773260736898 1.4185846525827555 12.660439754849765 -0.7526164026954005 -0.18911903569028074 1.6763528334005
P 4.402146720145507 6.467668030231587 8.278326780236513 -1.2944882210109447 -1.774465872924854 -0.5942791282726669
P 4.940367427215588 1.2191555099883633 3.8207838834261003 0.027222583161378926 0.9171461790820914 -0.9023420241897233
P 0.45091368763952494 5.845237650133967 3.551831576305759 0.2875166963345887 0.5783197767299331 -0.42139043839831947
Ni 1.0550143168829134 -0.16668628536974903 4.462036319876611 -1.4545437636763658 0.3404567388667298 0.6442084090029421
Ni 2.103061875140854 6.544266042597159 4.822505675922521 0.6433460610026469 0.3053267279328161 -0.9937802227970628
Ni 6.32572600020232 5.904105398045894 9.02182434724487 0.3527566392800054 -0.08390306657255873 0.47847407078518883
Ni -0.428662750737836 2.5165530783802654 10.017138901756864 1.0203993680464878 1.140975364560048 1.0714452788797095
Ni 2.687524783201464 5.0815918901896096 6.838764645196947 -0.22092281046443885 1.0230044097695026 0.26814754777935756
Ni 0.9543006015847433 0.058754208820906616 8.665583186948535 -0.33847673232222353 -0.17354406407015918 0.9192120604721846
Ni 1.592426625624934 1.265052552142192 11.239927662657859 1.2213897012530577 0.6579553262753894 -0.011323395432619208
Ni 4.499136353258229 7.325596651358755 1.5001166196876827 0.1032336485803706 -0.49471033013839316 -0.24327983800340036
Ni 5.892751488943918 8.125774749229633 8.059027388400935 -0.5500535827953883 0.35432552642902204 0.01904441822596075
Ni 5.572489504122654 3.2269353799454326 4.753429401258827 -0.002640780056956742 0.07190552789105036 -0.868118584230479
Ni 1.0217064891413559 7.381248972213003 6.726003978185217 -1.6283364534222213 -0.3233753579044108 1.0157520990824636
Ni 5.188463965784691 4.76054875642213 7.043600065149336 0.3206906119833961 -0.44634736545397324 0.2304466907944741
Ni 1.2066480437216263 7.860620097625721 11.374397003872568 0.14296310595950862 0.2075489602606942 0.607823956836637
Ni 4.771539340432843 0.5348354255322362 10.688223961450998 -0.19378893036212433 -0.4239556280223344 -1.7043128089485355
Ni 8.149972200307765 7.347877562580473 4.45150806704453 0.50724060139492 0.643346318112963 0.4327410875244483
Ni 7.619790060881882 6.423596696661355 6.825484204798547 -0.08568792638712339 -3.4562974700517377 -0.4086341671739156
Ni 2.3098756002151712 5.364249728065128 2.4019203788358006 3.026960266002516 1.568743167239621 2.6419239407531983
Ni 2.2749328095629293 5.193732179608008 11.392955649534294 2.1692968156670895 1.6341862273347791 -1.2244261740865365
Ni 1.2665785175254978 3.581195510181654 3.6954866841403313 -0.9820824747441603 -0.1497698444686969 0.3371482433187871
Ni 1.609702733714501 1.4063496801344657 2.60050751553119 0.7719683248594511 -0.5165927320337813 -1.2245243902272975
Ni 1.2191282606065186 3.619571722946334 7.900854718232212 -0.6124545136301129 -0.9234104148242483 0.7846040113455907
Ni 3.8336065342095083 2.6536265521866036 6.761925021645685 0.5647574646644661 0.9556844443666058 -0.16136603394672855
Ni 4.219058123530679 6.8521749743154725 6.128528581981013 0.08903575981343376 0.5504382198283165 -0.09409337684199924
Ni 8.481124854739644 7.544554517608547 -0.0993912119659718 -0.5710366128049585 0.7113111161887105 0.9512240946024069
P 0.36356216088528875 5.670378366836252 7.953020934835787 0.6991091748058799 0.4099451726758553 -0.09008836944766421
P 8.78168553648716 1.768920871833334 7.997662688799301 0.6168459578295893 -0.30978322104227296 -0.8087700670688329
P 1.9531539424856412 3.2616601755429167 10.335491613223539 -0.19556350576404385 0.24825595106175308 -0.23371276314025552
P 4.217940898875044 6.644371188367463 3.827763358429267 -0.5422389718469758 -1.2028199086706703 -0.8893389270618361
P 7.18003953667142 4.364170164981217 10.315178107371011 -0.22634500992127468 -0.6260119405995735 0.6414390737879211
P 6.84227436557855 8.32184313472984 10.262069062155605 -1.0576950191731525 -0.7144231794551309 -0.7692570965758752
P 2.582905323172214 8.533352836608735 6.006329637410991 -0.7599098510330202 0.7194211468903546 -3.925668035873762
P 7.401967585542288 4.54596895752206 1.3715767439623892 -1.5874332874499564 -1.184338304926715 1.0316399739573137
Ni 2.8876624097238195 1.932026588428684 13.564874895971357 0.45582599436836985 -0.4270147265636324 0.2885513082466901
Ni 1.871260466914907 1.3393525333055245 6.922423880711221 -1.4305348023562783 0.3160993930682879 -1.0002563174397094
Ni 6.870268563860382 1.1660282985183958 8.842288161709869 0.7664306828706736 -1.5937420032768037 1.156829557983485
Ni 3.0210663001083997 1.7985227836440065 8.984348272393794 0.2667542669762567 -0.15914434370506142 1.0503848586649847
Ni 6.78901999032664 2.206200785423206 2.423257553132962 -1.129272217190507 0.586305623148887 0.3550498061895563
Ni 4.148373227025416 7.1014159869220554 10.283950315776936 0.22323911730244134 0.452899050529562 0.4761724192352058
Ni 7.486349837988176 6.4149949751256985 11.277669873138285 0.41434253041260255 -0.41307291967155957 -0.8297039890080228
Ni 7.816103690818693 3.876079237378181 8.278166917196357 -0.26596211009226456 0.7519188624077436 -1.6435897800368662
Ni 3.5220825178331254 8.651051999923462 12.657820180941759 -0.38432927187996385 0.005920993470125286 -0.32029080544181615
Ni 0.32057807765066304 4.985183577222909 9.993023198824265 -0.9433341503313688 -0.7627095252653444 1.0067321549720403
Ni 8.767088950945658 2.4698930535347836 5.87534276719604 0.40546091165225656 0.9686471751748609 -0.2220780071148046
Ni 4.011590413292088 2.784241922495738 11.382612692498759 -1.017781985028299 0.15012902758032853 -0.4664410508800547
Ni 1.3263727444201452 3.668756857176095 12.668987885934461 -0.0873462879261528 -0.1826077169343242 0.9496217831122937
Ni 3.2240560285971713 8.510726766550317 7.8820035958720185 1.8427422887037488 -0.7843222184391138 2.5397441873586386
Ni 5.838597884091133 8.22457192467139 3.5785523201427143 0.08671096833499904 -0.22551840025492126 0.1554355273949065
Ni 3.11356886834402 8.54033776148827 3.456153546772498 1.420242933511967 -0.11375717381951377 -0.44108637416534996
Ni 3.344589127623751 4.373416788553866 9.080078984065288 1.0496225265776633 0.5216248951410501 0.09099416909138522
Ni 5.226313357167039 4.768678155339145 11.282468489281143 0.22333810477415084 0.4773055043983845 -0.6460122949809003
Ni 8.117173027693974 9.183405006769641 2.4303033349652847 1.1204921570050317 -0.2505421759927685 0.30055527468610177
Ni 4.867093839435074 0.6630492169881208 1.5749089063496768 0.06848364669369496 -1.114301197702971 -0.9552977504511483
Ni 6.13641546139961 5.8056987970772465 0.08484004206087906 -0.32782670880754505 1.7555376685617827 0.523506428434479
Ni 8.490253397657632 9.444181591023831 10.802924784450074 0.7577038445206371 -1.3544136937219835 0.46854909836199304
Ni 0.2676488783554343 5.031843602068391 5.64083549535291 -0.2016109975097044 -0.3772780214601374 0.5598731399889713
Ni 7.738288539397387 6.518424545481061 2.239493171848385 -0.9543287016696596 0.9726231291034733 -0.25690977008200916
P 8.876586050325118 1.7605916441161245 3.6946092540449307 -0.49947304163435924 0.1489427205817112 0.09982847955356355
P 1.9383575281439458 3.54543523807407 1.5773422761484126 1.4413303503098853 -2.522597500376023 -1.2337543934659978
P 4.839426633735378 1.0951344900856563 7.971951988716058 0.4598178891365823 0.8641120341742472 0.06325016620889753
P 9.0460862885267 2.1398576237585383 12.434745841407954 -2.5116152903329065 -0.9749497203541208 -0.5956179016887484
P 6.654435293395455 8.286200943276917 1.16835902897885 -0.852088784461126 -1.5435491844724964 0.021643032191072404
P 1.87817272677619 3.4024849809165483 5.721118532456621 1.3000960541160256 -0.9474528004854328 0.8706308091293716
P 7.162263856581366 4.284720050649228 5.990429623104584 -0.1935901840877569 -0.38774189710593865 -0.23223849258757423
P 2.722621987017493 8.83069809129857 10.016912731887551 -0.6931401017066385 -0.2965590090425151 1.3566970904395215
