# total energy = -340888.9144629432 ev
CRYSTAL
PRIMVEC
9.09652901357465 0.00000000000000 0.00000000000000
0.00000000000000 9.09652901357465 0.00000000000000
0.00000000000000 0.00000000000000 13.31368970261244
PRIMCOORD
 96 1
Ni 6.47629217377181 2.4472301604850557 11.464831528930745 0.06830726901683075 -0.36482925417382334 1.3017970959675322
Ni 4.8394808983429165 0.4472408654584609 5.688021518069172 0.3339541618615216 -0.21038462993727639 1.2117303237864228
Ni 2.959328369654575 1.7771616248191975 4.932762166918832 -0.7144216367932342 0.25238642829035884 0.34735449442782756
Ni 3.3304303758589184 4.736262581243183 5.084165708968683 1.4538554793600897 -0.772112049526167 -0.9732391654209175
Ni 3.5839870314364233 2.929728263561112 2.7536176384871505 -0.9572034521142935 0.1979939695824074 -0.33372224835637365
Ni 4.810935989639386 4.792206235968076 2.9246978829004835 1.319493484806031 0.18435606708399863 -0.34654485404233865
Ni 5.547354609461889 3.070833624876971 0.5011368914551302 -0.5910567646806273 -0.005105953767997658 0.18673793705261388
Ni 5.912443809849459 8.110701965485685 12.752544392694164 -1.13570074642467 0.2624844359563092 -0.22716133517498296
Ni 2.501218061426883 5.45260516106929 11.67108714219866 -0.07035823800858851 0.7467517163845074 -0.6296459378077349
Ni 0.6572014950791331 8.218614091664774 11.881443470840557 1.5784812204629912 -1.040676373127969 -0.8609973998046656
Ni 0.8770173044606097 0.1599024293034227 5.0605201909049615 0.10033010178033044 -1.2027803136819868 0.4752779324453944
Ni 8.787410967484742 2.8105000550279144 2.0173836782078856 -0.31286751639455146 -0.15677867168636225 -0.19491944442214174
Ni 1.6239123969898865 1.1913269497635024 2.8537631480151644 -0.7912086611463018 1.9052458065546092 -0.01664197943205521
Ni 1.9059411890371327 6.679981656145761 0.423833676460397 0.4270779757014 0.45601908421578236 -0.26837663307102816
Ni 7.839352498746897 4.407659559571312 3.9235577383931415 -1.4845724488279721 -1.8820647404524553 0.22854253179322576
Ni 7.766734905955221 4.358883969874584 -0.02135137339353944 -0.2797578783247762 -0.8965254175079462 -1.3616570055479582
Ni 8.531552890013677 0.11704777047831036 7.172790675096722 -0.6893279270493999 -0.4188260201052529 0.01865258210418078
Ni 7.216531335868209 1.0090597937110357 0.6155812352696577 -0.7954309267577656 0.7533712785835541 -0.6903350281576757
Ni 1.8226988501123376 7.014206332877793 9.72759457087375 0.3417644019345598 -0.040047759950505225 -0.5144810850074173
Ni 0.12009965603281465 5.36102130484649 1.6837020642704998 0.08389098238770068 -0.24092650727987538 0.21697359600870378
Ni 6.742201916034908 2.000445031140695 6.855937640222921 0.1011795942648193 0.6469319785816923 1.4231621640412908
Ni 3.4846620288443746 4.588698684178598 0.3440998688571288 -0.06079527691050175 0.15225790099787326 1.2726227883964212
Ni 5.839289521833591 5.884317341490212 4.750736978543712 0.5671390775227653 0.5658375851025222 1.7904967011354713
Ni 5.389584406608469 3.1819386328135297 9.31224704652601 -0.1414016750096597 0.7845741865489197 -0.2844213452387166
P -0.04794780553738343 6.062500155921301 12.704921333250061 2.0656201660120295 -0.24834028324544327 0.22322857577948005
P 4.144551548309069 6.730185400930587 12.749255997379846 -1.055392596292221 -1.9220705914214313 1.4192052362760719
P 2.473419068119684 8.894577178267498 1.4127419289824807 1.0839732361433911 -1.2215244270587091 0.6640043606829468
P 6.331639166058762 7.887054697995245 6.001412413920486 0.3068295377305877 -0.5186388159295325 -0.7840293697890433
P 5.056041969568203 1.2269307651445154 12.729152667795779 -0.004881239351701271 0.9325054351469811 1.136647169498339
P 3.9347128121799932 6.762332535206647 8.377719665008213 -0.09705091680842641 -1.277495285997374 0.6696420185846983
P 4.755283423849646 1.4648777765743914 3.6969450023758212 0.013257893451170715 -2.42666809876655 -1.097247327544478
P 0.22356812768619502 5.831930429691732 3.9198436255111617 1.0911481566252756 2.7732990847647914 -0.4295652608996279
Ni 0.7302011420981999 7.76111325089506 2.330641764732535 0.8974139907604868 -1.365925551016325 1.0259112990036525
Ni 1.893806419052904 6.966085693285161 5.02754254351079 -0.8317644710814772 -1.0980194298238122 0.22779382655265928
Ni 6.029234148550743 6.04343383066872 9.271107993112462 0.2649331546071179 0.3992650672541898 1.3674219330561934
Ni 8.53792955699939 2.7409934752306944 10.371271346303294 0.9591253517273547 -0.07552178448739898 -0.5135344048234317
Ni 2.5993423221614216 5.315183894088973 7.2370685698962385 -0.2026072999847027 1.0148157033111234 0.7970178116289112
Ni 0.5878977678835983 0.3497751934397077 9.208000821624017 1.25890800991349 0.2850463804172252 1.4275636355430963
Ni 1.6142700760129132 1.4917580204300103 11.671366405645822 -0.2606640949181188 0.17190884245958135 -1.0617895009575002
Ni 4.044971842898761 7.15487506079092 1.840245145331662 0.4063422858159454 0.32546206523011045 -0.8805364982788577
Ni 5.759058134081795 8.257501754095491 8.104442643726953 -0.21022573576190892 0.40893472913346995 -0.12754702851475452
Ni 7.394268420367342 0.5566884857704871 5.165565091072785 -1.3122748555704047 1.673921084030556 -1.102036264292689
Ni 1.286194653036007 7.677616209152005 7.318215978140849 -0.1251607876707651 -0.13412648150448517 0.21175502792224177
Ni 5.206252956636845 5.066493881646073 7.4083762275401615 0.11554511895787198 -0.794740071338328 -1.8648319215139366
Ni 8.221634139366996 7.6876223912979205 9.435958024660579 0.7706138677140858 -0.40769082942403984 -0.6000083174469603
Ni 4.913635804573375 0.58962428913023 10.726853763999321 -0.15547949325896449 -0.1330638445679257 -0.8601149971997122
Ni 8.116705674773234 7.630032264783564 4.683277117821794 1.2427694524804145 -2.0139337933813315 0.008964151171823271
Ni 7.564819246779864 6.692935113760109 7.30568732844124 0.39285967794847826 -0.48201833649302145 -0.3553699085331363
Ni 2.5215579007707625 5.454324405092543 2.794423758931117 -1.783777894354399 -0.18462783268814656 -0.8621255998718378
Ni 3.620109348983179 4.771820913978079 9.425946384597129 -0.0805053537449194 0.4252149543507322 0.41964620201370306
Ni 1.0906010816710254 3.8501787661054525 4.067172832121781 0.8769333543086316 -1.5281865859734969 0.1188412732106405
Ni 0.8077090290004632 0.6765962050366847 0.5874229290581284 -1.4938415328347239 0.670079363232433 -0.8383264405697112
Ni 1.1708870485981637 3.809280770716328 8.535739112762359 -0.3385037289054171 -0.7372368349155368 -0.3162143213795974
Ni 5.460164376854069 2.827801653611125 5.057711182680727 -1.3205982878344353 0.9202155620360346 -0.30110883319672654
Ni 4.134236084169552 7.029215606096666 6.156103441631731 0.34238712312022324 1.3437397589479052 0.7614548269226371
Ni 8.32004948903669 7.890001973463678 0.37566300595703633 -0.22800182879840733 -0.6773219037274593 0.6867074587074173
P 0.34965148064226725 5.873174093191351 8.392550646254305 -0.3126276324696035 0.9907866873863775 -0.6558405939252318
P 8.781498223489427 2.053841657682991 8.130497832381995 -0.7031352652461375 -0.08830196697120278 1.2906120258849902
P 2.0544875112578636 3.609057065976554 10.565038334600185 -0.4952353494039277 -0.29690405108675966 0.034630702699991966
P 3.8777503461820615 6.565228939990553 4.048506754155036 0.5368815641898044 0.17415341551938396 -1.1761971638768196
P 6.776595893029188 4.312509863892876 10.443671532046528 1.9540072922290284 1.0692570129791392 -0.12957460046774458
P 6.302721299657067 8.032826578802789 10.289525386435773 0.21587187830409274 0.8546444610034443 0.2590335012932313
P 2.6976303204219847 8.988153174390257 6.125389010708382 0.23356878136322354 -0.46321225953011186 0.3183377954805034
P 6.7919053517124395 4.11789871768404 1.9378872900173523 0.8265942397344475 -0.42062219277372714 1.062583971834338
Ni 3.0329647737192915 2.123739388236824 0.5054622911009328 -0.21492931188516531 -0.6268503773404688 0.040430340100904565
Ni 1.8080261484747355 1.589045400475982 7.408309822876829 0.17962857970134224 -0.24963071992209265 -0.6384607078858876
Ni 7.005400892589386 1.0677051176153254 9.241990912720771 0.4877984335099083 -0.31737646000849856 0.3360179863690858
Ni 3.167775336812447 1.8913230665748721 9.565899215660364 -0.7920933777441004 1.0173688087502801 -0.4294778433921443
Ni 6.751052838969432 1.88037994191893 2.96787455886011 -0.8002139499687058 1.2125836729256536 0.22722869807780866
Ni 4.159269732592789 7.295179927535106 10.686086758631017 -0.018539196454768075 0.08956720683687155 -0.6688562894586093
Ni 7.472398509868497 6.645060080456514 11.406503673896356 -0.37735875409940167 -1.4433481520708626 0.8119471792452339
Ni 7.631433130283992 4.240137877390235 8.026637300319079 0.04345241475668 -0.22418605459674293 0.09264198910745335
Ni 3.159588460511243 8.961191061771627 12.649084107917085 0.8705423631806234 -0.908705761624222 -0.15123794437379112
Ni 0.1305288267876259 5.072461204816728 10.417163336236154 -0.1692287245242569 0.427761889142302 0.958871840955652
Ni 9.086477558767715 2.816148999675745 6.135400650771832 -0.7804285398116624 0.39310804651385844 -0.0751209495045545
Ni 3.8721923668264666 3.002027477829965 11.639213813452228 0.4615955498622954 -0.0814188666981243 0.23540891989575585
Ni 1.2294868898563356 3.5792022570648308 12.710726738200536 -0.6877166166982221 1.1531611079929625 0.5442202639430628
Ni 3.423133105176216 8.941051346070665 8.417247723096269 -0.2694374702353747 -0.9391563648045955 -1.1844308646405215
Ni 5.781308244562622 8.321386678832551 3.670344931620288 -0.5380434457083895 0.5558563055200942 -0.3052215698135195
Ni 2.8917320609943027 8.452776946937648 3.562277254791476 1.2981386732793385 1.034795745977476 0.1269819000399039
Ni 4.013716168486609 2.9210410781526126 7.141383088646537 -0.018458206705187566 0.18260823115495647 -0.1034647907545702
Ni 5.3907396658198605 4.910033579000845 11.963095736457074 -0.3677047759494054 0.37124107123743805 -0.6346472476770684
Ni 8.31591056823997 0.27489620348305327 2.588154500869366 -0.12024380998512195 -0.22454652325995522 0.765001920843947
Ni 4.7006314762745 0.5398817383770381 1.5509254851117322 0.3023905281226276 -0.06738038632718718 0.2848324646342062
Ni 5.7704924713158094 5.656876821313548 0.867177588799485 -0.13489189891559994 1.5139488451075604 -0.6785426635084378
Ni 7.79872739923448 0.199087548239751 11.596809432823683 -0.5269046554827507 0.9202348453097442 -0.798224944563135
Ni 0.3397872043522391 5.302330498296083 6.202089125815593 -0.37122847283194776 -0.103280442657906 -0.3313568334479906
Ni 7.07141440516476 6.406112450812047 2.8481978914361905 0.8159156769746787 -0.03520174471211357 -1.3639231758743156
P 8.956451770046153 1.740820990571076 4.28654200191838 -0.788429555739268 1.6804519431705383 -3.115138820021977
P 1.6739524042486884 3.5001079354659788 1.6950590810061141 1.2794408397595192 0.4988657470676634 -0.04436104261387844
P 5.072897838219459 1.402484682629995 8.308154867423962 -0.4380329320510069 -1.3771664140374669 -0.8654307529856708
P 8.626584330812205 2.1840402804598016 12.575858866973274 -0.5618870850952065 -0.6899622181992892 0.09387251908044478
P 6.486452996914526 8.053311962614247 1.5481292120284103 -0.18584293604217025 0.02943630298324608 0.9211211045694395
P 2.08046719872035 3.4680153803652596 6.197083305783868 -0.5947236720092532 -0.23300005334394713 0.5094311812883355
P 6.797808999178529 4.171722881099842 5.833140268078465 1.20656626308698 0.8361813692022503 2.3953217232447845
P 2.5840419600073945 9.011121910679746 10.420198848038055 -1.3843588180208481 0.009828813164963719 1.098357015668889
