# total energy = -340864.31467518123 ev
CRYSTAL
PRIMVEC
9.29837802513700 0.00000000000000 0.00000000000000

0.00000000000000 9.29837802513700 0.00000000000000

0.00000000000000 0.00000000000000 13.60911613424226

PRIMCOORD
 96 1
Ni 5.331494707206723 2.921113359144848 5.142884547190534 -0.4021758131430816 0.5033728909093976 1.433669234220202
Ni 1.6667063701019456 3.9935882832861638 7.455033180356528 -0.09185060355440956 -1.5081366093011577 0.43037541550574915
Ni 3.6714645725437705 2.2281889285749243 8.19244291118722 -0.1749805394063696 0.4898031226447629 -2.4605256707459433
Ni 6.904278160638377 6.116984491251823 9.01384861028337 0.7450925835145297 -0.11477044557537654 -0.08190069143054926
Ni 3.701303067702167 -0.3464770926898398 0.34130719449474206 1.8550861549810826 0.05694762102963741 -0.9255143485411287
Ni 0.45513514905396474 9.437667751906993 1.6570732504434544 0.3487945693084638 -1.7091662803860952 0.352374059129606
Ni 1.7174383207358543 5.40153009066981 12.833437274981325 -0.473969498046616 -0.31030181254990424 1.2156952219714419
Ni 5.206989425134136 7.68620666589081 4.585292430093147 -0.1007749026272329 1.9032290332348965 -0.29574962576734226
Ni 7.5422863704524605 4.143301468248876 4.5681443612956665 -0.9692290158202599 1.2784535361455853 -0.5926115107622568
Ni 7.170927747942007 6.575915238225282 5.40929702585392 1.0130023042514682 0.5979198103490476 0.2535989605412213
Ni 9.326645118005073 2.210605695684763 0.7608137483793616 -0.7951342214529532 -1.5142208678220244 -1.4523441849218859
Ni 3.3422461993501913 3.347323113764802 3.89393570606224 0.5340793188543189 1.4328971319408679 -0.5426369786163429
Ni 2.0467961696001646 6.918383800138312 1.5168044280648434 -1.531724938144059 0.04180896561598606 -0.9365140420857421
Ni 6.734034156944053 6.273346016519383 12.257649161880364 0.7339509650754134 -0.876765975492832 -0.21284568988325925
Ni 6.248333379568281 3.856167554103881 9.349666972215942 2.5888969949342058 0.7247322746906227 0.9404961666619416
Ni 2.551372654414873 2.0565780633074358 5.822143151542229 -0.9674189591947145 0.502775880755347 2.5106446988895215
Ni 1.1732879389457211 7.932911232279898 6.237329678985406 -0.7183682801458079 -2.240004466595297 0.04261372090546854
Ni 3.743964026189772 1.022272981056185 4.250018023276425 0.9302662614038173 -1.0099815151472735 -0.9049213548811254
Ni 6.76968413838291 8.975556959640866 11.88205140881749 -0.2094412921874006 -1.5654927786231232 -0.47121147568550464
Ni 3.810596203287021 8.067161214547562 2.416951581991113 -0.09137932034494585 0.6021402761882985 1.4730996723016823
Ni 7.440599308111474 1.5260684021147999 10.74295453579478 -0.3893092415930586 -0.3912044017332424 -0.6382015406872299
Ni 0.35725856203735024 0.4492743813698459 5.148451486128312 -0.20673597744109554 2.405969432766618 -0.7764299601752306
Ni 5.132648892634484 4.198840680333983 2.4698230894140356 1.5664793109061084 0.34949185248580455 2.411156890504828
Ni 5.523394633376556 0.6346208106909285 6.771447110860951 0.0732278462468997 0.4021063933577268 -0.04789425257811751
P 2.96924176392511 7.248606398161154 4.868919925875964 0.37095773566906437 -0.9779653672519933 -1.7349598444104315
P 2.3702588467815757 1.843170988710875 9.863261024062316 -0.5910665348726402 -0.17539885789071083 1.0025826515800411
P 4.726988553502239 2.012494452978374 12.35971745772135 0.6744234991337418 -3.428247248782741 -1.700036550170685
P 1.7995058053940063 3.223412927887334 13.26298235780736 -1.5675946554574745 0.8916565194514193 1.1569388298678398
P 8.95190188588488 9.100062241713454 10.64114473486355 -0.8211185613318569 -0.566742613415295 0.19239719222092028
P 6.08851285766659 5.871237657801755 3.602279060834339 0.17803963794766758 -0.10311126406989339 -0.3875986866598551
P 2.7805497781820923 7.409737991367716 9.307655970353943 0.34934349983339835 -1.0498269292789857 0.1377774479935111
P 5.125535633427201 5.064649853964071 11.216388892848657 -0.1425951810971286 0.8414945538850477 -1.7007947684929483
Ni 3.209474659192277 4.078017555968695 1.3203668934072272 -1.7187703791347626 -0.35273761311661184 -0.4564641421730009
Ni 6.962913732613712 1.3373950131278791 13.575446913432724 0.31600940445764286 0.4194369142163744 -0.228846950407522
Ni 6.330912275019113 8.539388642130715 2.3487702951109446 -1.3832504154480176 0.6316439420743701 0.060397527251450825
Ni 1.9256847955153664 8.984715862018872 11.264129555264288 -2.3851717792949763 2.108569415880046 -1.0959646041773126
Ni 8.311708557229343 8.335038187753623 3.432817980571718 -1.6461315726221135 0.4896532273304599 0.15239648345826656
Ni 0.35929211731660904 2.429247757122763 11.565639691710436 1.9486334295116245 -0.8063282903965598 0.6556238499287353
Ni 6.387502203823726 4.958862206903591 7.135695263677537 -0.3521550011402645 -2.098473207986309 -0.13228454319973992
Ni 1.0607031775316147 7.9015571014995585 3.707653859909455 2.725042306640933 -1.3897159685677034 0.33023737513156676
Ni 9.042068257823482 0.4527668521649515 12.753755754130479 0.7078141587790455 -1.3276824483747263 -0.3276770706035582
Ni 8.698409503520214 3.9926305503471435 8.775757131480827 0.08346803591766916 0.3492812791368952 1.6724588976627326
Ni 2.9334987987057657 7.168668242076162 11.464060490554814 1.3348712528136817 -3.3154696652676767 0.6641030910443401
Ni 8.936550263726415 5.297741594889808 2.8581187075402648 -0.8514169552050821 0.8508019473289025 -1.1734892780273534
Ni 3.386004366447547 8.85905758106824 6.048979873554581 0.3372767984768514 1.359291333529259 1.6476050718438462
Ni 3.7427738337995344 9.187522785639873 8.57770353871834 0.5431139182527615 -0.12605038936457003 0.4246896779748815
Ni 3.781548070262767 3.9144218925792176 12.454627862140416 -0.1282671945102307 0.4082477303687743 0.23623707222400606
Ni 5.242685898463237 7.116076615832506 10.2676698015092 -0.42606110440111145 1.0779213735223565 0.96410660699203
Ni 0.9320694156053883 3.418530092862029 2.2082969084152615 2.170268949772372 1.4026604445435134 1.2796753243678283
Ni 7.58926177635468 7.9737776038040975 0.276127424048706 1.284149558089098 0.15353676771029687 0.375955703104288
Ni 5.68179250343679 7.271889536795191 7.278100853331748 -0.35910160766142674 1.2505601521694272 0.14239334949896768
Ni 6.294109294702212 3.352632487630631 12.330090965582464 -0.14662204286833458 1.529955762058778 0.3915198760911322
Ni 7.145636159649442 8.557697148508678 9.089515091492771 0.6068765053217032 -0.21884587333075214 1.4367337320781384
Ni 1.903777816832542 5.206803457573161 3.5310897486554045 -1.5202328783440593 1.5735305613259352 -0.2595382088437917
Ni 7.8734759997923724 0.05344335767292029 7.006095400272047 1.142008690920569 0.38745650465503595 -0.8525184157993768
Ni 8.695647885239739 4.993480068379039 6.643044878548138 0.8067800332219975 0.5610008258355113 -0.4993642839706368
P 7.953246785072486 3.507032055129907 11.044696201854341 0.7444405517528276 2.2476355007779936 -1.3645088731744563
P 4.585569521758999 0.7281355285648805 2.351941042025564 -0.10382885896220827 -1.9057631125106598 0.7331179276511568
P 5.2899309573288695 7.664699517464082 -0.646845388311603 -0.09678866428597524 0.5842099169621229 -0.11906547340630463
P 1.7301863970406726 8.707531212386025 13.486729228794117 -2.145666320732343 -0.44975767668710287 0.3310552430471718
P 1.7024121418090954 2.0480700473928417 3.8010802431919437 -1.387333841488772 -1.4926169163990035 -0.6937533098106052
P -0.028381439318159684 6.1211501646176565 4.832924044773694 0.8819148666836232 0.0774061459943054 -0.40462350335262576
P 6.963694796369806 9.183022370664284 4.971110960307192 -0.0493816357569214 0.08951707032522647 0.42520055617302904
P 3.8809663283598623 4.1021654437612645 6.490922483832997 -0.8983051351161884 -2.5749937545895527 1.0033624671688592
Ni 6.28433669937299 6.396121800274905 1.3028673459195044 -0.5203059192193104 -1.0880000979145972 1.0287425978048605
Ni 0.8555967650191614 3.7948540492505094 4.835073829778562 -1.4836609927572966 -1.035759652552642 1.490732554892097
Ni 4.856412677562608 5.6242820352053515 5.568619154692198 -0.5555611428771787 0.3490323963508828 -1.4245772992212629
Ni 9.113749454201194 2.503393023683391 7.029054025512183 0.8223740310055128 -0.9982822244324743 -0.05789044455888095
Ni 4.527612731381222 2.910448119522947 10.105707863142888 -1.7346181448002966 -1.252219799260037 2.848097875043237
Ni 3.76606627081162 6.037622834605854 0.04312401771443206 1.6343350942078176 1.4924683066362812 0.26312952573947584
Ni 2.7191060960360387 1.4646898086150875 12.50955431111211 -0.5486181359004422 0.3372834833450707 0.052710185909522124
Ni 7.414684728489645 3.742039261933684 1.636904138617939 -0.23759178647968762 0.30264635288717556 -0.0005556153931538818
Ni 9.457845232272753 1.5731181950414086 9.272095253344355 0.5356132390003421 0.20864245043518906 -0.30538766307773857
Ni 2.3644659572572126 5.629070699900451 6.177191489117394 0.10628657647408148 1.0795334552044826 -1.4181976209471638
Ni 8.843482797836607 6.708407827041734 10.007613694079932 -0.1760272355033291 0.9174822222652715 -1.639866822659324
Ni 2.6017977585731735 1.4195089896762747 1.6865779338299014 -0.8956764392440898 0.5931465573301204 0.37987355010145546
Ni 0.3988595054273992 4.829391590952978 11.122921596702755 -0.26107392876202784 0.05730037638336583 -1.117067704704515
Ni 4.530439438308038 5.411070226547814 8.959629767881184 -1.449647611926329 -0.5331385522076044 -0.7383928028968509
Ni 7.5430395390744085 2.076318519904904 5.476852531891407 -1.1709163750938545 -1.589470372484643 -0.18193434501638342
Ni 3.7858532192993324 5.900685621082104 2.9873643027420984 1.9073199154748184 0.9734893337585104 0.496195656434668
Ni 8.45130510687503 2.3262682202330014 3.2572190409591264 1.0401870921963763 -0.1585362778074173 0.8635826440333386
Ni 4.370544529381958 9.118528820518245 11.36750427322112 0.531190170231982 1.4417671807369878 0.05095592222257676
Ni 5.960464893557434 2.219290380782283 2.9412703830789 1.6142097842128522 -1.5657581164693681 1.3150187368641288
Ni 0.1706959048674928 7.150787461088442 12.043183002024053 0.4782115611524216 0.8079948794657053 2.2793500582724553
Ni 1.0582391073486994 6.273355314897432 8.057862836498826 -0.3464813477942549 0.16416647951000113 1.2356852919401236
Ni 8.512739490643035 3.935575702640094 13.261648040557366 0.419930051802709 1.4159450774675615 -1.874128002103882
Ni 4.901416827318495 2.023280571514909 0.8654093433739933 -0.45579231291695693 2.4437124558433463 -1.2774742029514514
Ni 0.9459518940321525 8.685531249922713 8.859140336632876 -0.024677962362654272 -1.9344967329999263 0.7154338801078324
P 7.684876997829841 0.928949809770037 1.9303711780519297 0.04420086288693033 -1.1117810023842787 -0.5453872876679704
P 8.188170306473824 7.2806672056732 7.478849116052758 0.11926421968067204 -1.4529532792607944 0.6567116836762754
P 1.9176416985032088 4.1798719891145595 9.561860608477142 -0.6141689252180584 0.3309305445438494 0.36472743848863637
P 5.787756819680195 0.8612566877374275 9.390970367508432 -1.971742247614946 0.22106190714546445 -0.4142499706987962
P 6.845075387602069 2.757341026572445 7.699330396668798 1.3580752017339708 -0.7264410298516134 -2.2772818628895166
P 5.480928940827974 4.547408978246983 0.5268795744024091 -0.2974031022103652 -0.4906916958973033 -2.0471344485030163
P 8.825760089275715 5.885891901606564 0.49193998904647523 -0.021840750024175286 1.0205148105784296 0.09939499156057076
P 1.3400078573595742 0.5078969356159126 7.205142059810138 0.4036511121370274 2.803067574276476 -1.8303161471252543
