# total energy = -340856.6845143002 ev
CRYSTAL
PRIMVEC
9.35337446822965 0.00000000000000 0.00000000000000
0.00000000000000 9.35337446822965 0.00000000000000
0.00000000000000 0.00000000000000 13.68960898783482
PRIMCOORD
 96 1
Ni 7.523788875758348 5.94544436302798 3.1308409753681072 -0.8015959179178969 0.2566817132316031 -0.10464698398812945
Ni 9.572523939314944 3.63722798748671 10.077304041715466 -2.0725999397639723 0.053592588514475445 0.28821835038730365
Ni 0.693487236481858 1.5911212221302327 0.43653320625402386 0.67264840951119 -0.6100608165869558 0.16497843388833522
Ni 8.51161745053037 3.030783252963232 7.612120272705968 0.09869050929437843 0.9483066638452958 -0.7735379833394161
Ni 8.931350125727263 1.296031613889857 2.665202874063161 0.22178155892030837 -0.1104669331040162 0.23031402187135172
Ni 9.367310905469376 4.761999316521857 4.196426022016381 -0.24014206370536711 -1.758318830851346 0.7657729946820168
Ni 2.720737599093 4.106093938289383 2.591045580647427 0.4366748753612157 2.6618145090295386 0.13192793119126955
Ni 5.890858070160035 1.206669475085821 10.485515230353975 -2.211709733415662 3.256461047943953 -1.10925592196958
Ni 5.199017027568643 7.676314351734632 1.0802838744827454 -0.7797150586844056 -0.06327124925482006 -0.013247094817893315
Ni 3.175966330053064 2.3310666691458617 7.445285069269321 -0.4833524819234127 -0.12105113637776573 -0.9949469894116542
Ni 3.183589330170846 0.00045925068194245213 6.839396860521314 -2.479140971854285 1.2021925594993166 -0.9037723288783467
Ni 6.613237880094443 5.655237216212738 0.7976576376005846 -1.0359069767637836 -0.3481245398246327 0.9251443667962197
Ni 4.907996137182544 5.19374172441965 8.657664779412695 0.04625697408501066 2.6057834862769 1.1009628287228523
Ni 1.2683456257320231 3.647965661272248 6.118967229144644 -2.111166487183261 -0.019644770814121006 0.4976496152723752
Ni 2.415275098667814 6.102291097966738 6.359192749298058 -2.1774603253144886 0.13683488157458368 -0.8120106854933178
Ni 7.955531283656141 1.9165251167285606 9.65461008819061 -0.20761400917067468 -0.9222153660748826 -0.4511386161950295
Ni 4.940761007627439 9.049221349634367 11.903976902822603 -0.5993729978558064 -1.4157391321043424 -0.40773453817778166
Ni 5.2286111040995165 5.421122255540241 5.13306919084417 -0.20065891800908023 -1.7905694633549356 -1.0883330557739836
Ni 3.8967560663432725 6.780756815198095 3.980226514626829 -2.1705648837462364 -0.14670868904486992 -0.8800163641093296
Ni 7.6806636708202385 3.320101829212599 3.1543048503318722 -0.6066718455100648 -0.1470401042423597 0.35945719122863257
Ni 3.919877607804815 3.2323391174271405 9.565942905102832 1.6677308960594437 -2.969994133030117 -0.12636252128835013
Ni 7.5720148740494935 4.971505549206765 9.177992996041182 -0.07054747120125915 0.14647034778181872 -0.025449036200723914
Ni 1.3478306011932646 0.02259868783383215 4.621954047977666 -2.7325882373089905 1.2377848547816295 0.28788307853507195
Ni 1.8705065147905389 8.155815089204689 11.475273406260108 0.5157147003042022 -0.6200418390590677 -0.7541521226136367
P 5.954620023292452 3.4862364649083593 9.699389368023592 2.4053081450335347 -0.25360564540944064 0.5625023500817022
P 8.115165324159436 6.788707183419095 10.238787244333224 0.3973182279404641 1.3983800720006045 0.06523737184225538
P 4.948898443335993 2.6813973064606182 5.38560188100369 0.5048361057184854 0.5613234992822526 0.8812409805450501
P 2.1812817318622275 7.670786507477443 7.776095214257929 -1.4221226670331832 0.35816238367660896 1.438373838784723
P 0.5239797739855182 4.778227421067073 8.414934425600949 0.746736803986172 -0.08222747864234871 -1.476524381712515
P 5.989274275361634 2.1298755862826813 2.265575277091017 0.29596714109478706 0.35765844745699693 -0.6361446581582012
P 8.07278518485432 0.4694991742480396 8.03912706715636 -0.06084284231898554 0.3799571109541972 0.2873058658753633
P 5.278193341675421 5.725920666384613 2.791831662400055 2.7234975878616323 0.05305162840934089 0.2042908583347127
Ni 0.7751225527125204 1.8498355574159397 8.80470450131649 2.0308426533215282 -1.8828885219053315 -0.3765537416996031
Ni 7.019576523182548 8.525535271604307 13.143776965291485 -0.26957913801956157 -0.547084215754419 0.5352404290419557
Ni 6.857267417607246 0.8989799362213179 4.337771409599065 -0.8325090625569855 0.3510561116491309 -2.3833871765907277
Ni 2.2851603077003717 4.2079334785132 10.374875100178233 -0.7814392404643639 2.0369839903325753 1.7770035517450429
Ni 0.1855456935416905 8.676667094798322 6.803831589787749 2.581573978910231 0.3284607428471182 0.05919296542038839
Ni 6.101982436612276 3.9960140752388593 7.381628809267371 1.3806523157035384 -1.2464695270398212 -2.3159571679725275
Ni 0.390697930453804 8.403960111443656 2.568074628513364 -0.1762745756274448 -0.14011586631870065 -0.7323969903247323
Ni 7.631100139993088 3.296774513514748 11.401855964757646 -0.5678633572832994 0.18048115750962465 1.4919214329938757
Ni 4.79394109002152 3.554936999712175 0.42398752520128635 0.3470084239423185 -1.7604713584179743 1.5915797055181622
Ni 8.985768057856413 6.310740399346972 7.190371009993252 0.797795056114568 0.16230628637281078 0.8097046630679603
Ni 0.8075329302685039 3.5094328333649236 12.24512252649851 0.58903099249985 -0.322991749312747 1.9370562661969868
Ni 3.044102458077001 5.773258094109883 12.287847805318163 0.43369573812823375 -1.800627876032202 -0.4663168665973647
Ni 7.1661438996802715 5.982773680169169 12.224642377961215 -1.5716621406586286 0.15267236282747254 -0.28077397829411643
Ni 0.4461765352373776 6.0067183185759445 2.2643294076239147 0.49989393122186165 2.038212206312722 0.3011306875735975
Ni 2.445065596060619 7.0035728996223945 1.374505489580875 -3.9353387261943067 0.9559117298860633 3.829528575136011
Ni 9.23482035741001 5.814319407627751 11.94092553762662 3.0185296187366593 -1.5723316559218277 -1.3930074948347815
Ni 2.81831200060061 4.505679445076827 7.970747353093697 -2.092938394211008 1.1599328794991572 1.221124363406813
Ni 3.9465347247811082 5.568372428367533 1.279609894495023 1.270258659039619 -1.3513430252164598 -2.116603341928116
Ni 4.230577997881483 7.359973876908244 6.7112079293382285 -0.5202035893134912 -0.45056911684480466 -0.30331663948132276
Ni 6.6337685368533785 1.8151532452236256 6.553708328867911 0.7361073492967839 0.7985851561160311 -0.2008682058064089
Ni 0.3320373077069551 6.9810406207466436 4.499897189036566 0.038283983181863095 1.0644212821533927 1.1265676737751502
Ni 5.487727634483463 4.2591619099795714 12.149404769804862 -0.15449218964503073 0.5238509562580914 -1.6563280535391411
Ni 0.4126980023274668 3.962538348341262 1.737704499364398 1.0245992650604483 -3.681131442645125 0.09662154258049166
Ni 7.138841399871922 8.209035789413498 1.9845690446510647 0.06660082784868529 -0.9109289945277861 2.687034974159224
P 1.3489155926210716 6.84424752047356 13.046881618763692 -0.06875464096689449 0.9380556755412489 1.0918315558455454
P 2.6194499079574642 3.90694189104053 0.33248065765245555 -0.2994502145473811 -0.7543328711658751 -0.2834250427637183
P 6.833790447919352 1.2608909863530389 12.573084568989124 -0.42260425620076253 0.5460560316002209 -0.3457683808876303
P 2.2520306556547474 1.3606634308393957 10.76631568855762 -1.1436901923880496 1.0668782283343174 1.5560493738220362
P 4.423220096563494 1.1319921340546897 8.646452889546211 0.39040530287071473 -0.399331401715751 0.8988723204735681
P 1.3488033521285399 1.515845265138932 6.438264305611806 0.10320870887970612 -0.7523045278819366 0.09726688947397441
P 5.156664948386658 6.3491734146647225 12.762028343442214 -0.8028261907805722 1.0754826821738768 0.6074984551764182
P 8.525320143993621 4.72076964226519 0.3423540796454994 -1.0594827072011945 -0.08534725521825301 -1.9376913286778241
Ni 6.941307486390401 7.877075179376441 8.401641409935436 1.2305626260015774 -0.5793140223224023 -0.2287932143514511
Ni 8.870927327247667 1.6949156175989777 5.108031142972647 1.8759146616906597 -0.8793509626111887 0.5306867482330022
Ni 0.15780358513759046 0.20573682281071645 11.836309915887517 -0.43307815914889286 1.3306477016506373 0.1989203380514187
Ni 4.662984495360089 8.254147114036888 8.908335212733627 1.2732305971837492 -1.6917020621630607 0.599086062743007
Ni 5.103229120567162 0.24238427895977388 2.7415628871448305 -0.8532151847560854 0.14498425015459548 -0.4554454711004995
Ni 7.954549179346488 2.345985301278208 0.7572940858112881 -2.000080175327691 0.7767078964269656 -0.6184446697752768
Ni 3.348601560941289 7.841644597233915 13.444400965151114 1.7141861021981897 1.6239131275435452 -3.7945484595164007
Ni 8.739344056502933 6.907700812251516 0.3244835225595677 0.1318158310934375 1.1001395614906084 0.9189914598209464
Ni 1.1332361328469167 6.560026533260012 9.755790215520802 1.2025124047325806 -1.8413037564850094 -0.32641337339978627
Ni 3.677204309576772 2.700917798786767 12.036287866093916 -1.07839599916593 -0.3723690141942942 0.39132627202308734
Ni 7.1407027213730725 8.878793515099268 10.847646084783573 2.4673084979957314 -1.0728444732200813 -0.644892065333528
Ni 1.4748400718673287 2.6829406132329296 3.5999697559907924 -1.5170603941533485 -1.5598602629276943 1.420252960814296
Ni 4.608622683477207 0.9923743147195577 13.76202659361699 1.6445997093586193 0.7914639716902176 0.7647172997239927
Ni 3.2147828337202977 2.0695650282956155 1.891356121615751 0.38162267158207824 -1.0465323176881136 -0.6384473381494489
Ni 2.8953370386005304 9.146692864023823 9.562945148614798 -3.0085755928477407 0.18004664107536733 -0.5759240228042468
Ni 5.325727190262622 8.42309711542032 4.851980648709693 0.7016496818395465 0.2691680186240719 -0.2129577899810913
Ni 3.415562368110862 1.4565261648358967 4.556600150526173 0.17032247180906795 0.5251673610766697 0.0944175929506374
Ni 0.16645171508716258 8.490778132416972 9.264361119706932 -0.9171325522353366 1.4062345350480168 0.2605111142800223
Ni 7.436016810598511 8.937991021535394 6.112191644745477 -0.3878521974315578 -0.9665990343965805 0.6614240015502802
Ni 7.362620881857118 6.0849031749986935 5.615505017193931 2.9399147971462334 0.010759295399033083 -1.8163923379553104
Ni 5.853800000875799 7.018014509661481 10.44048995677486 -0.941402737636611 -1.4545987852840176 0.6262744502323407
Ni 2.438050565277384 0.5683241219099411 12.934530756414276 -0.10446237878114913 1.0486987292118133 -0.6965383287549101
Ni 3.3872309971209695 4.149568422396684 5.859590674952999 2.0170859658570683 -1.2700419150431224 -2.1105779616696427
Ni 5.384597328595531 9.375822476153035 7.094667283361171 1.2669586481321082 0.38976355552165776 -0.3465625946541515
P 7.640285153631938 7.972806966131655 4.293362523391436 0.31838998887467745 -0.4339441066936139 -1.7662578831927644
P 5.885844661493616 6.249475797173386 6.913964767072226 0.6176890225561749 -0.24559743039298346 3.3971806092849235
P 3.154659343220785 8.695196129440442 4.426247783849538 2.467939189601195 -0.8982097471889048 0.03053930623943773
P 3.6511364551862706 5.997187230085123 10.104218376487145 -1.2116074250553133 1.2517780837369281 0.7384059155229735
P 7.859285061310156 3.4161235705735202 5.414295227581996 -0.6790005769814628 2.5495287775492286 0.39533770717532557
P 2.1450654662719795 5.35685522019143 4.3156768686441875 -0.7325042053265578 -0.32963368010929683 -0.10695891995075774
P 8.422722980445215 -0.09196798890564878 0.8869103419244025 3.0506514389718684 2.2556560570896247 -0.8791051651489699
P 3.260651781668277 9.30164086396392 1.4662115840039498 -0.4867535371851617 -0.9692102467671824 -0.36663056904862024
