# total energy = -381169.4006569781 ev
CRYSTAL
PRIMVEC
9.21787813134667 0.00000000000000 0.00000000000000

0.00000000000000 9.21787813134667 0.00000000000000

0.00000000000000 0.00000000000000 13.49129640262277

PRIMCOORD
 96 1
Ni 1.7896233647780542 2.015581208786998 5.332407856021359 0.5467831395742325 0.9525970636905335 1.8569160091009698
Ni 5.978015127812033 0.20940622222856375 4.012540460389365 -1.828553655908193 -0.06609097809180231 -2.1163467458326197
Ni 7.391198789834927 2.3613991207455323 11.573144490766534 -1.2799758863273827 0.7120762764895091 0.2079297406388806
Ni 5.689541635042487 8.46526593722293 13.324462963414732 -1.0694159071545066 -1.3428684120865453 -0.6316290296760347
Ni 2.5823977463774184 6.622510723512982 1.6101863075819989 0.7458063217521026 2.495876539441411 -0.4831714762608582
Ni 6.470784451233488 4.800772271698369 10.119470377734231 1.2164598680516083 -0.6701955770953233 -0.4345069211756194
Ni 1.674897654887983 8.030182094477361 6.707062631478406 2.2450499994390043 -1.305199693891178 0.13314997652382876
Ni 2.802834081449824 1.1663749779230497 7.412064378530666 -0.11770458850303599 -0.11176122643540752 -1.1672746645762089
Ni 0.45521200119936706 7.3945448795577375 10.750067256950183 -2.309927159728364 0.8231337919896726 -0.7437239853017772
Ni 5.966354512111331 5.824205615099055 12.093503844902433 -1.5774702626999737 1.4979915504473555 0.42184526654755083
Ni 2.75259664621755 4.774086514818106 0.3559363766657757 -1.0369485306544206 -0.8266487471214667 -1.9595973847222965
Ni 1.9301038258679373 4.675740974177163 9.12699712125366 1.7408366149061825 -2.5962680905872966 0.7218711510927438
Ni 2.1087002125881793 8.69173076452321 11.95590581427074 1.297043897553263 0.306504293180685 0.6560617087971023
Ni 1.1678774920410058 6.390976063299354 8.149579424950133 -0.8074981423349449 1.2534385021584864 -0.7747410025085818
Ni 3.966397606575472 8.107427912320748 5.415339261030115 0.42695044898460016 -2.025789921388969 0.45553880214525416
Ni 9.088228569859183 0.3827898989260806 12.40171189273414 1.2799308920220602 0.5286632900450702 -0.3491036159084504
Ni 0.31191547837306927 2.6238874153646603 12.22361327142721 0.7877376718785659 2.1304042523669504 1.2051729822838793
Ni 6.326128291398611 6.958659081424056 4.785120314813158 -0.07769873753405973 0.21539442444704193 1.199010048006277
Ni 1.4446627154757776 1.295618845701347 10.790473825269572 0.2900782864141778 -0.8062151618574631 -1.594666829083918
Ni 2.4283670045918573 6.677587544707998 10.276280309744108 0.43221324004543626 -0.03154306491360374 -0.00983575514349919
Ni 5.6728664936965805 1.2327529175758218 1.0801592429742448 1.1992671583224057 0.054997953502434305 -0.1589419978862682
Ni 8.629860367224307 5.765847229327399 3.9811462114143046 -0.937333966883876 0.6108838267088834 0.7931220761189308
Ni 4.025889791344114 1.124313800498303 5.2694442183887755 -1.2752828517270878 0.3195549557170561 -1.3648390028203656
Ni 7.981244380046508 4.02687610429271 2.518110421460551 0.04476239181735517 0.1509291548841207 -1.1800743874440387
P 2.8545555950440065 2.2883197837691154 9.248526546913446 0.4175109008382552 0.6223203506805992 0.6680191382692947
Ni 5.508465639133716 3.6045958941228524 1.9491958948318067 2.316393484178998 -0.6829431065689787 -1.6363161291935884
P 9.152726062395004 1.401135895445172 4.63617599812139 -2.022296049303098 -0.9179221380161675 -2.0553874325404276
Ni 1.6467370375238364 0.5700639960183708 2.284414168850232 -0.2522612155664043 0.7911520968767537 -0.0661511419057764
P 7.352926160278155 2.490735167304072 8.644278050242068 -0.8045981950793304 1.2549307704332966 -0.07358034449031199
P 0.35612257780186596 4.686203265734711 0.06466157076465305 0.27289046178098164 0.09331458969444574 0.03897689548382965
P 2.3278460447371874 4.459784527824553 4.9504825940539545 0.16473237931580015 0.36130530018096485 -2.292657831124955
Ni 1.8208904070363798 2.8578648132547197 3.263328848544901 2.2003567702966884 0.6444089550495223 0.17156919973197549
Ni 7.0101317123115825 4.411012735198137 5.124533645120429 -1.3218879531801364 -0.22852119163698706 -0.23450414869329936
Ni 4.433218603358605 5.252614216692063 4.896450158439087 0.33730148106719976 0.509959800098296 -0.14425662795995153
Ni 3.5247690704326695 3.2903123428853482 6.282397756263669 2.353791979432114 -0.7290874663355249 0.577549731333128
Ni 6.993318302795314 5.560343856654311 0.9492755146954297 2.630692333703437 -1.5787064490999199 -1.260915527261822
Ni 3.8293001067204955 1.7899459905089037 2.3361126377493533 -0.6447624817341993 -1.0371699026366072 -0.35107230959904695
Ni 0.3586860696804156 0.4737058298794611 6.467134171535878 -0.6281500699884988 -0.11599968999678731 1.571814349965777
Ni 8.499399739546805 1.1969322435735064 9.788070148793457 -0.7791725559173742 -1.3574154566627847 1.9011734362574482
Ni 7.710625917009974 7.122847924792363 6.748791965294278 0.38996950088487675 -0.8901292841736155 -0.03728896625844546
Ni 1.4918490330820184 4.151511033058873 6.830225465124092 -2.4995804706555593 -0.3391192510022289 1.2098397916319292
Ni 4.468928662824629 6.91305823883799 3.069931315081088 -0.18195080007661568 -0.9580837978367178 -0.5337077944475132
Ni 0.969425796056485 5.31121226729235 2.232822627336192 -0.9742719775608061 -2.3581533417246034 -0.1954146388910054
Ni 9.272908756075445 3.5577782916375824 4.369439183520875 -0.5784182499810103 0.5597286439913071 1.8069579320152882
Ni 2.0077275767103195 9.114204550131578 4.488418944119147 0.624035533599493 0.4193543818048972 -0.39547140453971247
Ni 8.560670974774132 8.26689720214063 8.77290432019274 0.04787676907662077 0.36862008867482327 -0.20157088830038833
Ni 0.7902920070474282 1.903759130474572 8.437226995848706 1.1890436808221845 1.2279138755248207 -1.5614029248244656
Ni 8.243013680179745 0.24002985660079537 2.6254876389896737 0.15945519007726086 0.101408936666806 0.4061517670716941
Ni 8.084429306650193 7.319502134562151 12.65695401343839 -0.7018509992170752 -0.9427109149250732 0.18561513630208032
Ni 7.921872027692183 4.874008312601198 12.024508949678571 2.0706996374174658 -1.2666732556812057 0.5363899692653665
Ni 4.346192616931467 0.7984857788232023 11.602973544053075 -0.40825261546478075 -0.5866720053493703 0.3716524477432438
Ni 4.974704412138331 0.24975840506761054 7.141645021659455 -0.39657363646495575 -0.31181773497379844 0.10197843601703081
Ni 5.866607854010699 1.1391914556294758 9.789149562310099 0.9722212656793643 -0.48407753301489537 -0.2270708323437057
Ni 5.082765596216853 2.9868413625703134 10.9658743736788 -0.5691615072694327 1.1213958997662237 0.35473484605229877
Ni 3.8336048557578297 0.020212041143818034 9.202399363492194 0.8108840280880423 2.2142731232674637 1.38692555030676
Ni 7.171149605639541 9.149859302329457 11.399848383910246 -1.8979405311424475 -0.7777754184595315 -0.8165152582318906
P 8.699012888162384 4.829172553891147 6.401040142526253 -0.5378336436904285 0.8258383354050294 0.16602487287497858
Ni 0.4955309996775265 8.378590230160716 0.8132454451156644 -0.21639998289342083 -0.48165478250601557 0.8021381635746121
P 6.228612359779853 3.722769090394001 13.267867035921316 0.2833707924870152 -0.743911418722235 -0.5626573876023278
Ni 7.401025047808799 9.254473000026904 5.527424970654035 1.7186341106672145 -0.32889577350200777 0.26169613572705896
P 4.000844816752171 8.84590899235716 3.293845555532051 -1.4742780088804999 2.9123060342900295 -0.3228462248738182
P 6.897009913197735 7.186248489843296 10.352735233653013 0.3838865279155904 -0.4136779002454102 0.8652086096725358
P 5.854034668385595 5.298473159862809 3.278115246683633 1.9050154357113578 -0.8876278579080004 -0.45103474362731355
Ni 1.6336845222414693 8.949591684374154 8.971482301106192 -1.0876745962543783 -1.4632508045320607 0.014105329053130548
Ni 8.312581005628914 2.475249132223298 6.583779965418405 -0.195261915363225 1.2703543040772187 -0.13007056626755664
Ni 9.13926796047957 3.599498407575431 9.871986023175205 -1.5511128557523672 0.18060739867484382 0.03506161958982349
Ni 4.388235358600165 5.143898563273815 9.385976169708949 -0.3147138255746709 -0.6235619363971842 -1.1767491797255476
Ni 3.714012106270944 5.161043816398959 11.619783266418132 -0.18260154628673714 0.30242343824309204 0.9263134474036563
Ni 0.2521089639637995 7.727061393527249 4.876900882725215 -2.0491306529974387 0.704629847513793 0.37808791895594235
Ni 7.1372185966322 0.5595021513781616 7.686909238641328 1.0338225834309294 0.3073774398142577 0.5167457126718777
Ni 5.952785795659605 7.873275374748228 8.46818984813223 1.1046672741576329 0.007432287908329134 1.0236145325496757
Ni 5.0243887746891485 2.847771236818143 8.316682961349715 -0.8870182493484594 -0.27805735069390175 0.2560926734973525
Ni 1.1424177129379705 4.956582063942614 11.295453149921975 -0.2544983324270391 -0.3654874565831125 1.0038432634600194
Ni 5.858588300129584 2.075018086287495 6.020922506439407 1.2658926687614391 1.4649909271516188 0.09823053893882439
Ni 1.1930422990472642 6.718090900746643 12.816785565864624 0.9725665648339249 -1.2092080715852014 1.0712264780006842
Ni 6.770116604315626 4.4157691602586615 7.72441494074648 0.466293469558597 0.23477899962124082 -0.9641724272329588
Ni 1.1402330758462185 2.896063699787297 1.238190543822339 -1.1162110131311742 0.8817441454337137 -1.5222401385820752
Ni 3.779523565389435 7.188737316909849 8.47463867559801 -1.498449978141013 -0.5611198679118788 -2.3493483418384633
Ni 4.508012465647536 7.466683992975679 10.633583697720884 1.8461145476100915 0.428211832195527 1.892663341903908
Ni 2.5554354531564267 3.0165598013205615 11.591559967483422 0.919896488133719 0.7463796777570694 -0.6516844056650131
Ni 3.2554779818316297 5.695542473636286 6.764333307643199 -0.22747603820192439 0.8267135389211311 0.9110053562916762
Ni 4.56109822518931 3.073535505388578 4.019879734872289 0.5310446457930532 -0.19096457353945176 1.487567269790238
Ni 6.935937012094229 7.154999883341019 2.5352713449783355 0.5418448217323507 1.2779706829718958 -0.11394743545344893
Ni 4.126484494222978 2.751352232684274 13.221659656961252 0.6271144296351329 -0.06580532853058345 1.1568442132715044
Ni 2.2569882163646198 6.71983307969323 4.138724914451407 0.2238086166526662 -1.1804855068395284 0.2249113627985417
Ni 3.3948154260465033 8.855726032453008 0.9596336442313025 0.7830821753844255 0.43697955108582803 -0.5218331544971142
Ni 3.5812746627214485 4.44415100669539 2.3920605484176636 -1.9462371613653062 1.1540615083200445 1.218273267111263
Ni 4.95221278975911 6.085384971038737 0.8011128740601194 -2.751077811472746 1.0019691863657585 0.02333404674025014
P 0.3012126001990887 7.288502410766529 2.7297750238050607 0.04280243987750693 1.140897460134261 -0.08034877356239711
Ni 8.075902769477743 2.206649384474078 0.7017211042634223 -1.113982895131604 -0.303313039936897 -0.039339678139887084
P 3.5496296874641273 7.250745982379116 12.863937777322175 0.45734371656447687 -0.8305732789868534 -0.044143013065801394
Ni 8.24377876405576 6.032409826033255 9.018581048871201 -0.17989211777537406 -1.2184853831220692 0.6685307877983906
P 7.61937814244772 9.122159578866524 0.35160213041876365 -0.3683933173759978 0.9416894156390944 1.6470839092330538
P 2.1891169804719155 1.4743442827139288 0.1413644555924107 0.8821136129579905 -1.0840534545620235 -1.0537378342976176
P 5.480277368135497 6.167811236331764 7.2174924874065605 -0.48556928706907343 -0.339883382861763 -0.8710177601551452
Ni 6.931143715521609 2.4219144899748684 3.7161912126358816 0.21666146408492365 -1.474312461662861 0.3183377954805034
