# total energy = -381167.25531446736 ev
CRYSTAL
PRIMVEC
9.33213132803495 0.00000000000000 0.00000000000000
0.00000000000000 9.33213132803495 0.00000000000000
0.00000000000000 0.00000000000000 13.65851750486649
PRIMCOORD
 96 1
Ni 7.145659434579716 3.6546678408642728 2.0711097151337228 -0.4561111297089564 0.015387023979031566 1.1117120968195564
Ni 7.92726274170686 8.415473179564831 6.705963013394754 -0.4097381988713718 0.31923896713853406 1.960578774798959
Ni 6.291956082668272 8.394718520025577 9.580234191681534 1.9388118154355123 -1.0773421039801188 0.2720962480144604
Ni 4.410523798320192 7.469251080048992 9.001672860270864 -1.1064284798231137 -1.9510394678499559 -0.549311562423041
Ni 5.142713471337463 9.249513731274293 0.4451379868222556 -0.40109903513913503 -0.20489249647445357 -0.21898111335703577
Ni 4.881115172684406 1.9177062778863387 1.3586313694000909 0.6534993473865649 1.4575221295783996 2.5011277605380218
Ni 8.750851306597992 3.4293248714872977 0.08374281152943307 1.0400037725409768 -0.6631358420350644 1.6238982151452097
Ni 0.7229769932074008 4.765182108180735 1.9938294043825875 -0.41802897812525425 0.209158213729343 -0.5916884847273551
Ni 1.6321057380754744 2.019659810020494 10.472012638431181 0.34650962992902906 -0.349282821798792 -0.9408466080228248
Ni 3.9169847136110896 5.5832087229435405 3.5963289565820338 -0.34883673540030885 1.028324022210203 -0.6680556479341849
Ni 5.173584160975887 4.791983988664881 7.683639993955114 0.03982433108578948 2.1023740857026114 -0.18138310049860373
Ni 2.5548108672500716 6.581550774584713 10.859436060540972 -0.5160250324557694 0.4030628437337252 -0.19713239291306048
Ni -0.2538591623419485 2.7129438285327505 3.078083054817996 0.5238298732121689 -0.034119567391528334 -0.1216023808955454
Ni 4.648922419088991 7.830768506259065 11.195149211080182 0.12196336377938995 -0.08822637653826094 1.3277467259537585
Ni 5.95117465173528 0.48132239190207016 7.725379816671492 -0.5855975413382689 -2.0099426699440675 -2.2411637770107213
Ni 0.8565235219261759 6.347752894442197 12.561697027282051 0.13474688869730342 -0.5738679116061665 0.9142619155557609
Ni 4.838597983448414 3.43739716487824 3.470834190565808 0.9270109876913132 -0.013849761398898729 -0.7664198842373962
Ni 6.548104416766057 0.19767879998031657 5.393407174814432 -0.14693777433654048 -0.8567663924424533 -0.5007071711517764
Ni 2.9218809114573823 3.5008743205374184 1.4195981817966523 -1.4215356841814617 -0.8488373674033639 0.08466205622577032
Ni 6.9590728056103535 8.008564267743727 2.2809585472656324 -0.7288982331428544 1.1385374445425165 -0.9048110545555063
Ni 0.6503207534102677 3.6093883408262935 8.310661215678484 -1.051963258895698 -0.4766773838960822 0.9988504382311185
Ni 3.305356842117035 8.61427556812812 7.454887063878659 0.590832307374647 0.03514132378782335 0.3507486077110411
Ni 8.109043323166011 8.181880606306247 0.05880922368906362 0.029988318831974156 0.9845869863335689 0.26950714713104557
Ni 3.0301056356825353 7.797611444504131 13.116411030910973 0.20175729327958153 -1.8483753186198104 -0.7854969554735052
P 3.5238406951444814 2.0292252443854832 4.302705955010466 -1.235463919957937 -0.12736679418314836 -0.06807201307757309
Ni 3.8966406678396974 0.49697237573630154 9.48403765121544 1.0461222267338885 0.5582204348768967 0.826667516174544
P 1.3610353263683066 4.169157559865473 13.488263792300776 1.1317199074000508 2.178168921345739 0.40941681097621097
Ni 5.331269179966352 2.729312386460742 8.044388452563553 2.9045575006928623 0.3737471254887434 1.5346575384098216
P 8.627060587718399 6.804691361024968 2.961521937892116 0.4903427971983168 0.5262608512511646 -0.9477325365093806
P 1.5843345590370543 5.545656227446255 6.005213290012263 -0.4209494942061589 -0.6497997870477906 -0.04694577262191915
P 3.2168229144871288 3.072202879019577 8.663297252732304 -0.6451414623401728 1.0229514450443802 1.2086002627978734
Ni 6.230531995848409 4.531561538528886 5.493223648929482 0.9110544643620568 1.8416572831696865 0.5084896433106726
Ni 3.1931286336552183 6.046390385224047 7.472260692324806 -1.7989291481735408 -0.8613349856497423 1.0165774231972362
Ni 4.098121378025182 2.7270260143442324 10.658806440710693 -0.021799612373594714 -0.010452048571259418 -0.6897778701026249
Ni 7.116636506896676 7.179413752724269 4.674928268791348 -0.8157408419597113 -0.40176623640948866 0.37763540479955604
Ni 2.6634742016363515 0.16593182323274835 11.603566195285076 0.5572076773416662 0.759257305050686 0.8030223659517783
Ni 4.014496151347455 9.637385095676297 5.471956655393507 1.076242957378669 -2.0785566715680397 -1.5513033744966185
Ni 3.4824806901633756 4.963891175433144 12.575997584960986 0.09834752413266289 -0.22803885268392984 -0.07415858559128519
Ni 9.119899762595914 8.987290179838354 2.846025617123353 0.5192389114073767 0.6524223122723022 -0.43277836852028695
Ni 1.7904626705042601 0.9726600268875614 5.587631219866046 -0.40077790435429045 -0.15115592618294613 0.13203051820740486
Ni 4.733546183793111 4.708741379361754 1.261346702449159 2.208918800934086 0.5719295569328731 -0.7136924719366935
Ni 7.812757493259621 1.157772179145054 1.3951358665762166 -0.09659968820362072 0.1446402365516154 -0.7415850845819034
Ni 4.300815265252079 2.2498554875631216 12.925915172228931 -0.579883264562311 0.3095304816015186 -0.31711729280984097
Ni 9.473139588531113 3.8008743386167496 5.6261346595211785 -0.13757638772629854 -2.4009064164214133 3.4315133211285223
Ni 7.509612547003704 7.010810140361086 11.757292524268099 0.23387088598467462 -0.207358698626759 -0.04328375038929965
Ni 0.1828295129934179 -0.05614769990282462 11.208192730701594 -0.24221668684620867 -0.17813322610273838 0.9300274059201338
Ni 1.208128358494793 9.440757093656467 0.11174667049768691 -1.092584889071802 -0.04970045254892086 -0.0996382179196284
Ni 5.452661541156383 2.2093913671664445 5.595825764174239 0.34471885657719337 1.061806470238365 -0.2174471932110126
Ni 6.2005198622700615 5.8753884151713 2.7748233233496986 0.5402751632523857 -1.2451891176655006 0.5249521597420701
Ni 6.53480612996595 3.053118670945037 11.280146261027816 -0.2042990858648288 1.0173618667717448 -0.763512223672298
Ni 2.2775159241073446 8.583190239474675 3.5293606506829116 -0.6025609086654848 -0.4685041040566706 -0.036479068762640406
Ni 8.96560230719032 1.1308863094811177 4.76407718385994 -1.036719702473066 -0.19239796355186864 0.6879906962952151
Ni 2.1274365919534333 3.057066162395174 6.729387595638228 0.9859015913799342 0.6405821251042645 -0.8718885927958726
Ni 4.396264302018041 7.29374169068084 2.054800882844693 0.29011068231401005 0.09874707356392672 -0.8982935651519627
Ni 7.776828788571613 1.7922077790176776 7.002858231461176 0.15400856514039282 0.49372559762762064 -0.20385814167266827
Ni 8.878561520534461 1.3414285189528503 9.29911494121903 0.9133283479978979 -0.1275956223645028 -0.3569094851061143
P 7.577793096731131 3.003257094542951 9.084375139184008 -0.15263456761100164 -0.6553651969507099 1.3184575873423485
Ni 5.056605897790383 7.039525107718229 6.433517045565245 0.7138523945533255 0.27933853139917053 0.016263513046713925
P 2.975568661605464 8.812350050466558 1.2045802822552136 0.2427108528738078 0.9694056506074401 2.398922039001533
Ni 6.524867410357449 1.2133730161661336 3.384744348067795 0.7124280034019731 1.4601690802829432 -0.5223746288228811
P 5.936653855762672 4.993977966060194 12.676442111498245 -0.23815562940295756 0.2687453292643565 -0.11128891478467931
P 4.932591207764681 0.6257240555021677 11.665780713608076 -1.2216252143026316 0.8204475034067612 -0.6102706186049167
P 0.016428283566953507 6.96560529737181 10.66287618307808 1.0616403769741458 0.2513237913537994 -1.220206222467918
Ni 4.538429987009503 0.014015927680758617 3.1395743329816916 0.13345465224844114 0.9357231707533303 -0.5773304162334701
Ni 1.625853210246652 6.335975745009399 3.855375850595687 -0.8243856621189029 -0.7390561475124626 -0.7399907435115901
Ni 2.868715760650217 7.342866028726991 5.555765725053663 0.6823021305508702 0.05782282454573913 -1.7385637597116057
Ni 8.401027040640926 4.9275518569772725 10.083919169309288 1.4824196641510277 -0.5586966031823669 -0.3186836088556963
Ni 5.715668991603697 7.223909353750874 13.303477331418248 0.18707757978021974 -1.7479904523421443 0.48732123676317357
Ni 6.43976770696785 5.678349799383606 10.205630689382522 -3.3966710166383565 0.3553079449469494 -0.5884954317113542
Ni 2.7156968072036496 5.938501617718054 1.1252851644022235 -0.8456638547713887 -0.22047183896994932 -0.2113891599423908
Ni 8.840113140452747 5.034264775966203 4.113071452027828 -2.02323630172918 1.6994991896099765 -2.381640111992634
Ni 8.73613453587254 6.296351516410623 6.367013479794296 0.432124794096688 -2.0768970244774296 0.9932919703067344
Ni -0.06781099733635024 7.966261717522754 4.985153502903575 2.0377540357293804 1.0622957511699578 -1.820794580788064
Ni 3.987582285290255 5.098199206048682 9.860288645986923 -0.3171543166953635 -0.6358009016655373 -0.3792940234489016
Ni 6.984241563154135 0.1277074142971419 11.798595603249568 -0.39725729279554167 -0.9566473225005072 -0.3950877959480486
Ni 7.668324100413826 4.398289374464093 7.616290003894501 -0.25048226928911055 1.280975788346807 -1.0753736673998384
Ni 1.9247893653819745 3.8621864398635597 4.115638721290081 0.887571036528136 -0.7718572532028836 -0.5450072786207324
Ni 3.942984030821685 4.555321144278412 5.586046624007339 -1.2050182018735698 -0.7579969502810235 0.8355545342515288
Ni 0.7377581556373587 7.407668347000636 1.2122848896812968 0.10079984232789738 -1.0318590319466552 1.028102136007384
Ni 1.851336161589944 2.1924348849799222 13.087071743984055 0.26248829261105117 0.04005855858378262 -1.092380743480796
Ni 0.7273957572774716 5.94842167306438 8.608894661342896 0.23964121280954856 0.7274733277708697 0.24101469611830753
Ni 1.2648397191153204 4.312723064520105 10.575448112982079 2.109040184868878 1.4733215585045014 0.20357506321461072
Ni 3.8614958621630633 1.4628395444050573 7.314299442254143 -2.6946410686412556 -0.11852682729401523 -0.13860071522575484
Ni 2.0060162343701387 8.540327761388435 9.581149673741248 -1.6060820128993951 -0.5960717013967153 -0.5161193919417886
Ni 6.558677721288529 3.067779448883962 13.587301966683105 -1.5098124543416838 -0.3002120324140701 0.2765666250809882
Ni 7.622279365626647 5.53036086459336 0.6109559580557328 -0.3869631099583852 0.6945418671501716 -0.43312983832243473
Ni 2.317037499264155 1.2669954413966011 2.4721645811234545 0.02803967974603558 1.1302250680220793 -0.5633261315345782
Ni 8.612418474041649 8.333854361070982 8.98220976767416 0.9469198108000982 -0.5751287805964611 0.30795465247396636
P 1.4425981520756308 0.48132612475450526 7.861610266291117 -0.6843435864609311 1.0150111071513812 0.027730890256365142
Ni 6.279945629958282 1.2986220336531369 9.671459505917163 0.31232475651720404 1.1911540422969678 2.394167555035683
P 6.3015868419508765 6.606710199997408 8.068304838115353 1.6764397366873514 0.12259174139200822 1.2753589563806615
Ni 8.954945013488059 3.1497435562280613 11.523636492518117 -0.3832440092355851 -2.0615261984483144 -0.3614359122215582
P 8.314546181850334 1.2454008900594444 12.901043176453742 1.521154104606748 0.8040672622765249 0.7708730349127433
P 7.3021872693152945 3.256120518497831 4.345266072049461 0.6991132885709379 -1.8685001143941433 -1.0804163720300684
P 4.958805163990296 7.625097669215162 4.4034509761687515 -0.14098284230468622 -0.011350906236444967 -1.6269639985547268
Ni 1.2190002912120737 7.870570045348509 7.056003784793058 -2.223245244859087 -0.5252743189681792 0.4083112366168581
