# total energy = -340867.9240905539 ev
CRYSTAL
PRIMVEC
9.19818695953222 0.00000000000000 0.00000000000000
0.00000000000000 9.19818695953222 0.00000000000000
0.00000000000000 0.00000000000000 13.46247638226075
PRIMCOORD
 96 1
Ni 4.829572372512753 2.268705182414772 7.657416014986276 -4.105462708839323 -2.5359587521742775 1.8229951879838087
Ni 6.550994637849691 0.5827538848777508 8.391969416446136 0.0972226664996003 0.21828151618684988 -0.38094904255382134
Ni 7.570540060373451 3.1339694175547703 5.377249891804786 1.3642774738899406 1.29183535676913 0.3386178858857781
Ni 0.6728262094074569 8.67265760590109 12.453463756028354 0.31606314051371376 0.4986693147861412 -0.19702980589692518
Ni 4.2650152606035405 2.251228627473548 1.114299624140353 -0.206380908094522 -0.7606025062246707 -0.013307258631867403
Ni 1.4280736915550882 2.844520874980857 8.499237751219326 0.22016304948027887 0.9303333671963268 0.8200464113136007
Ni 7.990906395830755 5.903405493596042 2.6756136507486517 1.5619577688866713 1.1786543671680605 -0.7062594126974159
Ni 0.6664362290297368 6.281101440436325 13.050591647435922 0.2961260352701545 -0.7400107981162481 0.8767690608166255
Ni 6.509924733737814 9.047870042302359 4.962362916230897 0.9263095907489143 -1.709808284845468 -2.0156705735667804
Ni 0.48468281709705086 8.037587193897446 5.473465685305673 1.2847771643707682 1.176528064853677 1.2195441634038866
Ni 4.446237937157221 9.114658076738268 6.571020930174971 0.27790488427643756 0.09327987980176838 0.5069634364741333
Ni 8.632553511404387 3.577248436358699 -0.0971622869237563 -0.45855702014628774 1.5563116263444874 -0.29343537581186885
Ni 4.06399808603222 7.93310498990936 11.51413296122877 1.005019800266624 -0.15317784170898135 1.2747547471377594
Ni 0.658816451075363 3.8515659616282374 10.900876969066497 -0.009863780167957205 -1.9003463123704627 -1.1503377796115544
Ni 3.3658465088775675 3.2669200097234286 10.196076022666047 -1.8595354490016878 -1.4410081910837764 -0.7423728705905215
Ni 6.479423546271973 4.617646148383384 3.823397434337709 -1.505568591463665 -0.2053882051639495 1.0763882247072816
Ni 5.6616679460116695 6.504212659728078 8.08552262464518 0.8458646579282851 0.24945099981111876 0.5871934250704791
Ni 1.662885004470649 8.614617047122605 1.2933119764033103 -0.33504250982969397 -0.705981476445681 -1.3845657918253316
Ni 5.910745646671357 1.7005975703964478 5.787087982638023 -0.9498961198196028 0.5717459801671573 1.9277115917572931
Ni 7.436485685787453 5.567303747515872 6.187596352588691 -0.9891522371067482 -0.630020033317702 0.7749518329678073
Ni 1.5817569967961251 4.461203387098997 3.0416987263771946 0.6469849433068148 -1.5241463544658524 -1.041023986275375
Ni 7.765477233462589 7.37218116179056 12.422957969469108 -0.3249686705334597 2.2746763069458695 -0.3768512183353639
Ni 2.4962499277495076 2.6327510200272783 6.376932749728505 1.3095934520834995 2.150196604502529 1.3826716601264122
Ni 7.413168282221136 5.6233207051959 0.2514977436097051 0.3842007167218996 -0.28292059232347405 -1.1205834311672571
P 8.003222767970913 1.5323903281805729 4.062840954131375 0.5572117911067243 -1.1301183672408859 -1.46936411651865
P 7.894031092335507 2.7280074426437597 7.529616407431873 0.9693835391202531 -2.078483395127943 0.8215759605842495
P 2.0150835774703673 5.002019978848577 5.109036283303141 0.38005249888148096 -0.5610656176351757 1.127213277778949
P 5.835936793336106 6.545576905817912 11.958717202741203 -1.9043160956514884 0.8037589870074866 2.5008477674037577
P 6.450136519465206 4.601199790365012 1.6595865346801633 -1.686879958184069 -2.031310851207199 1.6057909640215378
P 0.3903351753375127 4.961612344187105 1.331390630164194 -0.12918970632450008 0.28448819392091 0.16106650042843873
P 3.7439103831902982 3.21341415704285 12.6429887159978 0.6216562347340391 -0.6272923499738938 -0.5447889919623392
P 3.7324678387972017 1.2582015775263913 9.276009910323777 -0.04865067112816782 3.840186826180806 0.787387744738315
Ni 2.7085164847908896 7.222250716768481 5.346783657448827 1.6208409163761248 -0.02411771898381008 0.4441894385707059
Ni 8.20712817320094 3.4349984773239477 2.8262312003255254 0.7193542982081611 -0.9673965905972114 -1.043195540005397
Ni 3.5222524774147113 6.021694175987696 9.47681552659844 1.2102997619874833 -1.5062715310679606 -1.7009348936152382
Ni 1.6317215475544031 7.457089624244475 8.689032218062337 0.2896483979656108 0.7207398657017781 -1.2704134394499282
Ni 6.65103411760798 5.872278829427041 10.263415028491947 1.132793600080204 -1.7793833648311292 -2.1887029881078433
Ni 8.765669670935647 1.8229610495454491 9.677904447026886 -0.45601779866420167 0.5543766356507742 0.44374875148886156
Ni 8.99980031802718 6.079449590975035 10.935421679454528 0.21665529343733655 0.11314807948060514 -1.868307281657047
Ni 5.976144754898779 6.984909902479848 3.463100777669436 0.18094164208581098 0.7275270638269405 -0.6158825654750555
Ni 8.541555849281478 8.670900752220158 10.21276889209096 1.2281568447735625 -0.6083947417384425 -0.244076879983399
Ni 5.452850709024477 6.926023110514735 5.675362206536141 -0.24573678418432515 0.38996230179602515 1.3862724901037933
Ni 6.204811679024477 8.254324069729057 10.305310009960783 -0.6245631239681889 -1.5287630273022574 -0.3600143492836832
Ni 1.1032213279449794 2.4532208098468526 4.6659053553068714 -1.8119512714648216 -0.1538195890580383 -1.4324286769448815
Ni 4.01150403390087 0.3729248473413292 4.150925550491188 2.8793532335130925 -0.024922988493924818 0.1670905951353316
Ni 4.0002178586835635 5.703593281496985 13.190870435037041 1.929822981673341 0.5650264020551367 -0.07436607361640095
Ni 4.267811509394137 4.303252123177576 2.1860236009878413 1.4206980187715144 0.797737206293439 -0.5650042905679494
Ni 9.099057951906522 4.915189095351128 4.552538622677876 -1.047504451793396 -0.24500993332062965 1.5228584888923644
Ni 4.244438916706952 8.240076078358554 1.22926500163713 -0.11993784870892893 -0.46194599122317864 0.24244551502756306
Ni 2.009730232746266 9.187875643755184 3.3891114827790614 -0.9489815784251333 -0.8249865289276954 1.973796559040814
Ni 4.7500724439038065 1.449477872264682 11.311603604745692 -1.472153249228013 0.6234434085414489 -1.416836221823263
Ni 7.536672336534722 8.046996939005274 7.016951786236561 -0.6797413118022294 0.8717690364988728 -0.6479537349779873
Ni 6.343658308939097 2.6167645713494636 9.650589511472436 0.3491956614016244 0.7360219886718292 0.7556333351448534
Ni 4.853340487232818 4.50767262686903 11.291894649865398 1.391062969513901 1.1536596448959358 2.1017318241329224
Ni 5.870181642834094 0.038327004804785264 12.625015458968774 0.4828369757395749 -1.3447746279703228 2.7666368422532672
Ni 2.755758372253061 6.038876388950961 1.5937551116726156 -1.1118506792799496 2.2542900299800337 1.168888288920232
P 5.025502949777496 3.7035579376496925 5.332123587309183 0.5148677789228746 -1.1210724549885338 0.0585555889467056
P 0.7143063526511113 1.6459511425512838 11.626247820632763 -0.39683588898740685 0.11350083483433356 -0.563183692419443
P 1.4091622194713216 5.159548126176683 8.896650011489353 -0.4144260912653443 -0.5324073304685346 0.35204675769717436
P 7.986647635337183 6.993979314675662 8.826188221241063 -0.6415753422554692 -0.5900854019062933 0.997072006174457
P 6.952145961058458 0.8209225359793887 11.048627443814327 1.115312412576305 2.4812351353791526 -0.5693453411454645
P 8.407630249310834 8.726862520779319 0.7233500099238542 0.7255771391894213 -0.07467897687112945 0.7375456244052072
P -0.10992569094293649 9.623694933055253 8.069919740357392 0.32648485006767 -1.0665776663747633 0.19867531192014815
P 2.5731467694908936 0.7244353959675723 5.725038854047229 -1.1864905753830277 -1.1509443028473019 -1.0929533281548143
Ni 1.1358656929378235 2.0715144535568983 0.16187796987110864 0.7312001418031536 -1.528566337910419 -0.3010062461805913
Ni 4.111488324538294 5.007290539891378 6.943339617005444 -0.9052070044423443 -0.05645551188456729 -0.1507635758405339
Ni 6.642580983928515 1.9154856106790132 1.4159293255082999 0.29897893133791736 0.7844834266073264 -0.6991886218935636
Ni 6.164210882439971 3.7821104530170886 7.32128483470831 1.1902251027247954 3.6731959898481326 0.11556234534905259
Ni 1.1535170134284596 6.639775536951108 3.7362409350271437 0.549153439578622 0.7807136751522489 -1.497560633557524
Ni 4.233088354181968 5.386632962170861 4.321266772047253 -1.6514846094039106 0.7978922438140645 -0.18326874755709083
Ni 2.3078066745490577 4.740165996708176 11.932613668389783 0.8087536120086007 1.0725647371961333 0.09668119217383349
Ni 2.2046950003958363 0.651365919758315 7.974107747257515 -0.8653921864382514 -0.7470597345432295 -1.685552754732213
Ni 3.2723009490079633 3.0758828678422288 3.892998274300474 0.7625997391603576 -1.1096343883549211 0.4448147308595307
Ni 6.5961485369057264 7.623107697999291 1.308264548883549 0.4001976063707882 1.143848829453101 -0.34417429692763307
Ni 6.428502384085332 2.813927705646904 12.356534183230922 -0.39687162732134873 0.8536748980013232 -0.024190995423906722
Ni 8.749085340115107 8.33623392328253 3.472645736123387 -1.1321472247454565 1.8819251295507975 -2.757610213274625
Ni 8.013690304562024 1.395364939254566 13.157335685560875 1.3622522159297958 -2.3299033457399743 -1.2498356152985766
Ni 2.326111066303287 3.8864730805766294 0.7538272821039865 0.253030489632261 -0.12418248291789581 0.19105996146673548
Ni 3.4903163728063267 0.5410998959033652 13.08160885318187 -1.5339450857238293 0.2822094251890624 -0.2648742763447245
Ni 8.859647545585377 0.9228632809515481 5.961777187099731 -0.37785703389205894 0.6618626317495956 0.7126606882380695
Ni 0.11781037667747185 6.614397739539089 7.150809319624801 0.9657608547660012 -1.793999829192723 0.6908770167040748
Ni 1.8655946454152246 0.3744729021816492 10.35356001869746 0.5453430646935963 -0.25005238084054354 0.0513421019174019
Ni 2.156772447109638 7.009790997804064 10.780993321081786 -2.7327468743740417 0.6331737484553353 3.240758549607032
Ni 5.782154995051193 2.2040603255058655 3.5775584152542357 -0.21376151682930927 0.66589823527155 -0.3357691035830733
Ni 8.366266003221002 4.367676223603015 8.930966606844468 -1.132899786640765 0.8857080151774682 2.093507122230285
Ni 4.132487785028196 8.564900847408229 9.247805510104683 0.06528725124358434 -2.9762663391920743 -0.954521534406756
Ni 0.115666279331788 4.207811736824871 7.000084151262236 2.502345949215839 -0.06722997679225196 -3.030055617098388
Ni 9.503474631433257 1.1767976242475322 2.229210927703649 -3.811724199964738 0.24944071539847365 0.5779803911126433
P 5.666340624911745 0.3167901528701178 2.4892114752016004 -0.3904855212893468 -0.9249703031122005 -0.4298041163833114
P 7.914340688814572 7.023523890713141 4.832988579094422 -1.323600822106185 -0.3525506939167864 -0.4170329327605721
P 3.73441785440117 7.250139619179949 7.399152085158274 -0.6437394397863236 -0.6439577264447167 0.2309521696759829
P 2.241800485992098 1.6951246492438015 2.0422577807666085 2.5079638096232486 0.990959722629132 0.3185817931705094
P 7.790790643566929 4.085880572455995 11.128096098588117 -1.0887693719804539 -0.03330478479971684 0.509714002636077
P 2.5290874546653868 7.362863398550844 13.119829159019647 0.7641295455413226 0.8566365517328085 -0.3455362102721662
P 4.99142366764211 4.352830350089786 9.260756557134812 0.7435699762224163 0.7645956865444639 -3.189266552375327
P 3.857057279154506 7.39143296678634 3.1900544418172014 -1.3776024731336212 -0.23829189787050575 0.7459814138773863
