# total energy = -340873.76674950664 ev
CRYSTAL
PRIMVEC
9.14472072871440 0.00000000000000 0.00000000000000

0.00000000000000 9.14472072871440 0.00000000000000

0.00000000000000 0.00000000000000 13.38422314900998

PRIMCOORD
 96 1
Ni 3.6251685338520088 9.145178098790435 0.41125181427904006 1.2661996584788968 1.340022200887002 0.1615105299443928
Ni 8.466630666053723 3.7506523935306273 10.722208073373363 0.10877540433420621 -1.4331007633112416 0.9291033514439677
Ni 8.06822261222641 1.1208867255886616 9.912021469345317 1.5149063239248233 -0.27117373620019103 0.06585366527001561
Ni 6.516573810398038 1.6023654237331695 11.569121705330375 -1.4813495710153004 0.09902012471965527 -1.4385867261264773
Ni 2.5925283645888584 5.670184170946461 0.6112267411614255 -0.897866504916873 -2.360515414198877 1.9434621697233303
Ni 6.897981828141502 4.2238734087360745 9.15206498807217 -1.4572303093695935 -0.47803929724061545 0.6530092951240238
Ni 5.199761440325015 0.20281253376609581 7.604634645977781 -0.9088679982336992 0.1834536098743873 1.188594509099908
Ni 7.246542008545978 6.320227508753991 10.633189702607035 -0.010969868747942398 0.08077454824590605 0.4225968000015948
Ni 1.0727580596880226 4.095088304826004 5.008791320076177 0.1856858416390157 0.2204258162233623 0.2769754304836327
Ni 6.772260205720452 2.779574485115492 2.152852014452141 -0.6222169923335155 0.5131525960039808 -0.07081126638560707
Ni 3.58333143590494 7.86547500597844 7.432620617605332 0.4356600609434562 -3.0189322534917165 -1.1846756336614759
Ni 7.412436389717077 3.513676097093394 13.13377795811392 -0.13752136611864704 -0.7873736036709278 0.45789598952352106
Ni 1.8880099246019442 8.133835984416622 1.4813258983938464 -0.8511331054160761 -0.3335746670349158 0.0475227281713117
Ni 1.7284711244304547 1.4534436444833299 0.9708108825659433 -2.123766435335458 -0.29380690021867467 1.0843535023009452
Ni 1.8256886519223212 8.473233154516626 5.4160862136379055 -0.014233112880246456 -0.6032432794444901 0.475609090532568
Ni 2.7120681557066915 6.866341093956396 3.133648017728118 0.3340063552556957 -2.901135619495507 1.0614141198959526
Ni 7.701720489489224 7.818105351909409 0.1659163285011693 0.3616529133283707 -2.474539725636848 -0.8160447463533752
Ni 3.5266890348810835 8.93049663181658 9.48262835781876 0.7383778904985154 -0.00848335488066281 0.7037171058915365
Ni 5.3269279286423785 4.4484860425668735 0.7156292758351526 -1.4378812154190204 0.224774065889729 0.32618480232874786
Ni 0.15213706310518169 5.551156484196943 2.0731356537474004 1.9286325609096655 2.443067108949864 -1.8456278377816602
Ni 6.985688845936112 0.9151579403394358 0.487350523410478 0.41362364996870704 0.7450054231173621 -0.17247088561063847
Ni 5.129136761102018 2.3123706962377324 13.197205742017935 -1.5203156678658527 -0.16954317044088218 0.4476069488926872
Ni 8.321741708704353 4.751395776424515 3.8227082215686448 -1.5572048275827182 -0.045675647660243915 1.3104007784761433
Ni 3.2800376237710633 2.150463413362792 8.66748897297145 -1.1005614795193757 -0.9702116914485033 -0.49085470383772883
P 7.194197626327612 8.575160213252808 7.68551512964835 -1.1936428701570927 -1.9979772700520753 0.7803953725808818
P 3.9543784849109116 7.018033723627648 1.2880293611575253 0.5385095867115306 1.14146798792575 0.9604278725888621
P 1.006559425362595 2.248193045222972 10.411252814100676 0.12271798255722736 0.934434533848894 -0.6625527158380847
P 1.5357552769689184 6.252995520971072 5.593654745462388 0.7137572637363578 -0.8401696644260369 -0.18510657209677797
P 3.722687837132346 2.99775838017978 5.746088097523523 -1.8771454487739672 -0.10343753706106057 -2.3381486164679024
P 2.210599097756218 0.16895054688342886 7.622823495773786 -1.7285441706920748 1.3136442251141052 1.6524629141567797
P 6.600348598221665 5.8308660612257945 12.699205276690702 -0.8684911370785494 -0.8367583247516428 0.24943043098582848
P 2.9887233959673853 6.236416142046912 10.511714888554646 -0.03070257129017938 0.44083234917301495 -0.48618738026904657
Ni 8.83683640074032 5.258104759429344 12.619288646599067 -1.4223460958978988 1.4794065883563168 -0.3012808399982166
Ni 6.971121305601755 2.6512374725276966 4.581660612491063 0.3957830222428603 1.8126747798944074 1.2585534547875485
Ni 3.8183873409609967 6.318892379508029 5.488120094345853 -1.2833167777751577 0.6207715181362405 -0.2727598497403883
Ni 9.296980465112041 2.739109095297835 8.314667352644934 -1.1092788047877156 -0.4255674525941445 0.1618745981520309
Ni 1.6167683590919968 6.7806093358681405 8.549560481669632 1.204886818502028 1.0285513077296609 1.8983084560048273
Ni 3.398196562038621 -0.20146551638301316 3.664439623124991 0.46275537449835147 0.9501982244410541 -0.819543246424937
Ni 5.499059009441871 7.628489564820344 11.961480526306978 0.12938562438539006 0.557065495336847 0.1554157299005646
Ni 7.27500952459171 7.555816468124092 4.970231690086317 -2.4923970655332433 0.28155147989008933 -2.2040110792198235
Ni 1.2001348765852298 9.302833086464197 10.003288526971795 0.8712931253037188 0.3108435439859873 -0.319908482401733
Ni 5.892382598469496 4.048322202333915 11.326921029864254 0.11639024056698664 0.6000471411046956 0.23661579571966346
Ni 8.69330086207864 7.892552524453035 9.167082448672973 -0.6369920937601611 -0.9121194152914615 1.1438210615389592
Ni 5.18819336843364 6.7916470139494765 9.214221655776264 -0.6507642078435889 0.08726581239720456 0.7645874590143477
Ni 6.683620426397842 0.827016548303846 6.043739616885085 0.2574497017458792 -0.902489091290549 -2.8586903058471025
Ni 3.8245966064268018 4.347327140383163 3.4148244079833545 0.6704496020876582 0.7543200156500687 0.6499512250239903
Ni 6.896655843616403 1.6569776967254966 8.074848876963557 0.21678641969856213 1.3849676552494405 2.254950803492484
Ni 2.542232399843749 4.453616230970875 6.962432906310059 2.111722616797047 -0.06729219748875508 -0.903086872775548
Ni 7.2039093198838495 5.505350577395442 1.4436761681298296 -0.8541400105632 0.3757854960750109 0.40831072239622584
Ni 5.5455324808663535 4.615953315726364 5.35292637005517 -0.6342163307872368 0.057608651652404017 1.1841207895992703
Ni 3.5385040142357527 0.7473998650565091 5.999196596034729 2.670889731857929 0.366096293811705 -1.0248535471630995
Ni 0.5065087136179336 5.210067540737331 7.519778952148178 -2.5211525403993806 -1.1126328088616126 -1.2841960950563172
Ni 5.67739935570717 8.238698498549745 1.192589567401377 0.17059063786879006 -0.4704198330221447 1.3972369595350969
Ni 8.959046450350076 2.345502019923466 3.4252905410107686 1.2669923295835213 -0.03867376242111404 -0.4971719043050082
Ni 4.023027904427556 5.553570690504708 12.366272509768574 1.1435153573730823 -0.08012945846273942 -2.1367726177871393
Ni 5.180420355700305 6.729874424521618 3.521281761434941 0.7019299320841266 -0.1595886303313316 -0.8581635299002962
P 4.797082801854801 5.9784618559505365 7.391062433644578 -0.2400237929599479 -1.7707179758466474 -0.6123640107988356
P 7.412198626974646 7.416249738316842 2.5006952487409775 0.8354627458686709 0.5653848138358198 0.7676154472073942
P 3.076887649805132 3.4188636311884304 13.112550317575224 0.11930381466935581 0.5524421376322228 1.1091425363201672
P 5.183849626023835 8.49854574186471 4.875229928459494 0.16348128051751845 1.0387760707814626 0.6679679733163851
P 1.0275374150217373 6.7163402376447525 -0.12258406869304125 -1.064316124034096 2.0095991705617195 0.9964662542696581
P 1.3563632878044047 0.504163092716639 3.214314514930498 -0.18814227359930824 -0.3850188417478208 0.4267907834782843
P 7.527211781265418 5.549135500886276 5.845867061329045 0.7990070741447981 -0.030226145874393102 0.4651966369499924
P 5.118912963177467 1.2125259733542522 1.7957744410361023 0.45151733969068697 -0.34637618967495826 0.38425625255018336
Ni 3.7192860009714046 3.04555783612936 11.062649570595891 -0.3485582849279416 -0.8620646647269153 0.016605983987797206
Ni 8.825542670474828 0.3539144144696145 4.796517658105483 0.7988715770081983 0.553366449218705 0.4724872570741347
Ni 4.202996011006422 4.697103568662385 9.298207686651821 -0.304586764442998 -0.033437967943471446 -0.8835914830550976
Ni 4.752538866532359 1.8517693958228767 3.9648482758266708 0.6423271328198292 0.10437624682524604 -0.016810129578803307
Ni 7.269531836794924 3.695034201243398 7.024134166915187 0.9950403204564089 1.2180436675989603 -2.220861832228575
Ni 6.8874288202658915 0.6504127845303839 3.4661656143230766 -0.8264859962913571 -1.8046398254050726 -1.295276264129879
Ni 3.028155432327552 8.251135318923081 11.743732834427844 -0.9010338469012612 -1.7227643307855038 -0.6377770515553016
Ni 5.03450718961431 3.01127427761492 7.277671552834856 0.7851621978419059 0.36665345186675563 0.5323924180701992
Ni 6.145279853928772 8.680571410637695 9.731347390315845 1.2534428730338607 1.6042832691277595 1.0268137562132638
Ni 8.847243093082128 0.07451301453383752 1.7670920240500956 -0.619696797014823 0.2774508274581544 2.4169979226666376
Ni 2.4374704776401157 2.3742255881533554 3.8800593384593642 -1.2965631012621024 -0.40187679384542396 0.7211281022791323
Ni 0.762637713430105 7.2849041125652025 11.291385559063704 -0.2641903629038224 -0.7207005278234104 -1.8088253242413297
Ni 0.9189347100557503 3.8380850696993543 0.633453899690419 0.8744059599010877 -1.2456534588964288 0.1956465523961534
Ni 1.54118724116139 4.164963116938257 11.65796632640031 1.0940738149125027 0.011497459116638263 -0.4244474800570884
Ni -0.08392201782951822 0.23009672293218866 7.473081435062558 2.1987799127278715 2.7965063761191904 -0.651552250962523
Ni 2.0919189103994835 1.4633656666194108 12.150599755053195 1.2445998208209341 0.14423117403865482 -1.2118910177340032
Ni 7.484560803161564 6.177002890601642 8.094670973905648 -1.0588003364221894 0.728757593799932 -1.3626445662722082
Ni 8.801263436584234 1.7488181283500674 12.104892611237013 0.45530971685358357 0.569084117064278 1.0813509680291957
Ni 0.3909487050195685 7.2622983625924915 3.8113715111150968 -0.6723118521073776 0.2794876553825251 -0.5714004239022805
Ni 1.681311798941267 1.958689472150118 6.4577668539459685 -1.121954857593487 1.0061670264971898 -0.07144170088075438
Ni 1.8772831670299417 3.9671719493978954 9.11164440738674 -0.34995259417230695 1.3137982341934664 2.1010484249126526
Ni 8.97114491605149 7.367947322719811 6.276464532593227 0.7375307120068718 -0.771837969929174 1.7480855831591118
Ni 3.4236280307579214 2.5459177223514358 1.8103364945379412 1.4918574125251598 1.2499196903719507 -0.897594739312725
Ni 0.5881793011710434 8.995488162988124 13.07361575402999 0.18685440802582012 -1.5067019337371599 -1.6546360105486988
P 8.67819378321338 2.2800166738253327 1.2233853293787647 0.07461804172620697 -0.5013172939319496 -0.8274637868235943
P 8.613202252041836 2.199378525257627 6.298093626377797 -0.058279709577499623 -0.5294585322528559 -1.0443545933105045
P 1.7193538377302957 4.450790512224287 2.7761955107567067 1.094769812538263 -1.277383443009858 1.2391118011231692
P -0.1169765258600046 5.433445637251659 9.708741640343135 0.9472859358902652 1.898915236350891 -1.3681644676491727
P 5.158994274718888 2.7004452154901393 9.434859993920112 2.15322433558526 -0.3492900208876436 0.8268932590321049
P 6.126322847580297 4.515873490604458 3.362906169757193 -0.18337262012480676 -0.06743155128009677 -2.0835124729114183
P 4.37947083421572 0.7453962567154813 11.68181667288244 0.2800481558716854 0.08017239588553289 -0.41100626695051795
P 7.690499916990634 8.889802623977353 11.649493742520974 0.19221772922026253 -0.2926391051628186 -0.6811518189965108
