# total energy = -340864.6670492687 ev
CRYSTAL
PRIMVEC
9.33221245157010 0.00000000000000 0.00000000000000
0.00000000000000 9.33221245157010 0.00000000000000
0.00000000000000 0.00000000000000 13.65863623736199
PRIMCOORD
 96 1
Ni 4.7865944871766954 4.796188001710051 13.197767147234948 0.24574706859697032 0.5382054252075505 0.6578915629169895
Ni 7.505590615951187 0.5014655098233242 0.42614148919635775 -1.1030168830384035 1.2717360149160934 -0.34626897467313267
Ni 0.7541034359334147 7.731495485901504 5.405869848623632 0.7646329675403025 0.9279242435342019 1.9346779957727969
Ni 2.478486346134779 3.9522106925145004 6.879485941337413 0.2921925045437032 -0.36811486690363054 -0.28553771823134694
Ni 9.309385989111291 0.9613392146152703 6.2837240227097775 -0.4219252278558669 -0.72559847934566 -1.3277546963735585
Ni 2.3841936702154998 0.36783942431728966 7.050874825052807 -2.4625301027704816 -0.046038944536933614 2.0162272174011986
Ni 2.020974624347105 3.870927120933253 9.145768038812168 -3.1960704626710377 -0.5062597255388894 0.9445029738284896
Ni 8.674590224920752 6.653699590486878 8.641559791711263 0.6976187063032824 0.09061570270604394 0.3762084425450424
Ni 7.601871053150237 2.89983574417075 3.528613164467746 -2.6202336002639584 1.5842458908609105 -0.7977696021932712
Ni 9.324224207115217 1.850363113939716 8.361393704929487 0.23083569870277665 0.8916048402778773 1.1437115325442884
Ni 0.13958656968157326 5.455620807114653 10.55499839726527 -0.5413216022390289 -2.475662012166749 -1.7482771303446278
Ni 8.826359998126932 7.089588575724178 13.502490951423846 -0.09478166115827548 0.84156345944977 0.32247572890827686
Ni 0.5889438041158953 -0.03536721923979451 11.885417287249858 -1.2698495965266583 -1.5004310131267837 0.646487691955422
Ni 6.458460371078006 3.577858317036872 1.0141278083014338 -0.6114042179887277 1.8916104751593619 1.6713394393463086
Ni 2.8523254499204476 3.7230208837356433 3.5852279653121544 0.7222881840255044 -0.9603785074081654 0.32639280457449593
Ni 3.6168109723503195 0.6547844303179635 10.526929901485143 -0.36821642547850136 -0.0936945987416838 -0.26587572102604534
Ni 7.922787179388575 3.464061316823126 10.387174418755851 0.7111766474933752 -1.8550241913948955 -0.41947908030821945
Ni 2.0861694614385624 6.39533728517955 8.895651676541485 0.04793230490490454 -1.0823058757432975 0.3165868742276676
Ni 3.2369245948121077 0.617688885308152 3.779754203679831 0.3729189731604933 -0.08386655690766846 -0.32552197193376836
Ni 6.104638863278764 2.5033846893011127 12.398450074567435 0.06358800916429048 0.2754967890555772 0.5694492137131806
Ni 4.883238880666409 2.141257512304705 6.944215101021074 -0.07137228109539966 0.5961061541790766 0.6739455310560586
Ni 1.1692329142840927 1.5896117622116304 10.435963226129761 0.5552438687470761 1.968518598471326 0.3060715765186406
Ni 6.379668500255908 4.158695228083579 5.606337906741685 -0.8893556392323845 -0.5658429844191609 1.2329236700345862
Ni 4.655784863427632 2.171316569028378 1.3046853137922454 0.33731022281794815 -0.6495514184824103 -0.2384325372134281
P 7.357824361942294 2.2579288339934247 5.726806505729649 0.47860365438451774 1.0331880351707237 0.3165691336158548
P 9.099961806579172 4.240258766042259 3.650188563867826 1.2093263423306204 1.9970524442449606 -0.3485356592201223
P 5.397639770348373 0.2775297367276175 13.067804888388247 -0.30077381845481105 1.238077446321384 0.06712353312137473
P 3.793059139156683 3.112068922689776 5.32781055648915 0.83618471163636 -0.06232791150494426 0.7440903675022604
P 9.004595926213067 4.436067250418576 8.420891226240192 0.2244979294102069 -0.21814010551297913 0.32996972329247687
P 6.4936894735716 1.2840564578817577 2.4547032023718844 1.352393063747529 -0.3906999512929981 -1.7250022189770873
P 1.157698299533872 3.617781522458752 11.58236021622794 -0.3532289509307336 -0.0927188650919758 -0.7667502709936215
P 7.496099755756225 7.735750974838477 4.575479307724883 -0.3785738574534254 0.19586638171644333 -0.06784678444064444
Ni 7.19878479513545 0.6508070413159052 8.32978736735987 0.060768794547940506 0.5213952956287472 1.0626629047013894
Ni 7.298331506737879 5.502011235855224 4.033490531210715 0.23195155747477472 0.9201199169984347 -1.4281956127001405
Ni 8.27344506712283 0.9353116737266253 4.0833040155260285 0.10077644528912966 -3.374681142630827 0.303828803231051
Ni 8.41576130898437 6.136834996683506 6.0357382045713575 1.2725711092228795 -2.152287425593287 -0.3581816669503186
Ni 3.845506173862379 9.205985073712872 1.6886172054843573 3.369502940863997 1.5517553744323729 -2.503835389277172
Ni 2.6721390894048658 8.125202870272302 12.378863626802255 0.7509978932553711 1.302562256268331 -1.09425996278138
Ni 0.03001892820957491 7.019214360650219 3.4342458308478188 0.1309398562463874 0.20038818084619683 -0.5745842209469006
Ni 3.3416973454599446 3.231465250452173 11.085963964278662 0.25305414378134483 -0.2961291205939481 -0.12962756519286706
Ni 6.670870861636073 0.38767970826467557 6.009185260114398 -0.5061555958608573 -0.8222796715194934 -1.7891566421678091
Ni 5.168421964931773 4.831771728281726 2.9908182842875184 -0.36310224418038756 -1.4711510332157438 0.30008399147663806
Ni 7.042479566614864 8.142672772224092 12.331604369070384 1.1717671531299239 0.5880187491852519 1.0854431358206984
Ni 7.42559488970613 4.877452908866135 12.253791447348043 -0.42480794872030064 -0.10696740459118997 2.0099133593680287
Ni 7.444119331679582 7.970922731881809 1.9981629639139018 -0.7393878198202686 -0.39962013660076334 0.36171487691455767
Ni 0.156818500212546 4.801330050842228 13.487562210957885 -0.9921504005031236 -2.5055084061042203 0.030903374447075815
Ni 7.1664020174790855 3.205680347090636 8.063499213907429 -0.24803972128588894 0.14936463861047825 -1.0274686161884434
Ni 1.2477168220910144 6.2100555365946954 12.227935619170891 1.8622906431493216 1.6588762738822915 0.18831325195953377
Ni 5.831391678904605 6.787635505450605 8.71905915109088 -2.621006473874241 -0.6321954437024662 -1.610410207961104
Ni 2.3791916042720382 4.02490862852115 13.27493801273171 1.3058139304364091 0.1930296835985966 0.3396098174854022
Ni 0.8055323262465139 1.9723444645870731 13.398125085244542 -1.1037640456170732 0.7536253035758892 -0.21571555523188654
Ni 8.470242766032742 5.6306931151358 1.8066687614138195 -1.1881983021027538 -1.2592404535522443 0.12840140609524983
Ni 1.4337638121075174 4.258129953135035 1.8662344078763666 -1.484373959663921 0.3155208948569985 -0.06622878922124724
Ni 2.894311074322747 6.569896321508738 0.300196747865814 0.04733272364769268 -2.0354487846349723 0.9495670186149582
Ni 5.483029515465298 2.2821645900665013 9.80317202120164 -0.49881381078380543 1.756482806083872 -0.8979752625805955
Ni 5.8620666616586306 6.630163750357382 5.908262047156257 0.58847511999638 0.8406075232944038 -0.05615135038058717
P 8.20425604304667 1.0525429281702103 10.629874471688344 0.8926836751643529 0.7037777839261428 -0.9591664893779354
P 1.8215265770641644 0.06992440242755087 0.41374457800364495 -0.053903691996991035 0.10159945541105726 -0.4718087429498713
P 5.319510486619532 4.208631897604963 11.155595335231167 0.12835949711372088 -0.07632679688719757 -0.23270180537723795
P 2.9179775654283784 2.0218798489674703 8.397001695253875 0.6766217923366412 -0.10532009879575409 0.7022842300997518
P 1.2265140351067898 0.17990359447437504 4.113544117173776 -1.933671923105786 -0.6687920118795773 -0.3993056906841382
P 3.6961347792895385 7.50466672690566 4.622178632701888 0.9861957255815854 0.3455596073109339 -0.6394125302761955
P 0.1875074812854428 8.881942656259872 7.8399068662347045 -0.17751410446150073 -0.7082895557535672 0.5979241812244218
P 5.696653193658906 4.89771314237967 7.694374743917722 0.42839798006440416 -0.33823299174253363 -1.3491915260910958
Ni 1.2568997192708016 4.996849236628532 4.9702272337984725 0.08342484138455955 0.2670771975333142 -0.29364492071951365
Ni 4.176361106499572 4.455123628509151 9.131194855645544 1.2894743127361212 0.6099050077353818 -0.14356680098177857
Ni 3.480924624957146 5.948258977057528 11.247313253699325 -2.0237402379487923 -1.3590571060312657 -0.2673955001046814
Ni -0.11426454406405825 0.527319471557961 1.926277863623065 1.5503314975016527 -0.6571752535762553 -0.32368928960040383
Ni 3.543357127124602 7.537992058032713 7.398582800390181 0.6290728389130843 -0.23424523860495786 -0.1446975721521121
Ni 6.724559080615053 5.545014071428862 10.243744843933388 0.9900549514266757 -0.6256368166483419 -0.8385709524803493
Ni 5.072533480661129 2.0682329488577174 3.857403811682004 -0.06949357601544806 1.5889628367206055 0.9665288432802772
Ni 4.819490536525019 6.972254666942201 2.4324664062336763 0.029467670441813767 1.1228830258347113 0.009719541280609067
Ni 5.518342607872122 9.115294631849892 3.6061535855827205 0.5060075003187672 -2.1079760052704213 0.42427084526990805
Ni 2.6302094582780526 6.0889794105677035 3.1421149143158362 0.703462309568253 -0.7203886530099465 0.8915547037662322
Ni 1.967902331398477 1.8589674139394758 5.3257891992440864 0.05444156677833205 1.4944251732523357 0.6966391159988324
Ni 7.439303909987744 7.795869088285825 7.0310700035132285 3.3208535552874094 1.1201555996012194 0.559926618934726
Ni 5.403491067636713 6.851775802520399 11.647019384317243 0.16365971507691168 -0.2665434365170313 -1.654148786499635
Ni 1.6522495730558706 8.636160173511845 9.581124154711087 -0.3836199045177651 0.6210232291357304 -0.36872447546317144
Ni 2.23964702954708 8.133405885131074 2.318689936887609 -3.6771626878053634 -0.3899617875753929 0.8814831784628432
Ni 4.198870403245149 0.08988133903220034 5.902265167351653 1.6267894206500757 -1.1101606931720367 -1.0650306336026172
Ni 9.125392085862627 3.4348421592317497 6.214939083438377 0.15368126370796112 0.4692818627629595 0.4223108933300598
Ni 4.156670137953483 5.371509575121337 5.448812958036751 -2.230512982165094 -0.9789477857699204 -0.41328554990299793
Ni 3.2562329426423715 1.6745442289120818 12.868347508892725 0.44754627085808085 -1.2838549096668146 0.5451887985039191
Ni 0.7999749936544781 2.3208746078528404 3.28394588112316 -0.7132301875882943 0.4450816113676722 0.7871231782230187
Ni 6.1648316344267595 0.5947372416862325 11.000187865560882 -0.7742635486515311 -0.6472153141500661 0.7845569601577391
Ni 7.022573957179409 8.164351502049952 9.901295570385455 1.2459488786496606 -0.07429022607314302 0.14993490929165146
Ni 2.3033113837752395 1.8105985561317144 1.6934792882391023 0.528700828151225 0.3605249703715146 -0.5399743441825151
Ni 4.814460473943814 7.640497081023346 -0.006476555531272729 1.5293063014002373 0.2921104863528582 1.3195788454309854
P 3.647215320939493 7.773593096854776 10.053849249448445 0.15303463126289774 -0.24476413585841073 0.08325129192117275
P 8.69590499845595 7.334932444480893 11.051380650895679 0.4924156205669455 0.7636572338905945 0.6550003574121235
P 3.5802193668198865 4.059717781448596 1.5771625906284639 1.1058602660244696 0.36798476908366945 -0.8497809622635558
P 1.8750374840041037 6.085834454927879 6.7098459142597155 0.20724557008766242 1.0305585679676768 0.7098903245817839
P 8.074836918972187 2.9300721129334635 0.08590581647265828 1.893514891270926 -0.86386546538108 -1.6758319279000236
P 5.691651127715445 8.56013996982633 7.592999851870658 -3.2154095293192815 1.761965683575314 0.06349776344332936
P 6.819477014777265 6.265628862515055 0.40198039082392967 -0.9992990957327629 0.5031569182438496 0.22107990486759344
P 1.11216643435076 6.434588571295591 1.407304189776368 -1.0010093935556503 0.1299584661697246 0.21593949831723455
