# total energy = -381172.0227973569 ev
CRYSTAL
PRIMVEC
9.22619436628815 0.00000000000000 0.00000000000000
0.00000000000000 9.22619436628815 0.00000000000000
0.00000000000000 0.00000000000000 13.50346805308944
PRIMCOORD
 96 1
Ni 5.763557618953297 3.607921840269131 0.09439135144028268 0.5836753846148917 -1.664375606433966 0.1127996950022509
Ni 8.511229077210077 5.493064046453961 1.891214887452961 0.9651661586047957 -0.5887821097138376 1.1443221695450938
Ni 7.512401252707106 5.712509084379355 7.034929076389787 0.47043911629585433 -1.1116113095756337 1.9890856239894
Ni 7.313263069037494 1.644264718265713 0.20509092440828985 -1.5134983878337032 1.8557405007356298 0.0010202137343982428
Ni 1.2163169091788313 0.7292384190718167 2.0785619944579246 -0.5991009751413424 -0.6816467563550582 2.7511783416063524
Ni 8.196800366152795 2.3510834845244672 10.51876967108183 0.626492736890734 0.6853010652781939 0.6353255046910156
Ni 6.540255582910051 7.336070222022635 5.8713620120642105 -0.5907718864503568 2.2327773527192383 -1.168970050000761
Ni 4.583084475691647 6.942416178164624 1.999377256913317 1.588557887972703 0.6855581755943225 0.38276706959916657
Ni 8.771592288067955 3.121193945555901 3.739097106853612 -0.02889097200273734 1.127225361963807 -0.9991710547953306
Ni 8.845835475799115 8.671709505617658 6.739770195318252 0.33471546550757836 -0.144019572248481 1.3886142508630925
Ni 5.838132949689094 2.3455846725587937 11.41997789866333 0.7135189224733067 0.5584508057201479 0.10726205301347332
Ni 2.396540945187003 6.471289778474805 5.321014892670948 -1.1826012676309503 1.0964752252651437 1.3374755232057483
Ni 3.5494277666745546 -0.002637769028499904 5.6413714337415595 0.040602089792078466 0.965032461240409 -1.373787727373221
Ni 1.8632668988515901 4.8914423507197125 1.873173986584375 -1.131646373849638 -0.07383334104138252 0.630165814866947
Ni 3.3110598036793686 0.7370400892029798 8.892047639177745 -1.669942558998782 1.2326097383385934 0.9572129651959901
Ni 0.7106079643699984 5.37864078135618 13.404569256153513 0.3780658074687553 -0.8568928907179888 -0.647047421113634
Ni 5.182538015701176 5.303954736285501 8.03681907487163 -0.7595347270817887 1.0945607818512504 0.9822097443506439
Ni 3.360318456506095 9.031789427423515 3.1348837730637293 0.9033504108495797 3.2062967683847363 -0.21415618116456664
Ni 8.213684302221893 4.108784265068621 8.883175730476083 2.4607339301020072 0.6505978574690537 -0.13545754161108284
Ni 8.583913038058354 1.9211243650206105 7.7579315105495255 -0.858580819943373 -0.2807865766996067 -0.7011166921542119
Ni 2.485195448841622 6.127678613982249 10.82587924198413 -0.2249751261569416 -1.4971867951578732 0.8037260768870222
Ni 6.844803039579352 4.88422746656341 11.686995041047455 -0.47650049199858585 -0.5692748929188454 0.1628243636598099
Ni 6.595880309992338 5.7028308062719875 0.7162128775732642 -0.8317621570886321 0.4758651724074321 0.12354613488547755
Ni 4.390303140083024 7.961191035335021 9.09035915581359 1.0259156698790268 0.5447218861698296 0.8901516527711186
P 3.778034415811213 1.6581962720713614 0.7743554331545988 1.4872384256959097 0.47425694738004776 0.9143233649213157
Ni 2.567502330629826 2.8191744661996774 2.7987015404415754 0.5370443150199137 -0.6016877620319122 -0.7214019247658092
P 0.9214209746526347 0.6117751228621403 8.505159163800318 0.08698376238041149 -1.9916760104243956 0.13190093460807606
Ni 4.096015211779205 2.98151858591106 8.285566506761752 1.172343080238052 0.131736898226386 -0.8531660766857048
P 4.662309808492377 0.693421409118898 10.604773489035546 -0.13085578117301336 -0.2619653302280456 -0.6904111328112497
P 1.67975788878911 4.686021128545699 9.448458213644566 -0.5856867586179655 0.44302498594895956 -0.7993899114055135
P 7.861345157663017 8.70460088927139 4.401415168827078 0.11901122312960147 -0.07341990765304775 1.28773239034435
Ni 5.060862961668798 0.3627545956126491 7.4300270196985165 -0.590630475776486 -0.2517631928840632 0.3063492556600595
Ni 1.6034849382518288 8.010901771695837 9.775039668193767 0.34070073655673583 0.25933971967974045 -0.9599668737920435
Ni 6.970537619223972 0.6931317066092971 6.440087711047439 0.19763504358109188 0.5847035687690898 -0.9271408284009581
Ni 0.9757623380697792 4.4867722305412086 7.10917134150149 -0.784932598329603 -0.08228275736031636 0.09848250704863039
Ni 6.638044019192214 2.518197546830234 4.664907904884212 0.06989004012291834 0.9154099131172752 -0.20640379091265743
Ni 2.4731183601452025 3.661867399939082 13.509679600449028 0.0199558742966366 -0.4905065764696907 0.018923062156748053
Ni 5.057698376930165 2.744064016178629 2.5204090656694484 0.7690753195823723 -0.5562000620127583 -1.0057931880975388
Ni 2.108351531496121 8.438812676004426 7.263380725457614 -1.0687155386533722 -0.5827374461816544 0.3391745297201965
Ni 3.6584998389198353 8.490239484555872 0.5979201464714501 -0.7755940945374965 1.3820684793247746 -0.24117513295557175
Ni 8.50681895620405 9.131995126683876 0.7526332806512753 0.6265230759080371 -2.144830197984293 -1.3670478375462263
Ni 1.2382014427066443 7.833611216775745 0.6538391891606249 -0.09626775878549873 -0.28297458548986104 -1.3377097507037414
Ni 3.260038947689147 4.782490219003884 6.576701819332867 0.9656271574016143 -1.081933322895227 0.09980508251479585
Ni 6.590381498026664 7.2634139397580775 3.2311904824974245 0.5480782042365722 1.822031538518959 -0.5064103921841407
Ni 5.64286976774026 5.163292173821319 5.887296572711716 -0.7875790348135147 -0.2601488458445971 -2.7773056348210234
Ni 6.872186385072839 7.91434041929192 8.240383986697498 -0.1567431904627365 -0.1386642214738386 0.39238710918743386
Ni 0.10705153563373343 6.533363615563813 6.1384880235443005 1.6208095489175571 0.22150619377173464 -1.4500998689723994
Ni 3.356314288061293 5.352549103102952 3.6820718434351014 0.8954067305224709 -0.6449548002506634 -1.43928786595856
Ni 9.100690648496746 7.811320730686708 2.7485903872362787 0.0994142748342804 -0.5375292250761323 0.6117086366030239
Ni 1.3791869219808908 3.018967709683991 10.929625954721716 -0.17073847630056405 1.288196474464962 1.9789148541039854
Ni 1.2836035462017408 2.6424374829539823 8.708197259916053 1.2421870976143832 1.051963258895698 -0.06615962654620865
Ni 1.0894751861854186 8.536610338481163 4.89750580579327 0.6985625582737904 0.032149845259667215 -0.8712784700156996
Ni 1.9580291433137185 0.9648938808624588 0.06540910642724754 0.5703750679615597 -0.520892902071032 -0.8719994073421241
Ni 4.305523638149181 4.811146779348482 1.4135295860409998 0.3078674920767988 -2.378020770072492 1.5490302621917258
Ni 6.372320389287262 7.769415354934884 10.984666663687515 -0.29481837220232454 -0.2060330378368 -1.1866363569322727
Ni 2.9254971324621213 6.367255208466533 8.459180423144392 -1.0046426194328633 -1.2937994224740361 -0.6635235643917864
P 6.594182690190856 7.956153533098011 0.6958700411586457 -0.06463084860650804 -0.031288525700636435 0.22291310142159027
Ni 2.6219922357796004 2.0524500185766357 6.777822712216276 -0.18026287085123147 -0.20099367564067966 -1.5223473535839007
P 1.0799722057749432 5.8952154155139604 3.601509635040703 -2.1167864044731997 -0.5890219936387856 1.2644135131127514
Ni 8.172433986284771 6.552655588416536 12.695056441079362 -0.2362923509419737 2.2860151289974566 0.09548460076257104
P 7.053490334632306 6.042151790287971 9.551488973683265 0.17032170047811956 0.1349813733056127 -0.3978843848565793
P 5.123785608658547 2.152231312886627 6.138298886555547 -1.0871194950818568 0.07617253069752043 0.4668282590161444
P 0.2840154832659309 8.541933852749942 12.214143816805668 1.0222703598169558 -0.5342004178132155 -0.3753067566663794
Ni 8.528509739645825 8.241713481335507 10.022071950512718 0.2940958922140032 0.287953269651375 0.09943072989451263
Ni 3.604489695887872 3.7806638812645965 10.363128381727932 0.3507938591266797 0.8069502402512748 0.25407178641258177
Ni 5.794723704221827 0.36861507440559466 4.078736394582372 -0.35173616843529104 -0.559382573505798 0.9238791269305509
Ni 7.647066788698657 0.23050539997983877 11.843392878356362 -0.1292706960740806 0.7721794124289927 -0.5896141186968297
Ni 2.326846271380468 7.2517981607903215 2.6281802444798976 -0.9006767206721584 -0.2999338390520189 -0.6796178988504876
Ni 4.322748943417489 7.382865480898296 4.280639668765595 1.594360610697409 -0.4783529718262923 1.6085477008310685
Ni 3.517754240704494 2.1453116669566694 12.085576795427052 0.5188013096493259 -0.8102363672017143 -0.22742564457996314
Ni 5.4528286119199 0.2531326421708007 12.549731882497303 -0.8338367802294736 -0.16847667684958081 1.5465645742600524
Ni 6.610854423784767 1.310424093826257 9.329235482129764 -1.1886914396890882 -1.4328449385466937 -0.7734965885785196
Ni 0.40800169903891437 2.8979753940500363 1.4394699547032255 -0.6583245366893501 0.20625081027456094 -1.0364301962571054
Ni 7.8329284783773225 5.632010536727513 4.444328967645762 1.4799838010160256 -0.548921526073474 0.9376157597903528
Ni 1.7501998843560802 0.6585574650653988 11.052481039040016 -0.09935565368220307 0.23868141999944054 0.06790103471734758
Ni 6.150845588555748 3.711061469403795 9.502971184280772 -1.6916740371386028 0.39122497055853267 2.0135674111808486
Ni 8.968691482736872 5.586894445264188 10.647957615355228 0.9793123681981909 -0.25157653079455383 0.7888697286004801
Ni 6.172951550753319 5.069092727228162 3.03987334396758 -1.2034524000483466 -1.9975790061723921 -0.3783645696560967
Ni 6.629233003374734 3.544381038242972 7.333504417311806 -0.6651888679093512 -2.351369228923234 -2.083758013263321
Ni 4.920698613711574 6.040214289427582 10.300445615797088 -0.18742750692047075 -1.1566668071533759 0.8640199886810733
Ni 8.999497746417044 1.311291356116145 5.15104624576421 0.4273448562095415 0.358206349540667 0.1288760317388232
Ni 4.313199832034147 5.04141414350833 12.543222802225856 0.19086095808205195 -1.9430109411185248 -2.307496181689368
Ni 0.17471829187306187 6.573921966907939 8.536244981176061 -0.005879855819544712 -0.56963587580269 -0.9226023171006562
Ni 1.7215156454277618 3.805408535110126 4.775947001812515 -0.1539185765297478 0.08272421577310915 0.744249518787944
Ni 5.133915970300006 7.065170696962075 12.82617450525749 0.38584930806891615 0.39396576652846343 0.14002947725248144
Ni 7.9072177970813495 0.8067347630095146 2.679357945777865 -0.6682631359593006 1.576669621175549 1.0812602080876024
Ni 5.516886080842163 0.4006567255391285 1.7835110598628967 -0.12696107410429747 -0.3470289927676088 -0.999103434782189
Ni 0.1627509948920642 1.6545334728257706 12.521104845975339 -0.7283940398129263 1.6702477489440268 0.09581832995290596
P 2.08616253354739 1.2930973004176427 4.2799652339422884 -0.5647404953836016 0.11919839943974311 0.5389726423908783
Ni 3.0650986825503765 6.209514959847216 0.39283844825773356 -2.460266503547286 1.8273853466317045 -1.4502417938669023
P 8.273682245531914 3.6730218691781737 5.864583526911223 0.9612408554084606 0.2950536281415822 -0.08510300041793085
Ni 3.30436158641917 8.049393455455547 11.570933203793459 1.0739446482627957 1.2610186284985896 0.543075351705342
P 7.367439283571777 2.998107283753812 1.8683800558841004 -0.38841578324451176 1.0041898481661609 0.9821117853201988
P 8.768547643858774 3.850349328876558 12.300336771748137 0.09264918819630495 -0.12648156336471766 -0.5762009306147173
P 4.167601255473262 7.512484288458265 6.880274067235773 0.7193504415534192 -0.9268721481206037 -0.35122220491335
Ni 4.333580495846516 3.6198328574632312 4.534424602892726 0.27943289088518974 -1.632364343634692 1.4013093298322574
