# total energy = -340867.4479018127 ev
CRYSTAL
PRIMVEC
9.26673620169058 0.00000000000000 0.00000000000000

0.00000000000000 9.26673620169058 0.00000000000000

0.00000000000000 0.00000000000000 13.56280512722273

PRIMCOORD
 96 1
Ni 2.9524839910585774 7.368852785327043 0.39035661631691015 -1.6703297671348716 -1.8079292947896222 1.5723920768461177
Ni 3.7490989424926164 0.35210353053176835 5.531209943139961 -0.5985564154917822 0.4098436141009845 0.1573512563603806
Ni 8.665927075644893 1.10288057284851 4.807499183032823 0.834577257939924 -0.4642147326526973 0.8219798808908876
Ni 8.55974881573061 3.7424917597976544 8.054773796443918 0.8430503284079418 3.1683886804850525 -2.4172848577794372
Ni 5.94408287434077 1.7606242201216638 5.1815611709474565 -1.776301897692328 -0.4085606336235028 0.6957621127105179
Ni 5.211510334694792 6.7248702408617715 1.7724411617382365 0.1042903719796591 1.4120423999790455 -1.0435711781772607
Ni 1.911449613590406 8.93733123661273 12.707967926678462 -0.32207412259448404 0.7448928087988977 -1.9617866790641312
Ni 2.9972330587079115 4.123864275661877 10.515879849798297 -0.049567012294850124 0.8239645154210842 -0.3725703315718229
Ni 5.041039461123215 5.098224488347079 12.016915923895107 -0.09145336811599089 -1.6215268866995558 1.009960432101351
Ni 4.881494069174867 2.4273195342718634 1.4631555110947496 -1.0046922417238764 2.08977773709484 0.21715023079588408
Ni 6.216849245485549 4.491244020320778 5.079487148362206 -0.7202127895537145 -0.3677587691157924 1.1804327992247217
Ni 5.870745926447453 6.727177658100264 6.825698814142389 -0.5000893350621194 -0.3175163280204725 -1.7241630109052437
Ni 0.3584846048708305 2.392902877148313 12.493296576222688 0.06446964043829542 -0.31204964847894645 -0.28936403395597265
Ni 0.6217460850054789 7.1388987340290075 11.8043462691409 0.9924982707608455 -0.7308185900940188 -1.3238620461873716
Ni 1.1065038665844573 9.134165973812873 6.219983255566106 1.3214619213863112 0.6515615069339037 -0.6066728739513293
Ni 3.6163622174959182 8.669531835909044 2.1272311190067086 0.6088251444076418 0.6637379943954376 -0.6700618797309363
Ni 6.7623356540956205 9.282396681230297 12.881898072760599 -0.7916573186479463 -1.1653077706578252 -0.5502754689982071
Ni 8.931530259940855 2.577625990530342 9.894350606412823 -0.4285314203184749 -1.930917757399416 1.766464599886932
Ni 1.3208620013668941 5.107871160416442 6.636646281749019 0.44850914899198246 -0.6008462399672233 -0.25166369119172144
Ni 6.400460350559871 6.607025160452458 9.090646602017147 0.5752961594122608 0.7965766103264346 0.37780509760820097
Ni 3.8830310764201004 1.861205371553817 10.26026157343196 0.6904013626192367 0.40286024080461585 -1.784561309487643
Ni 2.0386355637844638 8.20746458384884 10.005593137495122 1.5861791033278811 -1.1028693017169457 0.5972284407089778
Ni 2.5984020124126794 3.91034014711022 2.616088504546769 0.2858809605033786 -0.688680266163072 -0.995420329503647
Ni 0.46785896199618177 3.2901175134863005 5.3911608368464945 -0.4209574646259589 0.2006882285851189 -0.03950191474936422
P 5.058785260367049 3.0780019287910743 3.5263025180018586 -0.11184478728814932 0.48305680505986487 0.9021355646058721
P 2.3288975323038423 3.035050607905868 0.5990286819526022 -0.5973521107710358 -0.7920422127911908 2.6783418172606
P 5.646481650990521 8.683070537055384 5.303734743694522 2.3961298209683766 0.17426140185215794 1.3474218357851826
P 1.373228325924025 3.6359891641269577 9.058230633173881 0.8167512855020965 -0.1367232956973839 -0.9500161903372348
P 2.6915141747113966 6.077236602452858 12.111869386616672 1.0117285797453672 -0.17290437360363126 -1.014627241449401
P 8.756064615720492 0.5979880275113058 13.440603480128546 -0.030145927455760984 0.013780855834176266 -1.1901240583705568
P 6.620888197355212 7.776913500576248 11.015194746798759 0.4638444937974721 0.3372343752746902 0.7688220659209856
P 7.602698865702056 2.8925282098013425 6.128529838993052 0.638043674953127 0.3111507908137609 0.4678834397535361
Ni 1.9122743530852888 5.428500222472137 4.164038355798583 -0.3329781711014975 0.664476672333675 1.2135797182903356
Ni 1.2131454632936172 7.1785881638782705 7.572696881560105 0.3968703417697681 0.9430713835882856 0.7464334138131403
Ni 3.5335731989870864 1.104641252669047 0.3609143430231716 -0.19653384009711314 -1.3491287911739605 -0.5988019558436848
Ni 2.9364988716352807 2.7292205230785824 12.251227194412179 -0.13681174164613213 -0.8658606414342377 -0.9625302636438454
Ni 3.076241248970537 0.3296984164786395 8.11439504853525 -1.422624546370266 -0.12292315658949797 0.23014124373891334
Ni 8.07864768813681 5.779246176194912 5.831450332873836 1.0721471900427408 0.1962463907636814 -0.33706596801762595
Ni 3.26258604113464 5.241469691851615 8.265457670442972 1.285115007326161 -0.28846929005584515 -2.7806290427673015
Ni 9.125075305897363 7.285100026284865 9.415936832229315 -2.4508287551731534 1.0399526075880672 1.1290932684104813
Ni 2.943819592994356 2.8377803341185373 7.371967335262214 -1.0438727685780798 0.6558040842603415 -0.11618609497598054
Ni 1.938193413390774 8.009907041248685 3.8744324721807515 1.747436122500571 1.9439180263138265 1.0844689448328872
Ni 4.452156928304856 7.651608697769396 3.939086488538052 -0.04198174374842447 -0.3345393449410303 0.8413706267126735
Ni 0.1684396050628307 1.6099748946349752 7.368495089321397 -0.24819347325493385 0.6507816913450857 0.47523293814007184
Ni 7.149675947877872 0.768456121062113 6.908228364046089 -0.5591519455522306 1.1129541967567735 -1.7068116641109896
Ni 1.6360514894507188 5.885164967504062 9.482678644184338 0.18552411925017082 0.7905106066380128 0.8051322132059295
Ni 1.5798950699114844 1.1105812303793852 10.502249407966572 0.265067366192137 1.4291338082436937 -0.02876524505815046
Ni 0.3588348874877584 7.605645687717481 0.6058137859767981 0.9539857165079441 2.124383242983851 -0.07985357909353344
Ni 7.841845519010475 8.12482383311437 4.6465758274565045 1.0889398361200473 1.0033149017603753 0.5947151873688209
Ni 1.389445113744761 4.555481033562687 13.064791932476451 -1.075577555880528 1.5218788985879146 -0.29256017229576714
Ni 0.3363018924792432 4.678450618923354 10.709882672508147 -0.5445465369342298 -1.0795041446284441 2.095265242571972
Ni 7.236634997540609 3.5192468252894535 12.522754602967453 3.6325481344197823 1.2387760150503053 -2.075424296586645
Ni 8.852429402319254 9.258534836294073 11.183495350823128 -0.8845970415014766 0.3311208061777846 0.37708236050956345
Ni 6.625697633286047 6.577241871277688 3.8369309186769023 -0.9861147358320049 -1.2203779721590917 0.4119259505513099
Ni 6.9230857217106525 5.037573701897527 2.045745930238664 0.04222034212179181 -2.1926534881151594 -0.1968328593947707
Ni 5.514476998129731 0.965825548923547 2.995182330053781 -0.3694348712666347 -1.9013374726391383 0.6080481570323012
P 9.085636077917334 4.584059647070773 3.0996295637023974 -0.08072518306520936 -0.9352176918718216 -0.051972536412549196
P 5.763270323507513 3.884875156863716 0.24881093217598796 -0.8330345960431524 2.1193042857990467 1.296498052352122
P 6.283338075550567 8.816669068490556 1.467319055533525 -0.7207594060858038 -0.40784175317960736 -0.3706877698371293
P 5.94328593505358 4.6420601470536225 10.025584266846936 -0.10705919297404787 -0.0476422844683115 -0.11187795451892991
P 2.0178410084303313 1.5542725451547215 5.108809880762866 -1.822107386062217 0.30178451910751247 -0.34348524128040847
P 6.915338730500289 1.9358118622651002 10.703128148712413 0.4452366488882977 -0.3358716905992086 0.05659615122748963
P 0.3850801368968375 8.913404524525221 2.6139182349995593 -0.33472420725832674 0.17446888987727371 0.09625721726253746
P 0.7525525489147147 7.196649032142623 5.468997711691669 -1.108384317997904 -2.0050663156883726 -0.4604688924570199
Ni 2.902360216588657 1.43056162092225 2.8989546911463027 1.0767430369435393 0.19952326174274027 0.8463469968813424
Ni 5.316576586301366 4.07068247834576 7.916500196748425 0.006599250484072506 0.30111448962368137 -0.25737771085736316
Ni 0.49326371845935185 6.747842479151831 2.756517547012035 -0.6950026088366741 -1.885377349765456 0.5277960569487685
Ni 7.6540180491027625 5.747127669573957 11.242859914330095 -0.7951128812967144 0.5148333261405132 -0.9071846969940054
Ni 4.342624109995656 6.229164737493411 10.154906199665382 -1.241018788337895 0.13978085157678508 1.0722970853570435
Ni 4.521008776023752 7.45721111211031 12.512785448488854 1.491979797035637 1.2085346996672606 -2.014233841120254
Ni 5.261328306880093 8.932086264094709 7.775827439129054 -0.05218130998924561 -0.30680716913308453 -2.4687506297588966
Ni 3.7752867381391306 4.959084448845164 0.8370271866833132 0.16729139829222803 0.2415425435973195 -1.1115079512285504
Ni 5.357572625912186 2.3020054647291137 12.252447623529886 -1.1874259427131033 -1.2874937919709826 -0.2898384024892299
Ni 8.130504342219576 8.179747776779228 7.077058098690207 1.2808768008750973 -2.209723042002936 0.7622454411447325
Ni 7.6870168956339855 7.161064766295978 1.8741630483593799 -0.6800020216627837 1.5624961578886445 -0.4185234012631695
Ni 6.897778265974407 0.1538871230092971 9.228837727763151 2.2275520997645573 -0.5897969241315971 1.817959168221798
Ni 8.822794380918845 3.232015079408578 1.2607505389465798 0.920172624613241 0.9130930920586403 0.1294085072035255
Ni 3.047384633385524 3.4375142146729445 4.954885690809979 0.9438504278461551 -0.2736224548509998 -0.33236264900468565
Ni 4.632052072284254 5.310757076157697 3.5394853764897323 -1.4039771064724078 -1.6690488435399191 0.23847650307748608
Ni 1.2683937427148901 0.8872167549781064 0.9717442131413209 -0.6751601201894502 0.9701355867949292 2.0831013535159286
Ni 7.824535256353827 0.8354574016222659 2.5003302930615865 1.643491306785789 -0.8971455675904484 0.9113539978803467
Ni 7.435415749279241 2.8239265639516806 3.89007008900789 1.1356734927311605 1.9032308330071095 -2.249248096680752
Ni 3.119201836591641 7.240981096676565 6.098406460610843 0.40166570627588244 -0.07652117228619079 0.6113080587304957
Ni 0.8617054310521143 2.357856081983728 3.205108185056413 -1.547626954086296 0.1498166385462323 -0.30556121254112534
Ni 4.8108074077482526 8.735446128348412 10.053225086682188 -0.938791525266009 -0.2649349543793308 1.4998430018337976
Ni 7.017430359883746 1.9123762871801622 0.7189439511614317 -0.26309584428806304 -0.36772483055406346 -0.7557112395706405
Ni 6.892301625058947 2.3351896459782884 8.457263350071507 -1.3982700287853018 0.3135429451950213 1.1441280512564167
Ni 6.610657720924302 6.511142244120369 13.298655619649667 0.105903739213366 0.03168678958031962 0.6412225869017408
P 8.724659647763648 6.066857858247588 13.153017744936381 -0.9246458298932464 -2.3766580853970103 0.36034884980496645
P 0.8429217573877532 9.240714903163058 8.585987578424561 -0.6853170061177939 0.026779067866057108 0.06864922573728177
P 3.7317886798359683 0.4752621573047452 11.808211424683774 -0.14809039988374495 -0.5341183996223705 0.5783115491998169
P 3.8878034454073456 5.219785529851316 5.899847183860162 0.6916941132887313 -0.3811552450273565 0.5622295560362898
P 3.860021771186451 7.3889616022247555 8.494520261747661 -0.8116558732570602 0.6735400680875239 -1.2442285535244442
P 2.959610110963804 6.499558824248414 2.4695563898193678 -0.14368738572004286 -0.45260980142391727 -0.34301035852651895
P 4.65907387416155 1.8737988656386058 8.138646096379174 0.9147113443883538 -0.22027720646063997 0.28487205962289003
P 8.13520257731964 6.0402623262215815 7.955724436455632 0.19963639028183683 -0.5752341958260738 -0.36584946790822154
