# total energy = -340893.4790951703 ev
CRYSTAL
PRIMVEC
9.05065965463049 0.00000000000000 0.00000000000000
0.00000000000000 9.05065965463049 0.00000000000000
0.00000000000000 0.00000000000000 13.24655525925656
PRIMCOORD
 96 1
Ni 6.573059645959462 1.9416470576429796 11.373174719348281 -0.5782673262254427 0.2473856326416578 -0.3266586566413729
Ni 4.549938550471592 0.23002884955058558 5.848075563968188 -0.6980514229653269 -0.19502485965175445 0.734821797716141
Ni 2.917181454793537 1.8962942023174139 4.6942078748500755 -0.9060976345774138 -1.2560522856322498 -0.1924488713944621
Ni 3.407193216953078 4.312603103414654 4.808221749205045 0.05190543062003964 -0.4476210899600742 0.8847875602457278
Ni 5.219207676945273 4.511129322046921 2.8402200758321685 -0.47160356891760075 -0.1341053984585626 -0.1356665722980954
Ni 7.219602566142483 6.0835818727171445 2.6620143981651703 0.22115163864579335 0.2964150272654831 -0.5253733064398888
Ni 4.933233985122902 4.6069848580183965 11.288158253330487 1.0803199556615202 0.2695464850094132 0.1483678219148477
Ni 5.486003021045659 7.890600368602431 12.30585152802884 0.39636717688110445 0.46258105370401625 0.5919461092641161
Ni 1.9424616170082363 6.496047583304255 0.624875641067196 -1.168782102359671 -0.233763670982849 -1.396507280457924
Ni 2.752821476203979 1.4325836569960473 0.3140741797918023 0.6280012031154604 0.4752275388234331 0.8340229280983508
Ni 0.4883799282311439 0.18748893923303925 4.455651493811215 0.6601255944538309 0.4854638718394607 0.8400704198440113
Ni 8.71351349268274 2.1287422931828113 1.3589909335429957 0.22739864799676965 0.903228797670051 0.4541324087160307
Ni 6.631463552448362 0.7451589073367569 4.8517101686501345 1.1522571081214543 -0.3091101062346483 -0.6892083707524002
Ni 0.739901379167006 7.573139431983084 2.5639631721713467 0.439204840871921 -0.48840110009091375 0.5577180413191815
Ni 7.490715074878729 3.9129893294793696 3.889188809892533 0.024201536946867996 -0.21501775783391355 0.10707436248269946
Ni 7.891876511608001 3.6967962232806486 12.78067356815827 -1.1744228455852161 0.2921937900952839 -1.0555766872785692
Ni 7.711361105607518 8.552429852873436 6.844309724721838 1.3471780952054928 1.9487730404132824 1.568569617776234
Ni 6.994503610883623 0.7877250645671837 0.26826245602380855 -1.1791205081712015 -1.1274942993544774 0.0632275405010782
Ni 1.7254992047423283 6.4701898487871645 9.325720925488273 0.5028247317154114 0.48802777591189506 -0.10130403565782554
Ni 9.142976342024873 4.812534388511098 1.4408541497512861 -0.41043419649713186 -0.5832138715974409 0.5982427409061052
Ni 6.264115380036853 2.0065674390539323 6.994141584499065 0.7126174937049599 -0.10855814611707756 1.0110678062329168
Ni 3.400685792690639 4.3209025582806575 0.377023327538834 -1.3456395470737794 0.8058616351727863 0.5614646528458073
Ni 5.835077911696576 5.621192723699416 4.9138755292745975 2.0183972284693237 -0.31157450861474084 -0.1663226066210555
Ni 5.272117833048498 2.779466618107484 9.350968645547383 0.15259780083579527 0.5183531663683137 0.3932363445616066
P 0.2869574985224095 5.4135886934743445 12.61097189026455 0.902497318820665 1.0939776556542706 -0.6841044738669315
P 4.079331402524386 6.1377500705067085 12.628828841682898 -0.4104051430314093 0.3907164063532303 0.24940574839548013
P 2.391075662093513 8.52797497059651 1.4423375528620146 0.5284570875715351 -0.5941492875630219 0.11264388615067697
P 6.361581933419615 7.612111572280807 5.7238634063602065 -1.776470047839076 -0.1637846706905502 -1.3291780590836464
P 4.884840108167045 1.1076106728971113 12.705976664232313 -0.6511673568192785 0.3216815151417557 -0.35522772652831724
P 3.9011782186831487 6.212354657704601 8.444334204840038 0.03919569636285508 -0.18835001873474014 -1.2877249341451824
P 4.670248968719995 1.1284452913284528 3.550381892573655 0.14143149980633063 -0.2983459257396088 0.08024207278120375
P 0.23584751861640205 5.603996470432887 3.5133176313225563 0.14662538530244426 -0.2504773841931041 0.9843702423370724
Ni 1.6859297209100843 1.1923972521607116 2.598496868994382 -0.13464533012243263 -0.09295566369313023 0.04612404805157217
Ni 2.012649482314515 6.411604929105985 4.79893577244112 -0.6431884523788601 0.778640337562988 0.4104789336921383
Ni 6.23557865027403 5.641330441340482 9.457523871314486 -1.1805040187822893 0.3335600117468965 -0.007923368612134742
Ni 8.789249412332378 2.299048555138743 10.171751244354564 -0.12307536589664611 -0.1433883664223853 -0.582676768147048
Ni 2.3366359445155287 5.3064288836450295 7.125017742780807 -0.8267338506361053 -0.12460285828476605 -0.2601640153532487
Ni 0.5015404923758067 -0.07863122566014442 9.155674417463262 0.5881627309622839 0.41788319657600936 -0.3297036141152838
Ni 1.7745266278711627 1.2169335903741638 11.400051558137903 -1.8370364965682233 -0.8616275771894966 0.04407153639791765
Ni 3.9680897452091735 6.680355215682986 1.612106205636877 1.7163399153163987 0.2084370192926023 0.6440238037959619
Ni 5.5610963438627055 7.595530763868028 7.984719082993989 -0.05731014657537872 0.6106706822568129 0.19921292959117304
Ni 5.148639683935207 2.6562418874633855 4.992533906913584 0.8895664696916099 1.2931142234815538 -0.3358117838955507
Ni 0.8149168663113725 7.626520222386235 7.032224950022696 -0.12516053056044898 -1.1265177943738212 -0.020585537460835517
Ni 4.908905812080571 4.560364910346876 7.467215942257036 0.11926910477667847 -0.055628387997581616 -0.1956501519405792
Ni 8.03054166755352 7.092268836033645 9.008756870081733 0.606954152637174 1.586008896298604 1.1226799086849697
Ni 4.430705160717251 0.49082451139287514 10.500067542114898 -0.12580973410867366 -0.4319764414442819 0.19532439317004424
Ni 8.486776368033754 7.21635337934107 4.780271502185207 -1.0684239755548826 -0.3437228112125113 0.20983569941234184
Ni 7.281925408244229 6.02992051186596 7.104776847620141 -0.547953762843566 -0.3296064264157872 -1.1270566975964267
Ni 2.3731644067174815 5.1322308380550945 2.6810234985523755 -0.5334910504510167 -0.5455199565910928 -0.20302021915240523
Ni 2.295917026912312 5.2740094209078165 11.458707072964073 -0.5979126112601961 -0.07639827355508132 0.775896970489896
Ni 0.9674793100941307 3.2587623992840937 3.8737302832718847 -0.4919566786526559 0.6216706329117422 -0.18411361205588936
Ni 4.046296494933423 2.6762076425717867 1.924763957199094 -0.9119196405758294 -0.8665378700069205 1.5930290363701791
Ni 1.0906949900786156 3.1993991228761143 8.03795687297524 -0.9787534103709274 0.881382905439553 0.5575360072153623
Ni 3.5736619992326895 2.651019656866129 6.952044251436641 0.23650446695277977 -0.5720221166466793 0.9215497074664257
Ni 4.220539793821429 6.700655845197104 6.140003684750586 -0.9247782417060525 0.8363785728147209 0.057805083933926256
Ni 0.8390024816760494 7.507205376695368 11.745190316922708 0.864769208142272 -1.2677886002325713 -0.47243223546648305
P 0.2060645130247358 5.656553650811167 8.045242653964479 0.35302094868498557 -1.377890693798001 -1.152024680395674
P 8.399971491676238 1.452938590467849 7.9984027752643385 -0.2814401511232056 0.6666739370953099 -0.4496543183400192
P 1.728458770436094 3.360265546854683 10.414918936466739 0.47343907946444264 -0.45428693201602405 0.15547640793517092
P 4.050939483315386 6.108462135995927 3.9122906185571718 -0.8329577200586299 1.4876081503305025 -1.6778972950694844
P 7.023981609246299 4.0244301013060895 10.623326665265528 -0.2945070116094928 -0.5353818397158263 0.0005856973001409268
P 6.2717631874106505 7.817425785623545 10.196932894598492 -0.23772034163775185 -1.1775642194276752 1.344423158168175
P 2.3326355529661575 8.541903935742397 5.8099786224551355 0.5863431612550418 -0.30522979734363564 -1.5408243293421657
P 6.822179051833778 4.068986498585627 1.464498997992763 0.8619785327710123 -0.18076037931294028 0.8990772373955226
Ni 5.37629997586482 3.2711437016359945 0.059976006063845004 1.2431427766594334 -1.1772513161729468 -0.3831933585033078
Ni 1.3715188565806427 1.0431337738072428 6.93952628412457 0.013751802368453735 0.26217487513569043 0.06182346106469998
Ni 6.562370816955371 0.5229425871649437 9.143845205347814 1.208475821404867 1.2995849188075617 -0.718602250533485
Ni 2.536764129899467 1.7112172638714953 9.296577801531313 1.2975804867830234 -0.7748669865634848 -1.649075742852102
Ni 6.406174533337608 1.9638845283144852 2.3760081239681887 -0.1802854965590508 0.6782840105304124 0.4344171896752906
Ni 3.9511469104118353 6.870002737233955 10.458658964249096 0.9908123984179905 0.6669904398944643 0.5220113319461913
Ni 8.361180364570796 7.220444277486582 0.5195196276989431 -0.37961155468932045 -0.3900062676600832 0.1951521292582381
Ni 7.594245570202845 3.8909147706809155 8.429869440645003 0.16893201921944453 -0.7782395025801435 -0.771850054114032
Ni 2.940070572957248 8.383906570861456 12.39011226396887 1.3577566420522875 -0.6815405697944972 0.27098733122099783
Ni 0.123088065683928 4.824318347328478 10.179885072149633 -0.7987890445967211 -0.0697206044245896 0.44658802070986964
Ni 8.63806719414075 2.3592354415715935 5.8182445898805675 -0.39496952520262946 0.17987849092861924 0.5724329789318527
Ni 3.5054109750837985 2.83388823436624 11.729917328824149 0.32681549393421133 -0.5792371463378798 -0.8601083123314929
Ni 1.1651909693611404 3.240163293777401 12.778448010959195 0.2268162931307384 0.15037636770444424 -0.29837960719102163
Ni 3.1133001979684893 8.222768627094467 7.851697013317775 0.0612274793519139 0.8946307715883948 1.1185208922112737
Ni 5.635384157974109 7.980835444953637 3.4834468343326344 0.2945635758790411 -0.8059976465300183 0.5245829493281094
Ni 3.2160794885446466 8.377344842641333 3.6394249970537023 -0.7445277121499951 -0.033187799605878324 0.43652755115007397
Ni 3.4397846422229565 4.346705988840065 9.407107171934909 -0.56814026509377 -0.3488619322112895 -0.1779113398999194
Ni 7.736331875482442 6.44606079025634 11.531563072724547 -1.0903423728945287 -0.7408669754689563 -0.7096262722871198
Ni 0.6609823425311376 0.10402285120711609 0.2906954209429759 -0.5146086117242169 0.13049299851695592 -0.00772127990365767
Ni 4.5496851320024 0.021111568615528827 1.5797048442188912 0.4770540505092106 1.0058914042382998 -1.2552318466134835
Ni 6.205620966951813 5.715156671811574 0.10990487489023028 -0.35429415897045435 0.4480013561176284 0.6108532305812642
Ni 8.184801110013895 8.794037211268163 11.075855120633845 -1.5079355490339448 0.8289779094752755 -0.16230937169660434
Ni 8.962723405153197 4.921078949261351 5.736116189345588 0.762572485466848 -0.44081383723025375 0.2866060115948612
Ni 7.953194730492596 -0.013815831900713688 2.3996131493073642 0.045477158496192646 -0.1605574220025041 0.5261050423995907
P 8.223556034480882 1.790392434174439 3.6971799712482807 0.34611059471839745 -0.013041406564990443 -0.3501377135999196
P 1.7018136285325884 3.183044580953684 1.725151659413152 1.3551734547061436 -0.09870439325144936 -0.5450923821353709
P 4.619375211029912 1.0414865537575015 8.233118056363034 -0.7229325024777227 -0.5352723107211556 -0.6854208786855098
P 8.568304709836326 1.5169629565770193 12.227696367064391 1.2034068915223919 0.5655485931071937 0.9071289040554055
P 6.40572200035691 7.801786245810619 1.3444727704562387 0.05258934406094169 -0.5439490125595471 -0.19857915266191606
P 1.7863739413058397 3.4140717182596894 5.997417783060298 -0.8579771249211029 -0.2710053289431268 -0.6703984371347486
P 6.59431964539266 4.087160223090463 6.285066751977214 1.5839219318625883 -1.056585845269374 -1.2456359753949322
P 2.3181092442857483 8.374376226287954 10.204006890152765 -0.04513031667973518 1.4418638542158522 0.6078344983595984
