# total energy = -340896.3360538732 ev
CRYSTAL
PRIMVEC
9.02795935114930 0.00000000000000 0.00000000000000

0.00000000000000 9.02795935114930 0.00000000000000

0.00000000000000 0.00000000000000 13.21333107052877

PRIMCOORD
 96 1
Ni 6.311997191459124 1.9118600111168815 11.351982876147567 1.0964096621345312 -0.02999886035493543 0.8236156167220977
Ni 4.709958694437699 0.5957162271300377 5.848841202044507 0.008845623316087991 -2.135637989962064 0.6874785325454871
Ni 2.779916372889317 1.7535818251759305 4.992392990596215 -0.7359373993778229 -0.2254934605542568 -0.6710774654796443
Ni 3.5324509649092763 4.3817291709232595 5.115197615276741 0.02099074331905417 0.28727629818900846 -1.0234875200535083
Ni 5.132557478597859 4.649877623970153 2.3711059912723704 -0.6637727042881149 0.14385784985963612 0.9243858913636402
Ni 7.268401164891276 5.9738188565765045 2.5399459870315004 0.18307900014378792 1.0668610019431368 -0.08882621490578896
Ni 5.037926407126661 4.572056613086569 11.414851780508481 0.33038804177681813 -0.063339126378278 -0.21976607115217633
Ni 5.613964390936172 7.887005977739776 12.407397384204003 0.04861159036011628 0.20483644642553753 -0.15261399878571136
Ni 1.650085297476463 6.574828176360955 0.231082359730799 1.3986382107579978 -0.19987910242026222 1.5690689260101558
Ni 2.807559984876038 1.4840701502446498 0.31856960685023633 -0.1087448082065869 0.702632614578106 0.21120969694173303
Ni 0.4585616608254451 -0.09080682782731367 4.676118291050689 1.5456109520975316 0.7893641517383954 0.45632813081576895
Ni 8.650437316875337 2.3320934698882367 1.4336336489101578 0.2924732690089156 0.45790447416395336 0.07511632151886419
Ni 7.110393817735302 0.6334187915908295 4.878044855578642 -0.9254084190908837 0.037127758090232825 -1.0309645451568439
Ni 0.9449474928275963 7.525842457972051 2.59527022563889 0.07950005240885663 -0.7222820133779174 -0.07608305630750768
Ni 7.307374866049563 3.9318930329538455 3.7989120923257587 1.5523654972125458 -0.8953519660251354 0.21892352064622295
Ni 7.797755570130135 3.739759998890685 12.52329110588785 -1.1863249963394409 0.24604325968115046 -0.0414199577076835
Ni 7.9430786341896535 8.652233880815688 6.8316492486241325 0.2816036732842634 0.5824520537307517 1.158754285810024
Ni 6.968149287865029 0.6778336439393178 0.5538806628104868 -1.2029350940922958 -0.3757546428370755 -1.0633195644487814
Ni 1.745655276735584 6.649426205703305 9.276392694348132 0.5546252613264705 -0.6288134146041107 -0.2870490126695508
Ni 0.060915253925277996 4.818086565360285 1.3538508624273853 0.5184009888871136 0.027898783292797113 0.10629249001135242
Ni 6.457311227559144 1.9568282773826744 7.024114511596865 0.8673657652248546 -0.3061667073356082 -0.029029297352814523
Ni 3.3821986349631636 4.182897390911652 0.3192178143422829 0.5225502351687968 0.6007400534066621 -0.7532319247922123
Ni 6.078886249228843 5.622035386728506 4.79098192255567 -1.2266321805989198 0.2243565187363362 0.09314643954769765
Ni 5.3132159761374655 2.8840719416322305 9.331334147472752 -0.8845317354811799 0.05873762305052464 -0.6020590293284017
P 0.1876190543135322 5.55126521221384 12.263821230307592 -0.17735546739644942 -0.25302123366088036 0.3872752418821653
P 3.9677250042063914 6.075410484821628 12.6779274129668 -0.24644872264968523 1.2913507038232275 -0.7445102286484985
P 2.3922919038292734 8.614361590716312 1.3340841451037648 0.2298576510602235 -0.5966841381697336 0.10021003126269838
P 6.247727147783923 7.689591587369551 5.873590450215767 0.2711400547487782 -0.19678452265533852 -1.3368366040701687
P 4.777650334763119 1.0276797136787756 12.466553088822877 -0.9119114130457133 -0.8017280726203869 0.9818623883135541
P 3.9753265461047644 6.154847500455579 8.293954794107977 0.15705223706272306 -0.41482384092439517 -0.2439724931950508
P 4.5506513211138335 1.1441042793811773 3.7632886669376453 0.5215300214343986 -0.026015193116839065 -1.047404435880422
P 0.259805715673631 5.567957909327964 3.578447515762034 -0.20764023442291984 -0.1683072411512521 -0.798197176648993
Ni 1.677512238435202 1.1485370074953118 2.648942347657915 -0.17040783243402263 0.6415933399775982 -0.0018079997430162412
Ni 1.8391307693908776 6.478030394609935 4.796307515864281 0.24153817272194528 0.05781845367036494 -0.30698354680994877
Ni 5.932100655730443 5.558496607772744 9.271768573492613 -0.5834229022844533 0.3269417350994305 -0.33309464207470374
Ni 8.52280002547486 2.050872531486421 10.155105659513488 0.688978257019465 1.5998951673623931 0.2994353021490456
Ni 2.341545743483957 5.307690864923922 7.085080322095339 0.20943357887791675 0.3159320142524881 0.39712076721767736
Ni 0.39597984557660443 8.967309667339713 9.182023433702412 1.1240261383002188 0.8600134386248415 -0.23408788709148717
Ni 1.2361984942330848 1.0009659815204779 11.475619878693923 1.0207287263614484 0.41608779523848344 -0.2723034789292601
Ni 4.0351187218683355 7.136385313133659 1.4435824602783376 0.04354111781574437 -0.727229844301496 0.056056476673935714
Ni 5.731020913803521 7.7827962412398675 8.005495237779659 -0.5946223705446985 0.18449387821344357 -0.38321212755638523
Ni 5.327877382364258 2.7944513876831185 4.959663929023563 -0.38248964756806386 0.32225332848482563 -0.6017060168643572
Ni 0.8339360916409483 7.313306235440574 7.090841965847765 -0.03447412251746966 0.9052805379927571 -0.7520507599999177
Ni 5.0381430781546435 4.384365335097042 7.122038079897442 -0.0925460869595374 0.8274501599768395 0.4847660744414877
Ni 8.0892774103206 7.1676762207580795 9.14141838026261 -0.1569283098903491 -1.117701995854404 -0.563093703808798
Ni 4.451425018257513 0.3220652327683482 10.32332453165907 1.6164438157496934 0.41181642155663917 0.0873912822314753
Ni 8.161483030395647 7.090017713145482 4.67319864894863 -0.6789859216934435 -0.2928010846619796 0.5369802945511978
Ni 7.104859678562258 5.920454587976404 7.008165718345479 0.6905021498631592 0.37173420882377267 0.03525805187134573
Ni 2.520579208313697 5.178085478352606 2.4104417136065774 -0.7765034937256433 0.79195659505592 0.5178062927259083
Ni 2.494768272105325 5.203851274763482 11.359302745709563 -1.0634409205179942 0.013994257396562996 0.1556540711636158
Ni 1.1279442318775095 3.475105366170004 3.652072331070364 -0.5281848077467549 -0.18558942527046748 0.3080492690703017
Ni 3.6030044683959597 2.91281696467786 2.7122743863411434 0.2760917423270987 -0.8933174520936099 0.41173003249041995
Ni 1.008423076066863 3.420820245700979 8.105730866507994 -0.3816470970621105 -0.4899447904289498 0.404750001628161
Ni 3.344804826717246 2.810060729657332 7.281867269280366 -0.10691701096922879 0.0050910413696622 -0.6414640134885855
Ni 4.0525426837018985 6.828811760953517 5.757550475588034 0.5944765889954536 0.6907520610904362 1.0801271229244236
Ni 0.9436835784977005 7.476658134620106 11.452060515584664 -0.155148592282107 0.11920662696985922 -0.6452214236484888
P 0.15187014028837945 5.572580224591583 8.06926242411075 -0.15996863937856967 -0.9268325531319198 0.15839949511923687
P 8.502929486616997 1.6095768432033026 7.947528515426837 0.09967292781230577 -0.2407046210770564 -0.2765884794578591
P 1.748797006641325 3.1474536320635162 10.489931913034036 -0.33186514054297683 -0.6186734979566312 -0.6349100144201517
P 4.044986281601021 6.121272519077848 3.6550316961942206 0.01994661832525597 0.09922581297255814 0.3244009709554478
P 6.956710863179472 3.795778487583567 10.383234070896131 -0.11994453357714827 1.0682077457790184 0.906610055437458
P 6.275551318960628 7.846091265289149 10.080040884665026 -0.7923453458539064 -0.5317038766436069 1.5983285942062215
P 2.368602538103227 8.398810029712083 5.889498617649405 0.010565434220672127 0.5197130228303178 -0.796317443127777
P 6.962741540124974 3.9753897418212594 1.5163748977208364 0.26952488774285843 -0.7993783414412878 -0.5545972363020126
Ni 5.14528690149181 2.7592062337980243 0.5036752772391758 1.4012939032132898 -0.016300794042552573 0.18092441569463033
Ni 1.4561647274324503 1.0601713399165968 7.028276400926021 -0.5636032964553649 -0.07415215783338197 -0.06419736061351525
Ni 6.761652770238553 0.8409363714366711 9.192990598902108 -0.5164690619717235 -1.0691495408669973 -0.5526460261129128
Ni 2.735543951950475 1.481713852815344 9.245143315337408 -1.06116523710994 0.7259833734889045 -0.38873819958093697
Ni 6.415782613862567 1.9587692886750143 2.6527088123610043 0.389072185881588 0.20147550037310463 0.3419873165786433
Ni 4.075663287979492 7.016963464877505 10.417760599205083 0.41051801446018976 -1.1275194961654582 -0.12257451500082761
Ni 8.133469272069458 7.096445620308952 0.2541641437825461 -0.5665405247068178 -0.178220386499906 0.17375977962539108
Ni 7.575776101962434 3.9690430862932824 8.336396134509927 0.5684667951952532 -0.9958029096540462 -0.7677488874614649
Ni 3.1348235167240577 8.382379143423437 12.411308296259081 0.29986004839129005 -0.5829557328400476 -0.22472341515745167
Ni 0.11427410574967897 4.695207008615916 10.22397364296166 0.028001884529564675 -0.1859979735627958 0.17344353393655293
Ni 8.616600524672126 2.4607418927526306 5.604698996102085 0.42397491129604403 -0.12094572114815298 0.6668767971347354
Ni 3.6554839969651334 2.67143641154626 11.392336049517338 -0.11183116044139449 -0.4452019389956204 0.12009674288429638
Ni 1.1030180357000645 3.3593488694705473 12.67346128140252 0.11449276643395766 -0.05487942564669903 -1.0879345347839842
Ni 3.3746783447002833 8.349715985955129 7.892666508345809 -0.7564784567539681 0.023443575734920917 0.4215578172141191
Ni 5.543781033788957 7.86234159238781 3.66935545673574 0.7838650762970371 0.2824559939822297 -0.18024538734973475
Ni 3.1986060505862994 8.343838784321115 3.6760677446234364 -0.8612707080707103 0.2085696882157247 0.050818368203447956
Ni 3.254705790914674 4.176794490290155 9.278057450079794 0.23756170457270057 0.7805375545857008 -0.22999134842461036
Ni 7.201386621528301 6.031408210222256 11.313651062909674 0.2372534293036624 -0.057095459461411355 0.2248252308426386
Ni 0.3983578101087084 -0.011807668229076548 0.44164236192788997 0.9529243651229653 0.0005941819405731703 0.3988999706052872
Ni 4.8146920525885655 0.4684508876609298 1.6984417569423265 -0.7797891064554506 -0.6300251755240247 -0.40285329882608034
Ni 5.947078040539709 5.625781989920697 0.28487455361116426 0.3880172622545124 -0.026556924552922006 0.22928172395209542
Ni 7.946536342677869 8.58393736720382 11.186432668829964 -0.35325131952823674 1.2066927613625156 0.9409134567050182
Ni 0.2000595825035066 4.905197346568603 5.840450616485899 -1.1911787248873162 0.3381316902779789 -0.11589864564254879
Ni 7.9332923260924595 8.707114846611665 2.513559067007076 -0.3324456956367952 0.09023826476196717 0.7132003627916234
P 8.723726292090294 1.6118428610376159 3.51808928693786 -1.1844714880704699 -0.12821294423352758 0.622454048044986
P 1.8717487870616887 3.2643566796193784 1.4369893414560313 -0.8844869982861735 -0.9171906591667818 1.5489834681141903
P 4.63609192981479 1.2458222990592915 7.960887187097885 0.17580637774177463 -1.0008268452311988 1.3224427972423418
P 8.447461703453572 1.5473922581724293 12.524202929797275 -0.1780527505737901 0.324911334932963 -1.1826658023202985
P 6.266225436797898 7.620139494941777 1.414355344195447 0.2589579108602895 0.5517463971167789 0.05674758920368936
P 1.7375120572672553 3.442974858312153 5.962740647474967 0.06505199530432666 -1.004815654675618 -0.6114762088772437
P 6.829073571778995 3.8394647836004654 6.09953770658339 1.3440925143016336 1.541508242783068 -1.0966346336611437
P 2.4060866259441362 8.553287444703846 10.129577298437443 -0.5371993525405393 -0.06737678678276139 0.4918710609173852
