# total energy = -340896.7926404859 ev
CRYSTAL
PRIMVEC
9.04276031993926 0.00000000000000 0.00000000000000

0.00000000000000 9.04276031993926 0.00000000000000

0.00000000000000 0.00000000000000 13.23499378445861

PRIMCOORD
 96 1
Ni 6.364176971951637 1.8714986640731965 11.459585078710397 -0.3036935632047673 0.18434809666419866 0.20349510190629472
Ni 4.625064315107008 0.17804832841035562 6.081465930094226 -0.35224961773659985 0.5703722397480823 -0.9617417063042792
Ni 2.46819422916775 1.5421975138521908 4.697535707028587 1.2021606778201166 0.31276827181252587 0.7699209554121191
Ni 3.492368190417774 4.400234171819858 4.8598234089363 -0.13833614871045855 0.09826602016245012 -0.2180912545529147
Ni 4.994406806858621 4.442084065361785 2.685843516693957 0.7953905604381334 0.4826027482415817 0.13302373535860962
Ni 7.300708502733131 6.159810594672564 2.537253787719975 -0.5894094588851914 -0.24391207227076062 -0.05036842515022293
Ni 4.985662457883893 4.317936012544776 11.63824469770058 0.2707086236383145 0.45536139602712544 -0.15114512754966875
Ni 5.466529309413506 7.862634655410072 12.288956285717203 0.0936046101310388 0.12602827787738297 1.3685822719128817
Ni 2.0137684080436236 6.588220395113862 0.33525671199427975 -0.6753694079867788 -0.8766510471815225 1.1169016114402959
Ni 2.6273196778836727 1.4004703354851595 0.27010995571854407 0.7268354370765546 0.7859965208177432 -0.19710565344018313
Ni 0.5191529933332361 0.2011552931829758 4.648804273083591 0.15010897297567052 -0.9192177168991394 0.5838391638862654
Ni 8.487986727123978 2.3141508116036347 1.3468060759292895 0.36245561173532415 0.31446314301644557 -0.20240623971749014
Ni 6.81938047044063 0.7284096952509164 4.864945228232356 0.010103921203221308 0.09533727655142936 -0.6543395838996731
Ni 0.9293425365364999 7.518268266934777 2.554221622690172 -1.2470505963542715 -0.48667383298716177 0.1351685496157543
Ni 7.660013530821922 3.9612985986726805 3.7281653931015635 -0.3060160406903568 -0.7306746083169868 0.03173229810627438
Ni 7.508149418431446 3.798682644574912 12.627732439925511 0.3600842832896702 -0.36992055265380164 -0.1946008847404584
Ni 7.937327853477556 9.043664332601812 6.933561593123259 -0.009048740465829578 0.5606025619558281 0.5693132023559486
Ni 6.784149877260131 0.7655908117756227 0.37234559236640885 -0.31230932989823634 -1.1833378886866588 0.0882078645954997
Ni 1.9837193163755549 6.250762675321808 9.07339511911589 -0.2715360046356162 0.6855041824279356 0.6781004337646966
Ni 0.0027182536730128034 4.860592043541112 1.3372243673733204 0.2955413664112781 -0.41505112644385295 0.41271733610435374
Ni 6.272121674575487 1.8675560206885204 7.016068640155647 1.160498265084324 0.5515779898597145 0.4334296289510407
Ni 3.461306309623366 4.310077854055594 0.612791677995295 0.047512443758666555 -0.08978703615716149 -0.45801991669589504
Ni 6.110898305526435 5.788198370146745 4.744322043285409 -0.1262591629412664 -0.49429663963974224 0.22542918297522463
Ni 5.410210999781026 2.809576506824368 9.441619021448503 -0.19955462920130793 -0.4762328401594959 -0.8077807065723702
P 0.2984454443558881 5.59291996672455 12.501629342384266 -0.37648252214203554 -0.35469807927709235 0.035671228149364374
P 3.987396004196017 6.079764082651574 12.604928407614787 0.32660929146067624 0.13677137532649994 -0.16137734680063823
P 2.5462242056961184 8.483347791214944 1.5670497313157343 0.04944077112963098 0.08498344412093106 -1.8176655482407793
P 6.5245231932752 7.761093502734553 5.805331687625977 -0.7357232264844878 -0.11469228403927344 0.3351247851308551
P 4.55247808013271 0.9271722741229167 12.473941315366975 0.6921291439436209 0.11277089864684449 0.5958868390794189
P 4.073618721335661 6.032298635114501 8.10517594854407 0.4205828548953595 0.30233936316971805 0.09948086640615772
P 4.601489839639461 1.2570340754674312 3.9740579331125376 0.44285812135379216 -1.6943053041138627 -0.7640503555639552
P 0.12336223696809039 5.549469504652606 3.5256437388740363 1.6302802074121534 0.39550225777764786 -0.16572431091542425
Ni 1.467784641346461 1.2186204307470108 2.3820339070724965 -0.5321265660033223 -0.9372028406226505 0.9358041605029108
Ni 1.8511976677461381 6.521385355535561 4.719797173735914 0.1717023828757301 0.05117138066749251 0.4394303266191658
Ni 5.995205233362344 5.629045793150653 9.219893257688781 0.19249720813389426 0.40501945323946376 0.2814638052722895
Ni 8.58999810332244 2.4889744917778085 10.320198215855287 0.1267528147482333 1.2226788523781265 0.4919546217701269
Ni 2.3895855159957597 5.25956765999819 6.883043309791079 -0.4023797016237715 0.340765014135768 -0.045180196081064126
Ni 0.5210863354333364 0.0051254364000787 8.936174852361066 0.8593071565864361 0.5464897767035298 0.17001831030508785
Ni 1.353882035673576 1.1014081748934115 11.295987080870482 -0.09598133789333148 -0.3641353134305923 0.20177503389139442
Ni 4.288131075398235 6.672752116122924 1.4921530711469766 -0.4415702557803041 1.261397351994247 0.8252554663183659
Ni 5.715892460734202 7.896309893860836 8.126577448770018 0.1325316262135395 0.43264492826621614 -0.22730454562106658
Ni 5.268718933175466 2.955309627896472 5.029787509856059 0.6353208767053252 0.1893658615937642 -0.1410669173780603
Ni 0.516523358708778 7.459291385845658 6.794673841413998 1.2075954756824427 -0.8076279830445897 0.07733235533357649
Ni 5.378715066503902 4.224831755002063 7.289066853436268 -0.35865140749788554 1.2212475192482388 -0.46744763776769815
Ni 8.329819810974055 7.211058579532037 9.538088994284282 -1.2097068655984908 -0.33673840947487815 -1.6847683111577048
Ni 4.574569542950975 0.2303796851338832 10.329965300992416 0.27230167915704717 -0.1735324941059334 -0.6848125556775497
Ni 8.276223372118611 7.273363196321983 4.539298257350222 -0.38130719722418843 0.07733878309147971 0.5341513097428349
Ni 7.3368885857195725 6.026013916875167 7.05100896073833 -0.5338438058047451 0.7114116463223167 -0.3262133415738382
Ni 2.3448961957960615 5.167051181859155 2.691322525012249 -0.18099717791409473 0.2802183629009626 -0.5724175523128852
Ni 2.3475185962124745 5.199749802223807 11.41204548054086 -0.5456495401904216 -0.6545648125366016 0.27629460236652414
Ni 1.0201228047446687 3.304106968799499 3.6148071615840855 -0.03529584708781663 0.5782405867525654 0.5483165454996235
Ni 3.4956868833585446 2.6558315003421202 2.697172286492861 0.3251008252359498 0.11047618907539683 -0.1379535685600592
Ni 1.2361362569766374 3.516702257730074 8.173257080458173 -0.7435779466422162 0.280133259386324 0.45872054230734544
Ni 3.56514432335326 2.816439961707325 7.1234043934754325 0.3326845511204787 -0.39307590772434237 0.18032020645172817
Ni 4.246226925295969 6.844745412399383 6.079255879536394 -0.12851402041371415 -0.20667478518585694 -0.6431115763943376
Ni 0.7635742762830018 7.32509682660577 11.304801963373652 0.003461990406671457 -0.03430777214293446 1.003986473906103
P 0.15036753560110913 5.644906794289922 8.086766697620853 0.31469994161759995 0.17781723752421635 -0.8848865477174372
P 8.603797355168807 1.9334686987410499 8.16129260462729 0.5398393612665476 -1.597078266738888 -1.1423377921252134
P 1.688726397809275 3.2876853165367197 10.372555796582981 0.603833090509689 -0.2833797913480797 0.3156041985994242
P 4.068609032264307 6.217982670116647 3.809348580061667 -0.2867253107815449 0.05036482560579714 -0.4051955738060118
P 6.860940995660746 4.097609163765811 10.510199264508453 0.5147096560784554 -0.43976894090550717 -0.19424710094546546
P 6.321278118243145 7.685568370741862 10.302025885245552 -0.3411792188550511 0.19067918108854903 -1.0679359801748702
P 2.390471706481306 8.417281386241454 5.862056921461005 -0.597196559029778 0.5745240571329266 0.414953167413408
P 6.851337584480642 3.9097639091101395 1.5619143478795932 0.22631801333808121 0.37628351875735194 0.4032199381368798
Ni 5.347038278025645 2.7655020943085185 0.46443073085074443 -1.0398397361592864 -0.08655387393184448 -0.2876025711801757
Ni 1.5892017806263778 1.3001680409373948 7.078961036349274 -0.43674789469099623 -0.7937959622575038 -0.5704259758041531
Ni 7.193660309183145 0.8196692297420847 9.367582327761125 -1.5770719988202904 -0.8874985314189876 -1.2565726769120937
Ni 2.7519831680239073 1.559279287599101 9.26764536071965 -0.1604401796983495 -0.4271975319983997 -1.008396687158657
Ni 6.332373584832587 2.055139035302551 2.680350944235581 -0.14303252574486333 -0.2629374643333278 0.3308562396624883
Ni 4.0964697759986795 6.7254533217327666 10.456610964137058 -0.035616720762345115 0.5796510939468469 -0.45010297584166353
Ni 8.131376441532053 7.174769983424916 0.3956270824081213 0.2749838539749006 0.19850998998687747 -0.20378486523257158
Ni 7.6062814505656275 3.861873451850406 8.180694750604722 0.72817395338232 -0.19429466635394926 0.6150335872111988
Ni 2.891304972215884 8.280826136987418 12.323260900267908 1.1288695824354493 0.6876538817810866 -0.7169438889944555
Ni 0.04718873907934136 5.017049878040338 10.166989445044395 0.14950836327719413 -1.3167719721098097 0.77119005193253
Ni 8.672576588159277 2.2829171183681516 5.829630488174057 -0.15625596641367284 0.914482001986367 -0.14953458852943924
Ni 3.575841908500213 2.467525064923562 11.261205912864797 0.07127149385147726 0.48131745377125495 0.8187402909076674
Ni 0.8593515736984456 3.3739532474766474 12.681294516292741 0.8178517176551269 -0.2553912765549537 -0.9083337229967842
Ni 3.2010466324344726 8.173081650913074 8.041806998895462 -0.3479880142467684 0.7435766610906356 0.08222567887013581
Ni 5.575666380536566 7.941496565863647 3.528039166013029 -0.10828560918198124 0.23934167929125877 0.40471452040453526
Ni 3.038240780375515 8.334558217243712 3.64049673862887 1.2030081134220765 0.4159996064000513 0.6703351879969811
Ni 3.6070846444957527 4.372246829444693 9.339127474691036 -0.5634698562012941 -0.9299749554156435 0.20272222829601216
Ni 7.271663157431344 6.110138713681681 11.53292005421738 0.07637821895042331 -0.3844866233934346 -0.089734071432039
Ni 0.6896569470283735 -0.09951738297485198 0.3537844230742396 -0.525667697751856 0.10554172788825694 -0.4435340643748942
Ni 4.587744844353436 0.48513684282833835 1.6496490145007003 -0.12659494901413035 -0.575432427879809 0.1174698467844106
Ni 6.077132639475105 5.519004446021934 0.3671767507180585 -0.5312115103882207 0.7042904618965031 0.03893935737767488
Ni 7.924242979675661 8.83236215835933 11.356087977034639 -0.03427409069152162 -0.941528721691514 0.6583726163184661
Ni 0.08696603201629652 4.949717486658923 5.674913384985725 0.1862838802343308 -0.7078570962018389 0.376323627966668
Ni 7.828633877597271 8.975680862496322 2.4806479183176946 0.5450671853243904 -0.6590837834528778 0.03262781333735026
P 8.534177145493071 1.6931483074769504 3.5170277970921116 -0.9098807557689298 0.3598207452156384 0.5544733091296387
P 1.7867047030224943 3.1722002278539305 1.4513232009394335 -0.5355623311577485 0.5129569350534069 -0.16016224344661448
P 4.658459227996018 1.0691616925315897 8.089333937200921 -0.6373034543529927 -0.3058057244517636 1.3954009347676226
P 8.461572824998662 1.5170676836549102 12.394664342226802 0.40843799200270947 1.0625911709231894 0.922383773331947
P 6.293173219987244 7.759203565882725 1.407660234006159 -0.5001631257228483 0.38921256811419425 -0.6406813696862901
P 1.8727556077210634 3.350315472688705 5.913037289832077 -1.2138250015319223 -0.5200889181124979 -0.4680364203916326
P 7.045973951938817 3.983923584334284 5.898545362565376 -0.09948369461963512 0.13289286620770016 0.3187139478729995
P 2.2546404076711752 8.270851972644993 10.170523355674515 1.0550598955431505 1.0645351820234377 -0.9020064952271755
