# total energy = -340870.06990803935 ev
CRYSTAL
PRIMVEC
9.23167344331231 0.00000000000000 0.00000000000000
0.00000000000000 9.23167344331231 0.00000000000000
0.00000000000000 0.00000000000000 13.51148723613794
PRIMCOORD
 96 1
Ni 4.99516602198212 6.496245307018463 0.9056252891815441 -0.44811628442893786 0.5601107099210741 -1.4065962892628099
Ni 3.1250967613435208 1.5821426069218427 2.516744271770646 0.22946298672496612 -0.028071561425235526 -0.3431682242606219
Ni 0.9244043586929304 2.7779119977095528 10.417909910013387 0.11495505078235686 0.6017319850062863 -0.8439268174756239
Ni 4.666463067984274 1.792541669567603 11.671397567637737 -1.2785319547920044 0.3309161463661462 -0.09161251940167447
Ni 8.858916646669734 2.4211447573511635 8.385215495253963 0.38855770813901463 0.4403081012384288 1.1208562252126697
Ni 2.5352020790565892 3.1109353747392205 12.362915431071206 -0.2039494158348939 0.15855916062555275 -0.020382163200777802
Ni 0.5040465842104219 4.756942696477586 1.4622130179289359 0.19827113450319403 -0.5578679366334843 0.952047876055283
Ni 3.5662599575927243 6.3405531394294705 8.724772127368286 -0.5690874594983877 2.5331629345966955 -0.5849395960392958
Ni 0.8266944837925198 2.3074936292641133 2.181848711427189 2.040566051256879 -1.431824210591663 -0.0184908597153359
Ni 7.561617314634248 5.665542430746422 8.317035896409507 0.7942253364854387 2.9231967130606042 1.8860368377263261
Ni 4.535511784423652 4.7941648025978845 9.883139394409374 1.2808032673246845 -1.572818365750259 -0.4563669544735044
Ni 2.3059611715220574 0.4397655209350635 11.560076513852463 -0.6615188752569318 0.42056254318038533 -0.7136960714811192
Ni 3.9052377638008626 8.774788409300124 6.706778228924826 -0.3223065503202643 -0.06391222527292864 0.8002473743098024
Ni 0.5282898810562835 0.5305091752803212 9.742201286840585 1.2122296320203445 -0.19238202271226867 -1.1880622907455216
Ni 5.492596266049581 2.0227888294749308 0.6430857366133029 -0.050999116755686365 -0.44172246508745217 -0.4659173171661008
Ni 7.789704263025666 3.3170694043920306 13.382979310059063 -0.6806836211108406 -0.029856164129484063 -1.1678169102329243
Ni 9.144913880699205 6.3701683468783585 5.531318519055928 1.6078846133257727 0.460259090439059 0.8737140760403858
Ni 8.9650070344511 6.850178423721364 10.176635516534459 -0.7908548773513089 -0.3465325127471645 2.0693063566143652
Ni 4.939489801245137 2.284026716129739 6.986559777425825 -1.9028071152061294 0.6171894572119371 0.26077079569931216
Ni 6.218888919052634 0.15464068001778764 3.1843059433930625 -0.7985311629496441 -0.2524414498980104 0.49214462629374595
Ni 6.808672821261826 8.252737292955173 1.0499735768100658 -0.3769196096794541 -0.7540716470846884 -0.12785170423936693
Ni 7.2108137351274735 5.6429155998682345 0.8546018317095981 -0.14710823847613375 -0.8168836973149028 1.7454304049244522
Ni 7.728239783226821 8.34375235849089 8.73666252237894 0.96224307142073 0.36094945950344287 -0.1673505336649376
Ni 6.0684034151173725 1.9436826222961534 5.0633216184764 -1.992484365258304 1.3047204402619144 -0.000477196746734662
P 5.637856642984821 9.14417534684761 5.508444279337458 0.9112020456835145 -0.4027661384289128 0.9788624251449658
P 8.322990325587977 9.04655963501328 2.566168803453893 -0.2196280029124153 -0.19931294550414708 -0.02526520232469197
P 8.743437647299992 0.628461843184443 7.320577405653199 1.1430003654098766 -0.2521372883940303 0.6307772231987008
P 4.121425085508484 0.6969470104099957 8.76915801184904 0.34919848961510186 -1.0862311789396326 -0.41716405902179765
P 8.043686054588571 0.13041676968553034 10.674452567706693 -1.9233625707599777 -0.28980009305212673 1.4620174463455917
P 7.9831724371236525 5.153359972993386 2.9318030658679732 1.0231825872185798 -0.1366417917271711 -1.5312045468642144
P 8.106433736954559 6.256637230542192 12.711592956252709 1.3337564224829481 0.7653371926961786 -2.476031479691026
P 1.8350627560730821 1.1749888945385063 4.155309018619581 -1.282253883728282 0.28331859909284113 -1.1830620093174529
Ni 9.289555735533735 1.4954941227836693 12.115155787207975 -0.011123106496355036 -0.10258727324562333 0.8270187288663756
Ni 4.504188717442955 4.149803248755953 0.06405581045062252 -0.17485249846893758 -0.27302827291042653 0.32549626090215555
Ni 1.8070261647319747 8.72610056513384 2.200224356822143 -1.0609477217824952 1.4098870441989395 -1.0581560179699712
Ni 6.797142461503826 5.4224263184750825 10.921632462496422 1.4536289651715804 -1.044633300893188 -0.08830813761878985
Ni 6.320141910106063 7.783685212135181 11.660778374019142 0.29240822009893513 0.17385053956698446 0.4133084327211334
Ni 5.148984159922697 2.6288574031117533 9.29002562769681 -0.5134963524966446 0.38035743171640946 0.058015657282835566
Ni 8.468758444546188 2.575913757625665 6.042782752638289 0.3444977417053228 -1.2713495781109523 0.013265092540022316
Ni 7.437368225776836 4.259069332099169 4.766744887022857 -0.8396675279786378 0.08392312117721674 0.5819923404855137
Ni 4.257647654434852 8.900449944148708 1.6585623972154497 0.674807879056354 -0.6708987738099349 -0.1674585199977116
Ni 3.863409052781252 0.6829619487627638 4.525051375583149 0.8659323752124376 0.724276675210443 0.23448897918464778
Ni 4.6072141897402075 5.885394726692575 11.800743463238456 -0.05407235636437138 1.217533303621445 1.16348177319268
Ni 1.3538617933943817 6.576837813573572 11.905254311744725 0.04562268293512142 0.7098437876145646 3.0091636041407273
Ni 3.6936755103388426 5.597357292898079 3.8696764356793345 -0.8280358572769804 0.016006916951217594 1.2056067273871882
Ni 2.555724088457736 2.0333683268990037 8.215011137481163 -0.5736827921785539 -0.8675763385737638 0.5627509757573985
Ni 5.159969850965146 6.95292694582427 5.105328500787707 0.8438311724380241 1.0727845665164233 0.25208303811732713
Ni 6.812799379157603 0.9246905405604228 12.504935490732581 -0.05645911142899309 0.07205670875693397 -2.5958405161315747
Ni 7.796683407923222 1.7666560580692612 3.930707950007683 3.174555214307081 -1.66755117594847 -0.774343509959847
Ni 3.092065834831014 3.3167647591782483 5.999694841401713 -0.5552081304131341 -0.034394418319469794 -1.305169611984191
Ni 7.744949111619117 8.602802338610354 5.956187812204357 -0.6773926090643946 -1.1815486579967198 -0.7672876315543301
Ni 6.689316519171219 1.0571650501899548 7.446802072563624 -0.142207972961039 -0.8050998173060973 0.28479852607247724
Ni 7.601765861141483 7.010191014342178 3.8255074955174884 -1.2151678887130621 1.3747534337206002 -0.04164467212397989
Ni 0.7591740264106106 6.542819098034561 3.2433240298085053 -0.48780820370192113 -0.7977467193751357 -0.2759431325643764
Ni 2.966441226675009 5.965341016127541 6.4271979308983855 0.3507619774474798 0.606084348437711 -1.3321870211132993
Ni 5.863349491222518 7.425210112244982 7.722746937705596 -0.4434589881625846 -0.06757681860870943 -1.3791675036278956
P 5.93331634198783 2.462373409616354 2.5954350536579027 -0.24902342535539693 0.07709118585704788 2.0754273819104387
P 1.8117620130553165 7.8206488314074205 6.41253803394426 -0.477950337071235 -1.0887146074831184 -0.9037101081818437
P 1.4142553991084164 9.457849136965537 0.021085141462986127 -4.004526083823245 -1.0903164047525997 0.015310662215141373
P 4.472957967193707 4.518747065992486 7.4079699626468525 0.2710834904792299 -0.6462200401163322 0.6474572549575429
P 5.63840131170037 6.863841299975839 9.757198139864498 -0.5912783937731301 0.18669191430602688 0.20852520813103442
P 5.9453452120956545 3.5035676652656056 11.950045466676539 0.17231224854558713 0.6744332693257546 0.6795770183102232
P 4.956946895162172 9.256967929332184 12.996982746189243 -1.0583655628776159 -1.2758361531273963 0.3474755933867242
P 0.7675471539530486 3.1450833337022615 0.11955201356127976 -0.16915390542226352 -1.3071732726777812 -0.31383785072762077
Ni 2.648363928466959 7.811398694916217 4.181427268281174 0.5649544111666206 -0.00814756880779887 1.6712016282168636
Ni 0.27119239980696996 3.7540598843797324 4.020856161435094 0.4971662478780534 -0.6158159739031781 -0.6467134348129829
Ni 8.0268382510991 3.026844064062189 2.1924549807033826 -2.559173499727844 2.455871459803383 -1.1703175651675908
Ni 2.115724083024791 8.65876474121483 8.347328708667233 1.5943973774726155 1.4552844984971325 1.0520357640048463
Ni 1.9378482048685668 5.112232869132789 10.174811337921023 -0.9568306421559069 0.754146723296998 -0.36776416843243115
Ni 0.5356752195722156 6.938922497663433 0.8070033249744158 -0.16457502780232947 0.932451184870278 -0.6300943381990632
Ni 1.3682355084810145 0.6559593048138871 6.1790727127786145 0.2839557184562077 0.852454652440977 0.5513411912585601
Ni 2.7624858718843996 7.880765486927109 13.266240187305039 2.0138314634755123 0.6353134205061575 0.29114683688800824
Ni 0.2660189701765595 4.3547094658804895 7.148252532559012 -0.7937733365496845 1.1795311133460589 -0.4015466641995149
Ni 0.3985405613391305 4.579953058943274 12.021440457277372 -1.8262406915043001 -0.49865491660843797 0.20379952052059094
Ni 5.284163549783688 4.576805058400858 5.3733156636787625 -0.5417931425588088 -0.45480526641333935 0.7625681145914738
Ni 6.94257824022882 3.7271126304697253 7.701614714709572 -1.6797698295018493 -1.9795756276164358 -1.1630896799605839
Ni 2.330545117106966 4.266713157463158 8.008528150583475 0.4806726210984044 0.3835458567467201 1.15644337828866
Ni 6.06003951924808 0.6482554735744555 9.87027598104925 0.09685654140943319 -1.3889436091780532 0.5127455903735492
Ni 4.0462515710894404 3.3652033481696177 3.501880115414715 1.1466994115280187 -0.7490374270948906 0.9424964849214219
Ni 7.371777188082214 2.6083446253837517 10.560415555682185 0.6977853137881337 0.6156318829168301 -0.22940899355857908
Ni 0.7518080744082828 6.839682011355596 8.231859864137947 0.48935446514311853 -1.330859046330495 -1.9608345995635068
Ni 8.089410531675336 0.9513885392955171 0.753741186764828 2.103562192473442 1.1439380467327978 1.8798049978840012
Ni 2.8189560165118452 6.615527755723912 2.0667306704774124 -0.23923497851006542 -0.03556195626500972 -1.961070626833713
Ni 4.066311996833341 8.418833556178486 10.748103779224138 0.38314913552893365 -0.48357565367781236 -0.4025270258349132
Ni 3.0548252653644266 1.2994687752245417 0.313324832873048 1.9263993007037727 1.0234096156277213 -0.9307174900086229
Ni 8.541679430717872 8.367394673415019 12.650819005605102 0.9560878504526115 0.003231876673736369 -0.3526651080074636
Ni 5.684873554311874 5.0153556911500505 2.6178098598592334 0.9507296714644916 -0.6197235364877004 0.7875445820311533
Ni 0.34974009076048024 8.703169089041872 4.2023425469582945 -0.07029807419461441 0.3240302178795903 0.7746785247017626
P 1.9997742683246575 7.4340540551178105 10.211873736095916 0.7016437683022755 1.144564881683519 -2.0536794487103855
P 1.5721447049058996 4.776430758486502 5.227702636829387 0.6849007445159817 0.5448702388222358 0.7733932302314358
P 2.9887634123394142 3.304154293662294 10.271824221498994 1.3661934599657308 -1.5482193362546564 -0.8831788209977113
P 5.343495513086057 7.318288873880576 2.857638573323669 -0.384791299118047 -0.4144870264102668 0.32726055189143
P 2.8733213396622506 4.433326394382586 2.0449226890071794 -0.30545116932582234 -0.3112096690761543 -0.5013849139450914
P 3.0760950402903107 5.779018157043718 13.300680790306773 -0.4217280242433963 -0.46283842113046103 0.39061998998468206
P 8.856571801690926 4.480509475826248 9.580306358065522 0.24349761044116128 -0.2816396687285214 0.28778511950462693
P 7.216685079247639 5.915628456242172 6.2750313392834345 -1.4841356184008698 0.2424480861307244 -0.6548897999761882
