# total energy = -381170.50786301703 ev
CRYSTAL
PRIMVEC
9.22094345612927 0.00000000000000 0.00000000000000

0.00000000000000 9.22094345612927 0.00000000000000

0.00000000000000 0.00000000000000 13.49578281529087

PRIMCOORD
 96 1
Ni 1.9143324271361164 6.966339861900089 2.05718881714536 -1.450363149936115 1.083652362468863 -0.3644153065648563
Ni 4.620467276725128 2.6394213230204002 4.329487493752116 1.1240209960938965 -0.04748544717547305 3.8162917647307633
Ni 6.020483135593454 0.6426001790940298 5.486008662635734 -1.3064060554944532 0.5614656812870717 0.12828853466646936
Ni 6.184247093003067 8.646967474816236 1.6248252288476939 -0.2841899459542009 0.31287677236593214 -2.051128400153758
Ni 2.3496347301424785 0.7143566396889546 2.4468529821560496 1.6254131091278394 -0.07725882178316372 0.22948047022646284
Ni 8.135822911128903 1.6425451160635753 5.609575760837254 0.19847528009420012 -0.9564102667890366 -0.5396799528705479
Ni 2.224340549214448 6.813004791643081 11.22695243991598 -0.03072031190199226 0.38892177634665276 -0.09902835224977137
Ni 6.206589439219479 6.064457815373096 5.720430866263724 0.25755228876201447 -0.3274220171699587 1.2271795684619573
Ni 1.8090015889891566 4.780220123691431 1.8018756438153871 0.6052865351267641 0.5857610634993267 0.392845279770775
Ni 3.611400982398061 0.7512459464464374 5.302290583388599 -0.3246603952644215 -0.5625216333554118 0.8096033616034056
Ni 7.725112864564627 0.35627236214090213 7.915263474030733 0.04602634613144332 -2.0050478037456116 -1.982429295015147
Ni 9.518134558385379 2.4035772498973333 7.364095404874007 -0.2543885463220522 -0.24917589177286117 1.0885485142188995
Ni 1.968210400286137 3.879416927559536 12.922103961014328 0.3923937940556532 0.09641893965138233 -0.9059508245869041
Ni 8.565205368377553 4.505187040490051 2.900702291014534 -0.0933421004982715 -0.6963809772414393 -0.13673280877908064
Ni 6.740648047623192 3.662743196072426 1.0670780164695841 -0.7198137543430828 1.0249103685429641 0.8195501884034726
Ni 7.078678617143405 2.466408759232306 8.03833079709196 -0.5161376467742337 1.033546189841091 0.37672086340508665
Ni 6.14967777564222 5.022445089749602 3.6375451236392475 -0.4560640785211049 -1.8794234461748665 -0.3714812122727022
Ni 3.055009248721483 2.198319046522448 10.939640748286298 0.900417810583817 -1.0889151535296988 1.1567742792655176
Ni 7.494653822473498 6.285363959948665 10.334908218060177 -0.2095230532679295 1.0429859950977522 -0.34815102218719396
Ni 4.903716220627633 5.588583360756245 10.394600918211463 -0.16037770189153025 0.523620071194208 -0.25931863663381793
Ni 3.1432905622484895 7.662438111269968 4.196864506892264 0.6698983575698785 0.1557648857098672 0.6674452680436957
Ni 1.7663178413062122 2.492374936263019 9.268782725059085 -2.2760515900268414 -0.22301208889329982 -0.427270037107548
Ni 4.669227626206099 0.13100471126720653 12.150577471328775 -1.2507979792118458 1.541920390619822 0.27906779423628714
Ni 1.39624449295726 1.785561950490551 5.074670669815849 1.2312539956416473 0.771905847052632 0.5047008656922017
P 4.372331685852793 4.794097643730928 2.0836271064857224 0.9364093981870777 1.7907777227109998 0.8701739240976111
Ni 9.083339407274147 3.6908578529497853 5.479126150371628 -0.2190137663671841 1.7635268574148468 -0.9019350185592917
P 4.102370121602724 -0.055203022737845005 0.8355862287010974 -0.5723121370832724 -0.10699003029900929 0.37317994013136374
Ni 2.145206411686898 4.512895749296044 10.546117618400837 0.5008866341524342 -0.154692735691611 -0.4223098648887953
P 4.993823280977111 7.810157626906341 5.733048805414586 -1.040922427700504 0.3868512669708692 -1.3640051940651605
P 6.466205104808874 1.8288727223347485 11.222081015439658 0.1042939715240849 -1.8955339785834842 -1.3203704880943454
P 5.994480074788549 7.473519419861852 9.150545332228214 -1.5208982798422002 0.4787280957775239 1.0587728256183637
Ni 3.622180265405484 5.264245892404571 4.35788246731333 1.1256924702590485 0.6191735775215014 -1.0367901506996853
Ni 3.6986772130783527 6.875485905123235 13.077899179009899 0.9852266768000967 0.34747739315893705 0.10973056915862392
Ni 0.7671548403495232 7.27762969513157 4.1118280433997425 -0.7952599483975401 1.3942835333337278 0.11263848683403827
Ni 7.596019654894887 3.1478918130788607 12.427295220916346 -1.0483367178867042 -0.1366353639692679 1.389155210968227
Ni 3.138403462168135 3.277187883506653 2.9480453814722014 -2.714513639195467 -0.22578245254958534 0.07767662604687267
Ni 0.33162570213188447 9.143128005238333 1.8693277679621807 -0.7129964743109334 -0.5900990287530482 -0.09023749343101878
Ni 2.790211412858204 1.5289154287235611 13.239443655307545 -0.04658067597301655 -0.9586031606752976 0.08307902800936659
Ni 2.8419224642744823 4.322501706920274 8.322552550538763 0.8236996917954718 0.24334103025863896 -1.4104066641478357
Ni 6.969438098932162 2.657531256148355 3.460952989565882 -0.2526988173244551 0.713773461686274 1.1004501507524918
Ni 0.3921261569379627 7.685481249196017 10.110783964186412 0.1844332001788372 1.873693742779941 -0.02967850090103921
Ni 3.7787057821300434 3.4890943871795304 0.5663881585767895 1.7876646310033149 0.01963268662926296 -0.016883663129216082
Ni 7.482122560191986 0.33457363778412846 12.698128164331687 0.42858078549917156 -0.06788252277458633 -0.2611451483195954
Ni 8.56943778146601 1.3232053991148307 9.744683920412225 0.645203683036676 4.24418940811998 0.44182608054485195
Ni 5.615960342149777 1.602535442009504 13.600509985998968 0.1650195715389158 0.36887642766000345 1.0615159355811397
Ni 8.55698028673288 6.700970327536843 1.9473470934147974 1.1637324557509057 0.7186395315293236 -0.9650052075468994
Ni 5.77660762064022 0.8724856784964828 9.056358926453173 -0.22017590499608533 -0.25743118980311797 2.475225953070595
Ni 0.7590394879330705 0.04338177310951599 8.384619643653618 1.3339209730852704 0.4195693260291806 0.17224437142212917
Ni 4.8288698218498265 3.021952166102482 9.236446720225523 -0.5220591544649913 0.4438037730965131 -0.0036563658056646712
Ni 1.3783374205873575 5.0561568593605 4.183679479713209 -0.4621370241880622 -0.468948904903573 -0.08130316705586643
Ni 1.4119662017063248 6.043609262011433 -0.3088850111542051 -0.2057389036351489 1.185635426471584 1.2386263768463184
Ni 2.4134805432677124 1.3824776242403372 7.330004654483293 1.6898009884856058 -0.3294074230311036 -0.013934350692905034
Ni 6.79982806331322 4.204381420072462 10.502580011345362 0.6074146372133603 -2.003598987114227 -0.8155719204820148
Ni 5.073925617577184 2.274327284187281 2.3420984529808297 0.8626526760199015 -1.1083737764749428 -3.405803575067244
Ni 1.338558270121982 5.6683168596144045 6.781563218333662 2.8881888295268516 -2.2463278377101634 -0.7963272133197897
Ni 0.4014872588277284 2.782825437076385 11.806394688273445 1.1768036871125669 -1.228726087013471 -1.9467608950792603
P 3.7021719506829838 4.962748701220895 11.983121448122606 -0.5818393598474172 -0.051961223558639545 1.3513389114514018
Ni 6.009242805408639 7.664024113560195 11.871173660885718 1.457837346825973 -1.7269907101620257 0.2646837576004732
P 7.338534027265043 7.370622910811521 0.23355082446271896 -0.19779316642551098 1.632012616722228 0.026131921200361445
Ni 2.6285959352952375 6.716350861374638 8.853463128815243 -0.5182073848190688 0.7622958347666936 0.6909166116927585
P 8.978285197433623 3.72018967437546 9.620995105755874 0.010744383000697624 -0.5656964315389676 -0.4732202785854172
P 8.01134939417663 6.305622372923266 3.9580973946645326 -0.5271152288316598 -0.398759588372681 1.1036861411912864
P 2.1792962399832567 3.778595130807469 5.842513392554042 0.5041478214022092 -0.16883457440963182 0.19114583631232243
Ni 6.208728698122577 6.158271695028806 1.5040917265984248 -0.9215574207759096 -0.9800258493254477 0.3607568838766626
Ni 8.58010641315086 6.317240761793542 6.107881082728578 -0.4816378132251511 -1.7135980909052038 -3.07810362164555
Ni 4.686507674414748 8.745170523600716 7.627546982979302 -0.9265093654645463 -0.30468832301786886 -0.11018514019753926
Ni 7.8877979715791415 1.6250714280404213 1.256824748608296 0.07390301793705337 0.25912991766177956 -0.9474584569123876
Ni 6.503402391080854 3.4367747534890944 5.936902659087137 0.8280366286079287 -0.4185552829423695 -0.7081887685096449
Ni 5.835750752556057 4.995307852888312 8.302699859080267 0.31082246094006466 0.5459609007832533 -1.1087059630033809
Ni -0.07785980312923908 2.181177312467016 3.141130095175231 1.0924072258433575 -0.51958935276826 1.0368426012041756
Ni 8.12009198143629 4.400427900843058 7.57719417654762 0.5464398973022008 1.4156398875223168 0.6196399756349585
Ni 0.45258972796984964 5.837521173717241 9.16865710954488 -0.19401415899905294 -3.4106187370677006 -1.2221949707631725
Ni 9.281893984689756 5.044234179353144 11.444167440789347 -1.0771893804523385 0.5194538556316602 0.574332767057727
Ni 4.4759382075563074 4.199383668669533 6.162592629175323 -1.6609498685818684 -0.31543039202572126 1.6011616927796424
Ni 6.150839614529247 7.401153454898415 3.6459933521177774 -0.29030068683762905 0.8856244543247264 1.0548056134404995
Ni 7.535032334269483 8.790242495662552 10.290885589374085 -1.6545439650555245 -1.8262818291548804 0.7738930526859897
Ni 4.052982747960501 7.210851621958123 2.108014657981046 1.8081627509566667 -0.11852425619085394 -0.8350246298899877
Ni 4.970070130397879 3.1055215774765426 11.904454812432935 -0.4387078466308445 1.26017582088232 0.29776125688073235
Ni 9.213557572056724 4.401857147092972 0.5460541338650958 -2.5204341741761174 -0.12191939791533198 -0.6801732571333253
Ni 7.39720689105994 0.3612664251664115 3.240593646942701 0.807142558767739 -0.11999004210310303 1.66569561079697
Ni 1.8826216022750994 8.41453515080587 13.307719209713163 -0.5046944379342985 0.7621690793808422 0.22779845453834963
Ni 4.177493148686965 7.924939932189836 10.480582528417639 -0.6567589919744431 0.21939171853189313 -2.04400284485257
Ni 1.0523401823970737 0.4995058887412521 11.091644314294998 0.8801873424695551 -0.2774531414509996 0.7942934707192127
Ni 7.809733463503141 8.491225738293243 5.780729382406105 0.8714828727170217 -0.593493656256894 -1.0096835242908804
Ni 4.641426481409366 0.14028466885375124 3.320974456037919 0.3307729359200626 0.35007369313120357 -0.2958218737661744
Ni 1.3211122449294717 2.625949524497008 1.377973193317218 -0.27146324241615183 -1.281584111354767 -0.3901093688968507
Ni 3.8326021971671596 6.373977227443393 7.048766798368572 1.0179200532680597 -0.008634278636230291 -1.6908427994865591
Ni 7.129651993075856 5.547909778766729 12.748993655224625 0.03011893087256748 -1.2705558785650635 -0.6671045968748253
P 0.5415976518484255 7.338174410466677 7.598597830710863 -0.2680907263994931 1.8344851909012794 0.8713694870676089
Ni 1.9666336189394564 8.195279555125365 6.174212862234309 -0.03985749831657006 0.4605573384057682 0.489313584602854
P 0.4496122852982526 1.2258322352496558 -0.2493343135335542 0.06483807952130768 -1.3104959092931108 1.027685874405572
Ni 7.586724943798666 6.950839455796172 7.919797411973207 -0.5174723064252572 0.4345568005769484 0.9744802369168699
P 5.033740745595704 1.933263024239829 7.158069096901586 -0.36649687168423334 0.3100835258915111 -0.284248052885646
P 2.904320589262706 0.32266755547515935 9.550951896472137 -0.5985199058268917 0.5091329333216263 0.03697220634897504
P 0.24925040294726886 0.23082880192739702 4.326599494232933 -1.057433795091966 -1.1842945961729734 -0.5569248559939246
Ni 8.756604493600037 7.416155930050748 12.203858849431251 0.8427399962563744 0.28359524979299544 0.37420478185145234
