# total energy = -340885.8004664607 ev
CRYSTAL
PRIMVEC
9.12760230181625 0.00000000000000 0.00000000000000
0.00000000000000 9.12760230181625 0.00000000000000
0.00000000000000 0.00000000000000 13.35916860089135
PRIMCOORD
 96 1
Ni 6.371951928888915 2.4745843162785026 11.10172311821221 0.13436122322311053 -0.6719986917423331 1.3428460434890421
Ni 4.994715369078084 0.19459683445587092 5.914985811346108 0.07180936863281825 0.9324018196895812 -1.1511790445659271
Ni 2.8529051850812444 1.83808008289956 4.7303617452056415 1.1396725865882242 -0.6772342291096596 1.4934031597457247
Ni 3.5267139299154273 4.854843988226578 4.851462211496907 0.41782226143108686 -1.4894935402786733 -0.11887983975805978
Ni 4.222574962411921 2.5904409749282133 2.1329920072126685 -1.1420647409694848 0.3795318504913206 0.19842874312698086
Ni 5.387549125870509 4.633034119649675 2.6135475006803395 0.18191017664666737 0.7430950934685266 0.17590279411032286
Ni 5.72678560072871 3.247847418053302 0.13465221773672578 -0.19395476651602725 0.05891502916865338 -0.623331565553933
Ni 5.855895538221828 8.258901195622917 12.385646372050637 0.5137912580292441 -0.47389107940019676 0.21675608068125896
Ni 1.7277273685629178 6.805649962115182 0.4089384986597174 1.3719627583493403 -0.3071781793192581 -1.9229658495421913
Ni 0.9399148683883988 0.3764460592473452 0.3842136489827036 -0.8992795832143158 -0.3120517053614755 0.09311687186134285
Ni 8.244269648800612 0.2213434480886801 6.855310509087173 0.6405461296600066 -0.696140321985543 -0.2809531841844581
Ni 0.2307649593987117 2.5933618077311684 1.3998675374722267 -1.039996316341809 -0.09696169952872978 0.12244261740865363
Ni 7.366358584257443 0.41567375655128136 4.4831232887982635 -2.2296146387205407 2.4556719421980673 0.9380680168364233
Ni 0.9272366285030723 7.690835725858212 2.461386715810401 0.0013349167613396363 0.5070757936822815 0.06386748807792227
Ni 7.885965612300621 4.022735233074745 3.59129171766826 -0.09590574746038967 -0.18370840619767068 -0.33765526486219266
Ni 8.012309886233442 4.059738533647181 12.700094104014259 0.1560759891923828 0.49949438179059785 -0.9800762429474087
Ni 8.246003893277368 7.534242577209788 8.651117013725464 1.4182410725905898 0.15563890165496422 -0.2104486504059924
Ni 7.31537179664086 1.1974045351738976 0.14032319717571304 -0.24791579411351497 -0.38998184218005094 -0.5767866279148584
Ni 1.3761503751122324 7.182410010888844 9.401167709559031 1.0706256111918915 -0.4450201620021174 -0.9939355174280043
Ni 0.2898890046522767 5.055660371032242 1.2032681070258298 -1.0730470761491906 -0.14193286492278134 -0.17133780044745978
Ni 6.641097544078706 2.165505440110812 6.637917487364489 -0.9276673903283894 -0.12399376394585743 -0.3263300696573606
Ni 3.73230404883342 4.625859824077418 0.6592511315922052 1.3713274387581866 0.317729215362227 -0.7138842762325254
Ni 6.215577842700714 6.0490721177272615 4.633921322613573 0.9963626388122582 -0.12497078314714605 0.44168312720908454
Ni 5.472664019269119 3.0645925424754057 8.815341750831859 0.9814836648178968 0.42122794467852614 0.5190350229266868
P 0.25075805993493844 6.101382407707684 12.004482255066268 0.6202889220728673 -1.0499333729498628 0.6543436976647311
P 3.9882967888074043 6.305639896659328 12.747839679979812 0.5004027525374801 1.2727839965646337 -1.0582046118197195
P 2.728012199947392 8.510412282764866 1.3722538016010402 -0.5845847838030385 1.7520934187669246 0.7177602142481638
P 6.807256420156807 7.898050558022848 5.751389053292351 -0.3712636969452574 -0.7602538646360003 0.8545729843355605
P 4.888734776343365 1.2585412167807486 12.597856741068577 1.0076716360671742 -0.4655774173281788 0.5415159776380223
P 4.137697386678552 6.316538254055354 8.254243380062453 -0.5608704709052341 -0.45428718912634025 -0.8460037546093107
P 5.136768246929297 1.118724601544298 3.5064342226604106 -1.0278409119261978 -1.2366214306011476 0.861238055060562
P 0.3517102564473204 5.656393530177494 3.4261323140649207 0.14969682513891638 0.9224984445329403 0.8560901923110352
Ni 0.5413672324251937 0.4055886685388284 4.543867483497217 3.286377375887411 -0.3138530202362724 1.1662601072687657
Ni 2.033547690634812 6.618187261780528 4.69167348921 -0.19524160364825086 0.770880234001595 -0.6980725060112494
Ni 5.8604045738613895 5.719574794746414 9.218761701014493 1.855181028687734 -0.8263687539872028 -0.02043872747032609
Ni 8.949559494689145 2.774590355552015 10.423491137202051 0.6311502902674034 -0.03464124422295325 -0.5691285971489681
Ni 2.485811267364861 5.6069766901925 6.998026963640807 1.414054802423384 0.1502601538415541 0.6326646700294006
Ni 0.6358945095313256 0.470713199681964 9.276580499109237 -0.20248825790833513 -0.13985361379624947 -0.26866691061793735
Ni 1.7142732824643065 1.3559509907592966 11.528668551102145 0.3594911297903615 0.8402568248232045 -0.683763545587745
Ni 4.354067204159949 7.069538078259653 1.4990991809116176 -0.043167536526409526 -1.031526588307901 0.2751242362075068
Ni 6.084514598270619 8.003812088297344 8.040736891488201 -1.244182016557225 0.5687593867350076 -0.3049436335617845
Ni 5.193843145419539 3.0011191946261904 4.551843182569787 0.4542622494256758 0.193794329678763 0.5089627262923493
Ni 0.9539257382400734 7.445257580347263 6.6590780082616465 -1.0554735860418016 1.0328977576238147 0.6073968966015475
Ni 5.110179540819898 4.6857642793455225 6.891006736980286 -0.07929822081069568 0.27530061388437105 -0.3837374039322359
Ni 0.9889666042730237 8.128394734945884 11.576508141373543 -0.09287595949513038 -0.19406840927575608 -0.2975658530404746
Ni 5.064066892943246 0.4650312671199657 10.564243331695698 0.000862348000295289 -0.5692111295604454 -1.1062721567509075
Ni 8.55316597291812 7.62970817185387 4.286983889518332 -0.40113811590718657 -2.4674501657799186 0.7087775511335793
Ni 7.179215350010613 6.015345626455641 7.055070828282517 0.2512885672404898 0.30790991527896006 -1.3088041234129846
Ni 2.276880445928488 5.627194329750455 2.323239539072889 1.325134485141892 -0.6331056142215612 1.7068006083673959
Ni 2.3850242804578956 5.702898664962044 11.381784433242792 -1.3225358711767805 1.2068511413172505 0.9682612525903517
Ni 1.2428965060799213 3.5331762724919655 3.875241391367778 0.08663743478458628 0.40930496798869503 -0.22071198000521342
Ni 2.1311765270735816 1.5639873071497643 2.668948396870388 -1.340596328222917 -1.2191870371747842 -1.484190382898205
Ni 1.364886913615837 3.929332476597751 8.183786503533423 -0.05800614420113881 -1.3684035802431724 0.345297869009115
Ni 4.070545615018115 2.5923303886476243 6.967046967964214 -0.7271246861821994 -0.20854963361106665 -1.1754769978813433
Ni 4.306302460229126 7.049858967249745 6.0023543098042484 0.46986344629804244 -0.75014788655025 0.00608451563118307
Ni 8.666220457597495 7.558923614394757 0.0601810216241343 -1.4271913398053422 0.09825547863948886 0.3968250903541295
P 0.12172570706314821 5.784417282972014 7.872211228079457 0.5273599978526143 -0.14988528700063863 0.24292733975998804
P 9.088435966867143 2.059734782233805 7.873493656232004 0.004042288390173683 -1.6340376175720568 0.47241295219277346
P 2.2213572398648163 3.0654779199188016 10.135601077499297 -1.4522894204245502 1.0976206517234968 0.5801969391479879
P 4.395488264346854 6.430386840153033 3.667305478604912 -1.4579396767317923 0.28209886775312704 -1.0782625589118593
P 7.160357723226534 3.9933717358025382 9.96475061373145 -0.2222674974177914 1.7301894196049816 -0.2580073740215621
P 7.0540576644039925 8.316131263355814 10.166341017229895 -2.4060499082955658 0.29128670489998226 0.7190689057572583
P 2.749361662216491 8.517677854362216 6.01147917403273 -0.08658164184598637 -0.16758681804545975 -1.8412222525147968
P 7.2436836065333345 4.370971524007051 1.405037411533457 -0.3902973165379407 -0.19329116479009936 -0.1435007236305335
Ni 2.9867067102641096 1.505141653772731 0.3412034731989408 0.6269192829051913 1.1631084490136614 0.08876630820213101
Ni 1.7201149480702165 0.8339187587294139 7.0482306029620965 -0.44355797563429417 1.5888304249077991 0.21354991503913548
Ni 7.250228097532455 0.9766352132830483 8.934545501321706 -0.5921438270972189 1.0627104701098729 -0.09828273233299847
Ni 3.494247047790081 1.64330617295501 9.178737164011501 -0.9676197623516111 -0.4347257220546448 -0.11716311417726918
Ni 6.430322946935468 2.15408680937176 2.1635311396880645 2.6462289958864553 0.5759880432729628 0.7333922643584659
Ni 4.236421535418429 7.034223384151425 10.34576777631542 -0.7013951426265791 1.4482543311232283 0.571813343069983
Ni 7.407332391921395 6.4722003872478355 11.064464244769516 0.39113549616851995 -0.699697443209182 0.7614548269226371
Ni 7.932525512700225 3.8046311711165925 7.757909912897319 -0.17484864181419565 1.1589694871446232 0.8564221217291574
Ni 3.1652608705497505 8.597471355497943 12.50658710529799 1.406632541817384 -1.1889081836855846 -0.8779939343626622
Ni 0.17605684823911427 5.104118812753766 10.038573750065886 -0.4176142591853389 0.021055535118718577 -0.06280999334768538
Ni 8.809231733712178 2.517730493339653 5.721665015721029 0.4818920953278024 0.6527879231418371 -0.5668254029370883
Ni 3.85639380494646 2.849801800228105 11.575773369371548 0.4360629528088296 0.49135041252722483 0.373850226725511
Ni 1.7605684823911427 3.808738592245748 12.713453263046775 -1.2389336236740922 -0.7787825195678071 -0.45418177389672754
Ni 3.582209753171572 8.44670161725041 8.09556274872017 0.021781100430833453 0.09151841702597141 0.33444292857248203
Ni 6.070394197188833 8.141392440919034 3.1882195291412274 -1.279072657786823 -0.027260378377849823 0.6007637075557459
Ni 3.028876233856772 8.593829442096759 3.7681536204486887 1.2801489215701372 0.1771803752711658 -0.2933389594433206
Ni 3.6927358919558895 4.628525084010114 9.99272488990175 0.5746065895444039 -0.37242223602973284 -2.434256452636769
Ni 5.411280892394518 5.1700657408829835 11.527573238801036 -0.14991588312825793 -1.4300578627198597 -0.25629990441215217
Ni 8.308829181348427 0.3116364303907782 2.2612393862686644 0.3057933831565895 -0.7970795181047822 -0.8770783645269281
Ni 5.061702843893354 0.17522623641077395 1.2713810152304883 -0.3544504820426605 1.6108226129081742 -0.41146058087911713
Ni 6.251285023716838 5.960096248467246 0.12233543091076506 0.6791234757125724 0.5222069928967652 1.3353425360231452
Ni 8.244945091386297 0.6080900067676962 11.114574782545212 0.27577061154225413 -0.21100478001977854 1.5346151152076604
Ni 0.5925447869342193 5.111028407853257 5.795647885099377 -1.3294128008022716 -1.2677729165032876 -0.5289772217410631
Ni 7.478354267045748 6.390444451572624 2.4871028231199173 0.6416851283604561 -1.020913331568429 -1.04505290492911
P 8.712844251214664 1.9127256162200779 3.5525906830291065 0.2889182046678056 2.0878406679731265 -0.9569077752507456
P 2.21594457157684 3.4926679725559837 1.4615865601191669 -0.6186261896584635 -0.7527472718463101 1.558142251795323
P 5.212846813843764 1.0169974715788823 7.924191098849044 0.6375456522707859 -0.22209909016072718 0.811353768635609
P -0.04489685122242152 2.1520513540122006 12.551420063302848 0.03230102612555082 -0.5644039379797893 0.6873479205048937
P 6.889295311509804 8.09160136923116 1.12201784052963 -0.825339798502056 -0.28604962487075897 -0.421215603383352
P 2.222753763048729 3.304310767175425 6.149065003215924 -0.8259609770258226 1.1978779912843627 -0.7242352804495462
P 6.910991622674254 4.173495843719768 5.53283317500999 -0.05826119763473837 -0.5480527503152754 1.6626295702771365
P 2.5879673946482105 8.946446982233496 10.080388209920939 0.4382663882180517 -0.9199502241897898 0.7287989885608287
