# total energy = -340887.99103918945 ev
CRYSTAL
PRIMVEC
9.09621168709291 0.00000000000000 0.00000000000000
0.00000000000000 9.09621168709291 0.00000000000000
0.00000000000000 0.00000000000000 13.31322526322793
PRIMCOORD
 96 1
Ni 6.396074038667344 2.1234287594829944 11.830930463887542 0.7903594257721291 2.2231380298572616 -2.5698626040105745
Ni 4.56948195615287 0.3275727763610574 6.204415948164035 0.8106300030957071 -0.39339575295760637 -0.5803059539220263
Ni 3.0083810050293276 1.49364344502853 4.840036038985614 -1.1576407410308707 0.6759026547824295 0.17676257100745688
Ni 3.581087590958144 4.567317057764169 5.082377311556182 -0.5894642233825267 -1.579842619586892 -0.12356927481392913
Ni 4.893079687993496 4.698238833010328 2.598381996571376 0.05878878800343423 0.2496939690598603 0.2970601170486497
Ni 7.228532046393515 6.285609643573245 2.590553796767524 0.3674270968079865 -1.0850888378050734 -0.5877976343133813
Ni 5.294177143664962 4.596379454200733 12.025769499628367 -0.185940380851983 -0.9751644074680884 -1.680185576883029
Ni 5.43868865921667 7.825943943346341 12.274394435253202 0.4911796912773153 -0.8860245179766224 1.571292416024036
Ni 1.727570721760656 6.706591418058586 0.5830044072138978 0.39141883173689357 -0.4584104672660944 -1.7618934355764817
Ni 2.485539851734392 1.5907909861685972 0.36347097590312427 0.6615893234835509 -0.44515231670460753 1.2076083311982493
Ni 0.5260275562594828 9.431043270546148 4.744287495207657 -0.3778529201270009 -0.12855078718892057 -0.44488183665204023
Ni 8.598712609784018 2.3006229637347273 1.6354897705470886 0.37362216987510494 0.9362451046950714 -1.7620250760583396
Ni 6.872015124348216 0.6043950586881469 5.002311546399909 0.06062198455743108 0.004155159818954134 -2.062273875247616
Ni 0.8307833951490285 7.719227187479744 2.552318780435299 0.1374221215366214 -0.43427937854584564 0.6705179934317486
Ni 7.540450242389212 3.863852428400103 3.7162400142739895 0.16704302972684779 0.9019949252629498 -0.09057610771736013
Ni 7.576571299118351 4.238279791316637 13.000630521030192 1.3777703661700529 -1.4892551990156222 -1.3849635414843824
Ni 8.29571779748293 8.877556979975848 6.8362879335864335 -0.42921019155305434 -0.13163276854835393 0.11060423001282886
Ni 6.717970778916847 0.6565363634936799 0.004003242776755008 0.8159010216866593 -1.8462099355373753 2.9718543261673074
Ni 1.756360231845704 6.376107853948014 9.275497140560264 1.1781620009126743 1.152572325369028 -0.3683460090778301
Ni 0.2304070427975559 4.887922135949824 1.4594353216235256 -1.5772679168811803 -0.03681099818076241 0.48599557597321463
Ni 6.604249940027978 1.9471168877678335 6.794910176105905 -0.17507258489954367 -1.1944512249910009 1.8938563337707448
Ni 3.627132614670786 4.728283620312355 0.5475410065919147 -0.38033917688396435 -0.27499079595343606 -0.5311109802546143
Ni 5.944092374649666 5.443482362791653 4.805901594895518 0.5094026420432453 1.0223690901783489 0.08820349372012551
Ni 5.002679942974457 2.726261998619292 10.009402242436055 1.3150704160376707 -0.8153729170973312 -0.6888288759257943
P 9.373282326141707 5.582499766466151 12.527225459176083 -0.43076622318626456 1.8995842373934573 0.3168329288002027
P 3.8186442561654466 6.2077642636971495 12.340787684577297 -0.08684466569938593 0.8009150898007884 0.7164857184111144
P 2.4170817623504837 8.714225402381182 1.2750178156471366 0.09499917648572027 -0.5997658624188509 0.9431153494523435
P 6.374334092663152 7.843981731181617 5.945127523543088 0.3091864679985385 -1.0170060260942226 0.009783304639008956
P 4.577140966418781 1.0772552574603929 12.687890027495257 -0.028827465754653583 -0.27452799738440464 -0.013099770606751632
P 3.9443175172507616 6.058713738498542 8.147720613601177 0.1539802830056187 0.9689945312119507 0.5424099502072013
P 4.889896013892464 0.8616623050655253 3.944522182014399 0.3432949796464733 0.6872543323498229 0.3181297932347554
P 0.06060623942959161 5.846617369887779 3.5299750676978303 1.2022020725810136 -1.1223713763056153 -0.5648088867276918
Ni 1.4950078767861152 1.049821082921213 2.688552743324324 -0.19513490286705748 1.0615187637946168 -0.6437579517290848
Ni 1.9872220852291214 6.3804467469371335 4.796129534647693 -0.2610291915670214 1.2565091706640101 -0.2621730753634775
Ni 6.071202837186305 5.820465761200729 8.975203903139192 0.8858260288125712 -1.005449688715191 0.8948107488096848
Ni 8.703100735451004 2.13360742039458 10.180144503716752 0.4218483518713445 0.8170976130979218 1.2974303343584042
Ni 2.233165457639714 5.073348411805654 7.212333512567463 0.9464343865232475 -0.4525419243004594 -1.3463334878170103
Ni 0.547947607255675 8.93255267601825 8.849673452577838 0.882958734567105 0.0641986461650959 0.8476549170594886
Ni 1.5544698127816787 1.000228536638849 11.607081789738114 -1.830819312013918 1.6665152784847879 -1.2187255241573334
Ni 4.049960920134726 7.151860077828943 1.6225622344545547 0.37579603759797214 -0.3142960213109619 -0.4573722558095672
Ni 5.498077825518496 7.933297434033145 7.966327598020769 1.1100365088893462 -0.10765054670114364 0.6999021030208205
Ni 5.322184379542328 2.8955334024653134 5.180575465149588 -0.603708906226999 -0.10164085017195397 -1.6391872800937963
Ni 0.8075543992867262 7.069357437553625 6.954722429387174 0.060600130180560145 0.5204535005407682 -0.16438348061681368
Ni 5.030396100076872 4.358022322362315 7.184362661536968 0.1836487566043289 -0.01899916681032212 -0.10006013594839541
Ni 8.446014503686799 6.844972086912877 8.959268249831768 -1.0923352349548414 0.6758306638939136 1.0951084268246045
Ni 4.832580783862168 0.1438793288373605 10.641154157863784 -0.9182615236334574 1.8395456361433222 -1.7623246095766292
Ni 8.241022276427197 7.485336295594487 4.520346039698712 -0.6409953013822832 -0.16445367173311679 1.4050423145121287
Ni 7.582674857180615 6.040803297627307 6.806133082122629 -1.306723586734872 1.1521228965364352 0.9482832668065281
Ni 2.2826579455931886 5.272973874152088 2.4586332574748115 0.8764895819029938 0.5446740636510298 1.8556939637684104
Ni 2.25465980592754 5.1066587391141685 11.206953080614534 0.7912791093729211 0.8874987885293038 1.0704299502413177
Ni 0.977870048237886 3.4217765389424946 3.8059977930149747 0.6365274954189167 0.14795721673999035 -1.0726513833726687
Ni 3.808474691465578 2.5785668089665514 2.875936523941703 0.20388410981459726 0.37213864335104296 -0.2782928637434755
Ni 1.2870320920832603 3.070026031837027 8.135059596511958 -1.1093729071634182 0.13802350256604615 0.6274548436936871
Ni 3.56800723850876 2.367580178185292 7.236443931345167 0.5536839804591238 1.7216939805394604 -0.6442467184400453
Ni 4.194026721312289 6.707901272545867 6.09720435838002 0.22578502365274666 1.4320664085094563 0.15412940698897326
Ni 0.8251473823690298 7.439364041575582 11.329102469280592 -0.7576814759231338 -0.2701463233769412 0.3941801965321147
P 0.30736281316770525 5.1126440464241085 8.138054979030443 -0.8138037728379984 0.45189066386970567 -0.15791252818048934
P 8.589434473832439 1.6206174643894098 8.09964622505442 0.672206693988081 -0.15281840148703357 -1.7403686741308286
P 1.7094692604433586 3.067588247096808 10.710303559338202 -0.7702294877914735 0.02837855114269306 -1.4180999190270351
P 4.072328504747406 6.298426205882829 3.885944397797751 -0.6462246681020225 0.6522731882889475 -1.4361490632192622
P 6.73618139477475 4.037835669915651 10.439286479329052 0.8632885098316875 0.40673386482740914 -0.10134414486714158
P 6.428920459178278 7.752464745094518 10.23777719153598 -0.16801670649402678 -0.44230096329874147 -1.5973166080019394
P 2.1019253149834514 8.489157835861642 5.82272526019129 2.0325974312291057 -2.8526171030698286 -1.1735556124889144
P 6.701006344064204 4.14284233797941 1.583314809758202 0.8065861720436366 -0.2853145464769473 1.405103249657051
Ni 5.221052697670111 2.8606676229531525 0.5935450973518294 -0.3035704073633417 -0.35886018107458195 0.4149045735636597
Ni 1.7290443080588478 1.0423439968896457 6.827235383685442 -2.2003850524314617 1.6328536245662848 1.7159269961486963
Ni 6.9528167730324135 0.7550055841962611 9.157914959797427 -1.4742165595149448 -0.6078452969928757 -0.02944504473399445
Ni 2.912088507790681 1.6624145572301035 9.418614206855718 -0.769474869013636 -0.8936061869786224 0.6084163390049974
Ni 6.432904599910428 1.8945407840422166 2.752922085541335 -0.08907715457433046 0.9286546939423233 0.10265617881034579
Ni 4.286771695981215 6.822213365196356 10.241797717114999 -1.0684332315262632 0.17658593622027652 0.060259459011689775
Ni 7.999672490933807 7.320958653652338 13.386181641255732 0.9068602237750509 -0.29945587097433585 0.05275415177358011
Ni 7.380202280566687 3.506898888192377 8.220517595974206 0.9025955349614261 1.6916115593317835 2.404488734456033
Ni 2.938058192243386 8.426757823481413 12.36882493795333 1.4718043505290266 -0.9291488599699224 0.5870319597919503
Ni 0.019072027107526073 4.820773901053197 10.455807928671065 -0.3141155298690397 -1.6282122691395315 -1.0544538865280357
Ni 8.86192968824564 2.4992660352156992 5.769086718937101 -0.6446349550173995 -0.16737804446876337 0.7455481829947095
Ni 3.4298721673708337 2.8241463329084553 11.909958351286878 1.0425044274756432 0.6071991787684446 -0.0890054207961306
Ni 1.1636601725624054 3.748685291848194 12.894124797275433 0.38127300155214333 -2.33796812502598 0.347757129182885
Ni 3.2472930057824976 8.583130799112395 7.992568349582647 -1.642475721037081 -0.7261574371729236 1.2517744841925023
Ni 5.767098287055713 7.889480982191226 3.4698527467315956 -0.9797553692728804 0.03310115342934299 0.898492054316014
Ni 3.229901048979145 8.567712720251683 3.479703944021361 -0.3122291114796042 -1.1809776159845984 0.7005518207896774
Ni 3.6067752928476144 4.297277820514621 9.313572973187435 -1.0847180847292157 0.16206126024154024 -0.1236914022140902
Ni 7.481097460934254 6.2172061314596405 11.339166517924541 -1.1219502296077968 -0.32768529813367436 -0.20072576669127365
Ni 0.4282323648451487 8.98452842977053 0.17631914868453472 0.7136171386140677 0.38766527823173236 0.8573328064688849
Ni 4.8645994491068345 0.5481004236125246 1.7338880407982753 -1.099798633211422 -0.8301212790510994 -1.4442516377217385
Ni 6.14121637877386 5.9022134159035184 0.3569499017230387 -1.5458243536599183 0.853424215443098 1.0867340867179802
Ni 7.858026282073028 8.963370641316242 11.208417570701007 1.0735936926812801 0.2472084836338452 0.7523482366356785
Ni 0.08800039063721574 5.0523998362208635 5.562691855830701 0.5867992749558539 -1.063912203727458 -0.18321424017007157
Ni 7.876191416872346 -0.25634034240339215 2.5462479687352166 0.007990731514960433 1.2047158401418026 -0.6051070721261063
P 8.405427207004498 1.8417918522939725 3.6743837960571337 0.3727683065152419 -1.2932579481482693 0.6216338661365359
P 2.1639978637418613 3.2590453113211653 1.6818331500040562 -1.1514101867401265 0.37820336148788414 -0.09369331319010316
P 4.864535775624813 1.1287852968385275 8.375563434315643 0.8904483580759309 -0.3816206146995492 -0.008141912380844043
P 8.614912962852413 1.6663077358450797 12.710841588900184 -0.4304952289130651 0.6854442757242776 -0.8145450218793973
P 6.315918221015071 7.969982455888753 1.19621096619253 -0.8846101541275992 -0.6215752449844586 1.2055941289816978
P 1.8507061397768625 3.2285457134332773 5.807654656618176 0.6736927916153044 0.09399721758376715 0.5874736753150591
P 7.00710296456087 4.070663898003152 6.173661656348066 -0.010024474115537573 -0.6601847298265404 -1.5080782452593964
P 2.3253919482407572 8.633905852918 10.230974134792659 0.4972654924600791 -0.7781654548090985 -1.434277557228162
