# total energy = -381167.4549612615 ev
CRYSTAL
PRIMVEC
9.23286681786159 0.00000000000000 0.00000000000000
0.00000000000000 9.23286681786159 0.00000000000000
0.00000000000000 0.00000000000000 13.51323386041641
PRIMCOORD
 96 1
Ni 4.052277613960279 1.1624825814277537 10.385271875828586 -0.05635498175096101 -0.4775029651211712 -0.7618458917134686
Ni 6.215566043326931 7.697865903683386 4.815914191640769 1.5277433277884915 -0.22116269438938685 -0.19299728769876437
Ni 1.5829473431822227 6.211697472067047 8.711238606853378 1.430989887615826 1.0034015479369107 -2.7938074891307885
Ni 7.999752954958877 9.09506642918936 6.17058905517562 -1.305639609642074 1.5736969117004704 -0.3036393129280641
Ni 8.831735830375148 8.254949397973666 12.538200105169663 1.350319726158268 -0.8291892541551332 -0.7339316818017038
Ni 2.892777248563415 1.8219955018687612 3.722922783452914 -0.18061999708033408 0.24578075004838315 0.03486338753608835
Ni 2.85383301568945 5.146252322480301 12.538686677258912 2.174448277961042 -0.012963245028887349 0.7139279849862672
Ni 5.594249493535424 2.9916981852660363 9.803161772332954 0.08628853608559978 -0.17947457062198124 0.10658302466857775
Ni 9.292972932663384 3.6644510369401555 11.86820049442561 -0.3037107895959479 0.7729291461108236 -0.41200359786678076
Ni 3.6294677039957612 4.450066454439628 7.109136757857896 1.2754512589841518 0.5553623966028113 0.01759328760173099
Ni 7.699638614141376 1.8046746434354852 2.4399494415102687 0.07755655552924062 0.1894298820624802 0.4054948502139855
Ni 7.048167520830104 1.2430762771975115 8.194262686675117 0.13863953888349026 -0.2361828219473029 0.34998010497613274
Ni 0.9692202100389848 1.2992675055690026 7.187581042197341 -1.5688089874805498 -0.020328941365339186 0.5719920347396923
Ni 4.571940298426431 0.17107671534968663 4.841710821951309 0.36878721038030676 0.5328906978628564 -0.07404160039744667
Ni 5.597656421446874 8.57517292304899 0.557833203088139 -1.2641540888037777 -1.011510035976658 0.41646831850635374
Ni 1.7786010271158845 2.5177104936940298 12.731912117179807 0.8548498921460309 -0.46993543718655845 -0.38432155857048006
Ni 3.1155386299171712 7.0515098186727725 10.282584852689432 0.434430045191097 0.5024349524761605 -0.27262640948631756
Ni 7.909547844674706 7.216944329017888 7.984659064038452 0.7893003883799956 1.2249537644552324 1.3854942171768718
Ni 8.398188096126034 1.6336357828403703 13.090121503537745 0.10507301578195452 0.8466465303996323 0.7528236336102002
Ni 6.557800723255629 5.799145277304752 7.028517210060627 -0.9052615118293635 -0.8865994166434858 -0.9945746936739001
Ni 7.285073654379905 3.830762669647297 8.44700134050284 -0.19580313257867568 0.7218171579263569 0.5530581739496668
Ni 9.21334868792534 4.916686318170614 7.091880529493401 -2.182097309865868 3.040119171981977 0.1510844495150624
Ni 0.6143189599159314 3.062311151842632 3.276581065445278 1.1767129271709733 0.8414133070251509 -0.6306772072857267
Ni 3.5865718040591945 3.8637147718585774 2.6769174352687597 -0.5921093743148577 -1.1536308485405293 -0.2767106068580202
P 7.06605158414847 9.206063955887037 12.819315975625676 -0.11526898247834987 -0.540601693353869 0.21877131133907485
Ni 6.299160420861516 3.8144112622457347 2.7843880067843942 1.5169248970167488 -2.264039396057314 -1.0445746797411106
P 1.437695880030679 2.1475925555198665 1.406200724227059 0.5811299924852185 0.5094448081350903 -0.3379316584520309
Ni 5.564242675887158 3.761922413528691 5.823879204627194 0.5005235943860605 2.815894550837815 0.724156604692811
P 4.4842557608247136 2.6313486203447543 7.873594137411903 0.8753037891250087 -0.11984040389911618 0.14550824097886553
P 7.338578118463505 3.4978901168248586 0.8234184680161066 0.314382153266865 0.3763940761932873 0.4356420632213271
P 7.318099619526935 6.702969090604455 10.161857730780142 -0.8677280336602798 0.6587608528958203 -0.25014956854004017
Ni 5.141054218376924 5.2709144922916495 11.387143196615671 -0.9100252517665939 0.8889236939012884 -0.1642158446906978
Ni 1.0142673679792582 1.0303233236378226 5.0370173500869475 -1.8168260830586196 1.07779230414366 0.8383958603550656
Ni 5.134665074434586 1.2341480948387813 2.6735936031600285 -0.9442183527085352 -0.5219473114774753 1.6684027253154878
Ni 2.6985177275420265 1.3724379762959276 8.470392808968034 1.686515632866115 1.8446572463382747 1.502561429206225
Ni 9.029319183505267 8.087548286964218 3.7203551231489196 0.14350355184401092 -0.04766953816182113 0.13155743522572824
Ni 4.108745828340831 0.588986742813917 12.56272629298531 -0.7275561172926631 -0.12158772560752608 0.46829121671491614
Ni 2.7334271975506703 -0.012691498935171122 2.2859119821513127 0.4611502347947606 -0.6806237144071827 -1.888254414202935
Ni 1.8438219993827611 8.590287126276747 8.810007201251015 -0.35120806384596287 -0.6950162356834289 0.9962273987859748
Ni 1.7027991893028809 5.238248608956399 10.660293130798562 -1.1501385191165547 -1.8199186059410142 0.7154881303845355
Ni 0.7067482678528619 8.186773908276807 6.760927489713755 1.6742123900187293 -0.6094638064329051 -0.16248986313852662
Ni 6.234022544397357 6.104586982363191 1.3569175269215477 -1.0825655571625872 0.2116753237242419 0.32100197257622776
Ni 0.5200486183054428 7.3436654281632565 10.441162112736897 1.3166033077424293 3.3193715714252443 -1.353209131890921
Ni 0.9551770193795965 5.496805815547794 3.0467343819797432 2.556626307825958 -0.0342262681727217 -0.13740129560101497
Ni 4.668571484120815 3.8788936051551155 0.44745058533057697 0.01913903482229607 1.7198795530385411 0.3151221167566831
Ni 8.412526738528422 8.601948237258213 1.2915368260561122 -0.049325585708005375 0.7396181906635199 -0.4899021101164724
Ni 6.743178226253131 8.768878472052258 2.6250407256317403 1.4983759303699677 0.48619509357853036 1.6362929892651366
Ni 0.5838588084995027 0.8664279322163887 2.9360064549975515 -0.23609668999139985 -1.9052869442051898 -2.4999936469335786
Ni 6.833632623945457 6.398155220499887 12.630698659608859 -2.8740302786382825 2.1368520648748235 -0.6970826312941543
Ni 3.9925501975397775 6.9989194084190745 5.092043390646989 -0.13815951392327822 -0.4843356717722885 -0.08423628154226138
Ni 2.913560432109952 7.835491018718786 13.216456668843822 0.7020628581175651 -0.3920397531503442 -0.2941452573946998
Ni 5.863452195741728 1.867061125542972 0.7746513879741452 1.874601342195875 -0.051357528536369615 -2.538074255855384
Ni 8.477073711506584 6.827178849934337 5.632194730203376 -0.4310436452173674 -1.46829222361071 -0.6248274333731691
Ni 5.682774222031292 5.758022087826174 9.145432641790299 0.6245111876843309 0.05710574387405649 0.6720629693213651
Ni 8.931118410426205 5.307439714019815 9.43687270409071 -1.6291442940354974 -1.233306764405618 -0.4367921176653703
Ni 6.100422959360309 1.4182699279285402 11.751540450416028 -0.0010906619610174765 1.4623784292294362 -1.087703906830417
P 4.813564426997235 2.6822586488101505 4.28057409906177 -0.9628557653040642 -0.9299212193595727 -1.392162887446299
Ni 3.1869825545209496 1.7556573526986718 6.170034159870801 0.4882054391403398 1.4412586165316856 -0.4452253360343881
P 4.736377659138927 6.365156953953762 13.211713745082003 -0.9016444839020665 0.3766087633072546 0.8921735682971539
Ni 3.5625109527387697 1.8788791952629045 0.7980447030127332 -1.3084788788630821 -0.017557806378105244 1.049354617628257
P 6.736909109581386 5.536913389659815 4.927641114828973 -0.06317123334184604 0.09842748544097886 -1.1011831722637746
P 7.752349051665669 2.8191820659559297 10.754547776535203 -0.9213905561807423 -0.5122861342386273 -1.2991380610781302
P 2.166852316016569 2.808868953551895 10.191910712763251 0.9450850715842046 0.14373649379042341 1.0110834899622008
Ni 8.651260979738025 6.012119819671689 11.640583548333016 0.578269640218288 -3.2328287532369937 1.5876672578376336
Ni 4.844817681686275 7.8772051116833595 2.7785777636009934 -2.4747595549571377 -1.3350388887397975 0.3323914453600921
Ni 1.6912765713259468 3.91805019396936 8.036198774031114 0.6827153068288887 -1.4759690234296774 1.812870183734665
Ni 0.2544679698109594 2.420802321990584 9.250443577545473 -1.1513104279374688 0.1144446868048416 0.5513753869306052
Ni 8.640486223985555 4.337462408889397 4.659457721136015 -0.9480809209877351 0.6242944436878345 0.9144989712672315
Ni 8.106780348860015 5.9666202512499495 3.0067486817117093 -2.5404121599599407 0.9050036301822866 -0.06171984560730016
Ni 3.20817198421411 5.7719360183480015 1.3690125826505408 0.7658598979688681 0.9420156886302615 0.10434179404288482
Ni 1.882516944848571 0.2367621008250889 11.32591451602606 0.294373314245106 -0.059010674206253215 -0.886051514559816
Ni 4.884380516647142 8.544011997029637 9.066245111659875 -2.004969127988876 0.16784007170684645 0.6047671722881843
Ni 6.438724437960342 3.837862744346225 12.35505510940519 2.0361776923811967 -1.3989855667950877 0.2145279626816886
Ni 3.780018832787338 4.622850326891827 9.762027503414014 -1.742609390535889 -1.011398192989142 -1.4450638492103887
Ni 2.216599003243909 6.278395703048915 6.431664064589379 -1.178793463849086 0.887717075187697 0.4369307001257636
Ni 6.117226777243339 1.658462962119197 5.965052510438665 0.6102014559298782 -1.645191320196031 0.12217830800367346
Ni 8.307272055085274 5.57755647005602 0.4744188664594445 2.2008378236981643 -1.1665814951639262 1.6260605129038512
Ni 8.595125148568345 0.6318392482757311 10.695400184160336 2.369504247961048 1.1619069725063926 0.5758949693385242
Ni 4.95852043840578 7.810950058315989 11.379466991017896 0.8863050253315188 0.4730313025030628 0.9255287467188319
Ni 2.736797193994245 4.787583139347322 4.857358684889857 0.05636346639139325 -1.1501632017069032 -1.044341480684382
Ni 1.2439810981604438 0.36139287888874444 0.027308973920012473 0.4898861692768724 0.19938107973792113 1.666231171585466
Ni 3.94455775503649 3.0835282801366986 11.777851351416725 0.11657021778827664 -0.29928746371727166 -0.21268653859757564
Ni 8.339771746815089 2.7561308174266963 6.809412967313171 -0.013342739855493151 -0.8291082644055527 -1.4209512724329012
Ni 3.2013396626572743 8.790511079359915 6.910884021872546 -0.05398750996004895 -1.095150078695817 -0.5098271311751736
Ni 5.12350253826943 5.404107831182075 3.364227748292423 -1.447969452892958 3.448922260633589 2.0072836350546654
Ni 4.239427827415771 6.72595892935651 7.683989827916132 -1.0000786542112647 -0.3123890340962362 -0.2581009621766329
Ni 1.3327643469314359 4.485280609058239 0.6009229932310487 -0.9197190820155902 -0.6558915017678253 1.0639512844955095
Ni 2.4171738052718865 8.685321025985548 4.492501634314457 -0.5285326780044768 -1.4694142530302952 0.5761600500744529
P 1.0928298330159025 3.652411378412974 5.943471607186032 1.8170392275106901 -1.2024856652597031 -1.222787610041849
Ni 6.761773220328086 9.029716196784921 10.104736752704904 -1.2466034815145242 -2.2972467360472177 -0.2709721617123462
P 8.898609485829422 9.137436055708712 8.520147805775647 0.009694344469628465 0.8389028818984713 0.2481921877033532
Ni 1.0920081078556885 7.394280004885656 1.3080553483498083 0.4613476955175474 -1.0328136825504406 0.12406292662089603
P 2.662841929574981 7.0142182689862045 3.0484101473345615 -0.041317113581232065 0.19917410593343762 0.6711340297491926
P 8.027488487332844 2.19250122045561 4.720118580407052 -0.07908353369672833 -1.3659985703461055 -0.8529886705675762
P 1.2791675541781486 6.537543813126307 12.599198887371754 -0.6564301478801146 0.44414727247886093 0.5351807794486138
Ni 5.599844610918455 8.526238728114896 7.010017314515447 1.1199321707365035 0.16011930602382102 -1.5573261836519308
