# total energy = -340862.08404348587 ev
CRYSTAL
PRIMVEC
9.38489525966959 0.00000000000000 0.00000000000000

0.00000000000000 9.38489525966959 0.00000000000000

0.00000000000000 0.00000000000000 13.73574285227854

PRIMCOORD
 96 1
Ni 8.736145686570847 3.2870032859985407 7.82558278493168 -1.1238811280819223 2.2729261570239823 -1.021189982268583
Ni 3.8542169758903473 3.738172744921731 10.677204821449692 -1.0948346043379273 -0.9906036248412942 -0.15468887903686906
Ni 6.503554162625354 1.3115203549860215 8.340411865974266 1.4080569329687362 0.5657116010476193 0.08445096865622874
Ni 1.765918217908662 0.544589522678216 9.465780944768722 0.2735502068521676 -0.049602493518475864 -1.149767766040697
Ni 5.55652437313542 6.713935361624421 0.49848810126397164 -0.7852017928305896 -0.9911818659422672 -0.9203456598559956
Ni 8.296341335913162 4.354375588526127 12.190430978175792 0.29994155236150283 0.11051835516724193 -0.004112479506476789
Ni 6.412088972571159 1.4085977124578666 13.16102530139311 -0.26107341454139554 0.22509005446825103 -0.7894407706126016
Ni 3.422080084731358 5.814749768614714 11.665299159021007 -1.6280204648436993 0.4378534690503491 3.284292211223608
Ni 9.080346108326202 4.736519142170372 3.811503501696456 -0.060387757059437934 -1.016514945390417 -0.43099762247078033
Ni 2.832014174669024 5.924975364468041 9.600639075439949 0.33127712924999075 0.686151071983315 -2.894329395206951
Ni 3.070747142512102 3.5996516895964765 5.555159809351932 1.5512408966897993 1.6778654133902846 1.1656566693568118
Ni 1.3013377435342666 8.336527457790043 11.748881036983521 0.05617166209556133 0.7552307003897961 -0.6856515066390773
Ni 0.8679704925952548 4.521098254369837 6.150137773639011 -1.0822760509466263 -0.1404583372597839 -0.03675751923500766
Ni 1.6674518959254254 7.608878981937178 0.19419882395182217 0.1315234966639993 0.07731255783923459 0.5019739536793419
Ni 0.15527497049914646 0.17378479959250687 13.36404029603413 1.4179214844676418 3.3702719578195377 -2.050467369530991
Ni 2.675558584335195 0.440128129547163 13.658054051430586 -2.551463789788412 -0.14249105141909651 0.4830254376012971
Ni 3.339999790024402 4.346698744132086 7.881844294048847 0.32275880736633444 -1.7136883366261648 0.7445022582286985
Ni 5.2233793580991135 5.637806951737861 10.517183909373445 2.5582360755152393 1.026531706196471 -0.9106682846672316
Ni 9.10917650683292 8.677949950522615 9.071112309794051 -0.9545305332678206 0.7024240981117258 -0.4338536038623367
Ni 2.8645703766285977 1.6327840925127228 4.684630055795484 -1.854025317816736 -3.3248716753078673 0.9081426900319004
Ni 4.197225515936602 1.3688808353483488 9.397404474247805 -0.6076262390035342 -0.13684336621501594 -0.3755867498006435
Ni 4.969151928037743 5.269065028649474 6.192224336823706 -0.822164743208184 -2.0031809257402013 -1.4158795143369485
Ni 3.470187058281308 7.440410725558882 6.810112707632467 2.2843796502765628 1.6766091723856804 -0.0852742358884725
Ni 0.45970502124150453 5.948080976812945 8.201241375890982 0.26068877750846714 -0.5815403405497598 0.31775389795257536
P 8.626229792263977 1.2769276307360966 11.699185200651284 -0.02858346806464755 0.7462135844928504 0.461816664734166
P 4.409080143505186 8.914393003900965 13.242423314208324 2.333391047178259 -0.18159521650940982 -0.2981659485183188
P 6.5616748195108086 1.979537205802527 3.993776939130541 1.4320977759680238 1.2095950226109748 0.17897191995394984
P 0.5005105462113018 6.632502624696426 3.0801442382232924 0.30243886486205973 0.4840744476911018 -1.2234926065286738
P 0.40045723842484704 3.374095114820923 1.8998866605009708 -0.5756008351368732 0.8061953643631211 -1.6341422614707213
P 2.8827395340208533 1.1498843024205159 2.5105364615284054 -0.981790140314722 -1.126363271073828 1.125545403158223
P 1.5541574392935507 7.850586961605329 9.692229084602264 0.8640063618343186 -1.9456306381295587 -0.14679636366266977
P 6.852822427868219 5.613556382160594 4.567381742753817 -0.7236367276335989 -0.400335160389917 -0.054082897887332664
Ni 0.29253938833740567 3.9925597182040042 9.933922986927396 -0.5896537136855136 0.6150387294175215 0.7617494753449203
Ni 3.895219583662436 2.226397493016314 13.050123054585246 1.1608790454625104 1.9006646149418298 -1.83148265662953
Ni 3.5632852201259233 8.31457618757285 10.912278618596881 0.4161957815712574 0.4396344722101719 -0.7855684321413889
Ni 7.970056679375689 1.3069686807426102 6.036749468053663 0.3796030700488882 1.9050534880381447 2.045180152990123
Ni 1.7656366710482447 6.865886202191577 5.105933023765619 -0.6541130697111638 -0.1164941131347026 -2.0269646584233607
Ni 0.702324274247874 2.836969399412366 13.375715105846094 -0.9004252667829847 -0.6155802037432881 -0.13482787844688393
Ni 8.501420069041039 2.274532621252305 3.2486819428271576 1.6814436176598464 0.8894178599288876 2.8956663688508195
Ni 1.005309989596292 6.0577810185268275 10.89101526120864 1.1219456016221065 -1.0644235961462376 1.1999071058992499
Ni 3.220858543591197 0.3210516388918539 7.306591502802594 -0.22292338583423543 1.2991817698318722 0.7450424470028846
Ni 8.039889685654497 8.662952887757726 11.313568297239026 0.6462694052970289 -0.14624023404888364 0.8038908845996607
Ni 8.476062081812799 5.615189353951014 1.3103021955699496 1.3947638154042559 -0.36140583031457113 -0.13790883136505283
Ni 0.34926357279519044 0.40114515125379974 4.567134920006185 0.6992747538494666 -0.5966417149675725 -0.1892563325990934
Ni 0.8206312034847095 1.3283474723436217 6.799728320930746 2.313789728007564 -0.5982656237242406 -1.3415669196663023
Ni 4.382793051637568 6.4592011472143005 3.622293688111226 0.9359635688989106 0.5156689346679313 0.43866696609058
Ni 5.530490673442177 4.32492578692649 12.379626714418 0.7203007212818304 -0.9062971521827294 1.412995250810618
Ni 8.310625146631661 8.563519921553723 2.8915660280949322 1.9798808175616807 0.23312963694327593 -1.1402374579527588
Ni 7.633148321305138 1.3365874104584978 1.550532054220912 -0.9432935269014205 -0.19583141471344984 -1.9901215214530823
Ni 4.705342519826842 2.5639346390751285 3.755956183115215 -1.7938478769958912 1.5277818943359107 -1.0798784972487272
Ni 4.172308618789682 9.228833922510224 4.781494376142947 0.7857424958254081 -1.715192689085833 -0.5428940889324715
Ni 8.425149024554024 6.6187068285359825 10.181344490882946 -2.0517670621790214 -1.2056175260204656 -0.11091404794376382
Ni 7.706050188362495 2.4956595254239615 10.153570831592326 0.03647264100473718 0.20394735895236488 0.13128901205569005
Ni 6.113339598982485 3.0769130187552376 5.979979297608677 0.37374198328242086 0.3715506320580569 -0.3380360452403791
Ni 8.686180503742143 6.822837687233789 4.7986368259842145 -1.2686627753074087 1.211061322743856 0.6552916634002972
Ni 6.351575167372159 8.808568923965494 1.2491220628012956 0.2848458343706449 0.6655642489708988 -1.7687554528036378
P 2.5179674216643493 5.763470700437397 6.681958207707773 -1.282343615228611 -3.358041477191617 0.6383033563724168
P 5.532423961883709 2.430791128783842 10.751089287049902 0.7847212536497453 -0.3363519726697369 0.6734374810713885
P 3.5720600972755925 4.489339768514778 3.2364984716873715 0.008105145605637654 0.7538243069605728 1.661074824195507
P 6.003536323419783 3.443299333111467 0.6979368356730397 1.002298287570403 -1.5044661024281056 -0.29253548970541876
P 6.988030615135898 6.080614468906661 12.035326812771967 -0.32244950365603176 -0.5684642240920919 -0.04798475540939478
P 7.326431171566658 8.562393734112055 6.701599855180011 2.774465594269067 -0.48745210591408306 0.5745240571329266
P 4.5450578921913385 2.058098164754268 6.944516609368888 -1.4158134369857036 1.9305796573337077 1.3614759998854036
P 3.4181196588948235 6.058944745549885 0.03850904107832771 -0.7246592553608423 0.6863955838939534 0.6283542155795049
Ni 6.230022002834713 0.2736185008278362 10.422159967003576 -1.0255482592372789 0.8260167699644225 0.12663454400281415
Ni 6.898620717162747 7.766010284736009 8.787826428269025 -0.5133202319300966 0.253802334801279 -0.6869262595864428
Ni 1.8292287219211394 3.27072049257108 3.603407524714442 -0.2637946701273005 1.475640436445665 -3.239050051556357
Ni 1.5257869006588458 8.586372141724253 2.626012906328514 0.978534866602218 -1.5063316948819347 0.9835585450690545
Ni 5.544868333114149 3.557785671452441 8.625235931846705 0.6060861482099239 -0.09712753568263272 0.25375579783405977
Ni 5.758093155403429 7.816538561285546 11.919850367971856 -0.2766360448663429 0.2061093996006902 0.08917125695003353
Ni 7.749605487669033 5.133894380963185 6.544312763118416 -0.30246663277620167 0.4315195564125213 0.5001222451825837
Ni 0.15293907004721857 7.769942555886502 6.806074387164549 -0.48200033877089243 1.5293389544103855 -0.4796675768726577
Ni 2.4734267083463513 2.7755921838414204 1.1701688152240395 -0.49216776622219754 -0.09771400431372204 0.5823605224582099
Ni 5.9100909204473195 7.199500461995244 5.816152810469126 1.0004445221911156 1.7146203615221312 -0.8772727399259215
Ni 4.130911845413008 4.3533338651425835 1.2436206371487437 0.8183883068848874 0.5953453647536521 -0.9140333444847225
Ni 1.0701971560271055 5.3798067937469005 13.382157836501975 1.6539433553570484 -2.1235568904278135 0.023809443714771897
Ni 5.059124919731728 6.008378929418958 8.303861452554907 0.8710684108874225 -0.41746539231230034 -0.17054178690872565
Ni 6.892145139373152 6.870222023842001 2.4781341718525263 -0.8656816926542124 -1.7820634827664534 1.601636575533532
Ni 8.971565786356349 6.847135181287792 12.655769752094244 -1.5991521185487814 0.7819776294663372 0.883992060927626
Ni 2.5506080876820487 6.470650719537932 2.0914042198520866 -0.27891352804660996 -2.0595101964595495 0.4508992464907138
Ni 7.067774070901391 0.10234791469885475 4.562766251222045 -1.4711777726886213 -3.1775464357249215 -0.9158858243124292
Ni 0.6587117270797175 0.9888019586804977 1.8102749872778545 -0.20957139000736166 1.9517696611477608 -0.6307849365081847
Ni 2.121727755208552 2.8017666569648716 9.378984740149777 -0.14108080133513123 0.37425466125278123 -0.4881475893192109
Ni 3.907635800206834 8.314491723514724 1.656818809497003 0.021456627211879176 0.13740823757955045 0.0017565776797905232
Ni 5.511026400492003 0.2168520843409888 6.667864910364823 -0.2138862153326316 -1.322653113480935 -0.6087960909419192
Ni 4.549647106016139 1.2562714760768228 1.2983383309812888 2.1018148707650317 0.7155578072802065 0.0070746474585942675
Ni 2.0669575059620624 1.5336795976458741 11.55912220702048 -0.29676829683984374 -0.3285748998274793 0.336238329910008
Ni 6.799694535307496 4.223775384873942 2.9023624117023963 -0.7826126919471748 -0.6234189830614166 -0.7102603063266929
P 8.572688964307977 8.310728380480482 0.6867087468796024 -2.521297550617677 -2.9013546774848487 2.5622593377420193
P 9.229031005312518 1.5164489297883426 8.527162836978517 -0.42161001060829323 -2.057617350312211 3.544576039984173
P 7.293950048769863 5.072291927903905 8.877479395031669 0.45279800617532345 -0.015219902273547982 -0.6989083716489833
P 0.5533071519662669 2.6237445771230856 5.012900556188435 -1.6101641533885689 -0.4590694410063319 2.2950718398830863
P 2.1699004230259322 8.838037495355826 5.6686588567023755 -1.2805687827163752 1.5147245469313204 -0.31190875202570795
P 1.8046402961113719 3.665374111713194 11.679612062915083 -0.2398409875251805 1.3054832865698678 -0.6992027629609506
P 5.5571531611236855 8.49972140298319 3.1856623705704448 -0.25761193835535634 -0.6426210099111642 0.8725668498098198
P 4.746748678098862 8.009717247113123 8.55911277469866 -0.9819989138914185 2.3408742429291816 0.9075461940984821
