# total energy = -381169.95351488184 ev
CRYSTAL
PRIMVEC
9.19390141320084 0.00000000000000 0.00000000000000

0.00000000000000 9.19390141320084 0.00000000000000

0.00000000000000 0.00000000000000 13.45620405201401

PRIMCOORD
 96 1
Ni 4.328360127650344 2.537093903951313 0.99205691235924 -1.6654973787432348 1.317106472631093 -0.34225831085184283
Ni 1.3002107488592252 3.6148398173890195 5.032149612527937 2.2797956304503058 -0.09685011365152997 -1.41563037444062
Ni 8.773565549898038 2.2442589461875073 5.102888410321742 -0.6726034152058674 -1.7208599146739394 0.34704056273183453
Ni 4.747482516887058 2.661459810003588 9.054208474837424 1.120600914668754 1.8314780286438395 -1.323647101963088
Ni 7.56310566781506 3.703919529353275 3.5554922635960096 0.6837486331894095 -1.2955297749015817 2.284578139440614
Ni 6.246410253505127 5.833236318560999 3.642083186414975 0.40332921002123445 0.5720318868386923 0.17645686684157996
Ni 2.960381130582993 1.0955728885123983 2.8978074367416546 0.20796496475219023 -0.3559147252930129 0.2043973020055899
Ni 2.769736388371123 4.8033446626084775 8.458987015005997 -0.5910629353282143 -0.5178505157002824 -0.32053686001435117
Ni 6.305986735446337 7.226599677764102 7.935607621152472 -2.5619685459744783 -0.31526455587181834 0.8526719106581057
Ni 2.106745760941416 8.12205810548447 13.00870503233315 -1.6916310997158093 -3.154773917915096 0.9015601517183762
Ni 0.7799361355537786 0.19530972785029144 4.022759437606388 0.8430295024723352 0.2815633069646312 -1.3904518182924632
Ni 3.8793667523292164 1.168848283739472 7.727103725210541 -1.737853621018459 0.0781309399754719 -1.8131681745910582
Ni 3.827632668396626 1.4382755681973645 10.698583733725544 0.9531441944432553 -0.7539500339051596 -0.06383483506777393
Ni 4.501582426455023 4.192253609338976 4.089353624588605 0.4035544386581631 0.8431472589971222 0.27518619979369385
Ni 8.789277927619878 8.52252606850842 12.195774742343815 0.6467738557372733 -0.3834854358224299 1.6174938542807626
Ni 8.831799722215264 6.081287781952022 10.748466165889159 -1.6252796688737687 0.13441444505854913 -0.3794495751901594
Ni 5.3056994424337365 3.0841402391340145 6.431917443539722 -1.739305780083953 -1.9869215264585456 -0.28567450091952734
Ni 2.8584391503724786 5.9053808638993734 2.949519455310563 -1.3826037830029543 -1.2108072977515212 0.9829062561970363
Ni 3.395068795117002 8.37350211854159 11.178660770743434 2.3071411123427947 -1.787777502432095 -1.7947873580910252
Ni 7.992892982831375 3.5124289482002644 10.91350681171861 0.9512112390866003 0.21585773723670568 0.5680063106190669
Ni 4.274254017121946 7.573632685071648 2.7675105448097077 2.8601316662793193 0.18435889529747604 -2.2796979285301773
Ni 6.39290588055007 7.1228373050498295 1.4857400042575017 -0.9379628587171266 0.50869636000484 -0.48812522072170766
Ni 1.4679442884480256 0.5494689282369463 7.903878547568012 -1.463131505345377 -0.519767273107021 0.054075698798481064
Ni 0.24493105321033706 6.70530546077852 3.5446195556417393 1.2275510928687632 -1.1482207332685517 -0.08377451141449443
P 4.807086580532871 4.803068845562453 7.82312759100353 0.31937626404734676 -0.1108212311196414 1.1823228171585831
Ni 6.858227624995825 6.046019975667071 12.327712745699605 0.23393850599781646 -1.945878749584623 -0.2894324253000628
P 2.8027608826817434 8.02199168118692 4.068631489920812 -1.4687691632471285 1.0253471989700664 0.256049736074559
Ni 8.51374589254332 3.005348502986458 1.1078007775528007 0.3556167344366198 -1.0243218430293457 1.2043314602191904
P 8.750893388714855 1.6001709803119877 7.292212875452627 -0.5571642256982404 -2.340409387477621 -1.2404698578129605
P 5.900912627753783 0.4591149415200589 10.955516505998544 0.1717993134649106 1.0245794675661064 0.41833082563638924
P 0.3230911683224981 4.438080148558738 3.3623688455305363 0.2385919456094278 1.614757686296522 -0.6176396573754782
Ni 5.676691757139244 3.232778045236411 2.5493052439689543 0.7761803060582697 -0.53494526639904 -1.053860475918411
Ni 8.132906909294752 8.5794822885124 7.840257668341934 1.3119465256967082 1.217376723438923 -0.38842401077462785
Ni 7.075645008475103 2.008168748692397 9.528418883286383 -0.771606056424026 -0.7810422621362613 0.38205590246475496
Ni 6.498065726297532 1.8016093629249348 4.5789178485995725 -1.3791783022611732 2.5056667860589554 -0.20963155382133575
Ni 4.694323378216677 6.719565202057966 5.096470147660762 -1.018675957597478 1.4963923242810357 -0.28440206196500695
Ni 7.816719441634237 8.249448805141474 3.1679536842995164 -0.7524209988551428 0.24147389514291318 0.06754905069456753
Ni 1.7944381197283077 0.571417529369392 11.527620819812535 -1.393289801961891 1.3778431283895176 0.011846100705308631
Ni 6.4378548651504675 1.3454907139148513 7.5353934098108635 0.24369070028857384 -0.552792578993106 -1.3454662547207086
Ni 8.00390727686927 5.9341669696027575 7.916203891964675 2.607501754519587 -1.4424076425344643 -0.49085136140361924
Ni 6.567920990153906 3.842830187632555 0.013338512345726335 -2.2700745465078 -0.7166142735691786 0.04526375693380592
Ni 5.247851413980945 0.4561315204722314 1.6247959261810208 0.43865128236129614 -0.6344287039083589 -0.11185610014205898
Ni 0.6761544556462838 0.6048677013210437 1.3123660060775084 0.03610343059077653 0.352320065963219 -0.8952401230376195
Ni 4.146458785797438 6.1568800403656985 12.090614896596351 1.3037218237940709 1.527136804552744 0.9155153283468879
Ni 0.6497587643417756 8.42848164971573 10.11327973547899 1.5821869514493525 -1.7742972085574733 -1.8131645750466319
Ni 5.234345572627297 9.054181812522975 8.957297397546391 0.33987515533164686 -0.5844382309228451 1.7140693741146673
Ni 5.209007179999215 1.4806686481712714 12.744290262991669 1.2042378720641196 0.054841887540544254 -1.7757786781990064
Ni 2.505439300969279 2.6093579700096323 12.221638106749493 1.3261439002430129 -0.7392973169889913 0.48148071882199656
Ni 4.2293418081276855 5.918472979683985 9.826581706989222 3.347565260250641 2.0714383153557034 -1.603836411398328
Ni 3.369417809836759 0.6271739452231675 13.447081290162656 -0.8244442832709802 -0.3389454444285259 1.5278297168547108
Ni 6.288619455448352 8.084317139686837 12.604614672104749 -1.116663784397877 2.722163699541557 0.31203010809492066
Ni 7.5657167358507555 8.510619966021713 10.17824568249951 -1.3350535440278168 -0.08324306439105664 -0.19336572678177666
Ni 6.007598661155912 5.134619322686511 6.104582370269066 1.7337568252412656 1.4563265666084015 -0.15361364369481934
Ni 1.0396096098741048 4.707691311047313 6.885700841560134 -0.8320907440726444 2.2953621174299954 1.4327487792884614
Ni 7.438730567861251 5.0404094136662065 1.8710987095002511 0.2936024975173524 0.6093187962146087 -2.012464665034973
Ni 2.107444497458011 2.7491328550331207 7.174659650437148 1.0997268994332223 -0.6203935659715315 -2.194565617536208
P 6.589802475805154 6.589912802623563 10.205979086477237 -0.6673750769273925 -1.1105311891375778 -0.14581677335821983
Ni 0.634564003276307 2.2786257501221123 2.9290253294008175 0.5540801874562781 0.6641480853496626 0.15495910197912022
P 0.6421508108222771 5.2370485796783335 9.02324617264091 -0.04411318826913047 0.25867354685065125 -0.45542078851015116
Ni 3.507969905956208 4.7975525046419705 6.013887289805261 -0.45355339628410923 -0.9044562423192488 1.5572099697890407
P 0.7220531702751571 6.365360951553795 12.545677166320162 0.17418298320573875 0.2519046035579339 1.0264887687736772
P 7.037517898813036 7.169321671206427 5.826940334790422 0.33003605775403805 -1.5045900296004797 -0.46148164999225044
P 7.89310237557985 9.011945028875148 0.9296220464310673 -0.6278178834600606 -2.103344420035681 0.9698483945718137
Ni 7.6554492148239355 3.3934874440531306 6.886132035542085 -1.1399932031524367 0.34282292510606116 0.301857538437293
Ni 1.0377892173703456 5.083409291141367 1.335167801272322 0.36569134506380246 -0.5920530671556254 0.677331416809156
Ni 2.455369313214367 4.824233206894037 12.788722550325847 -2.5460019953428925 1.0342380737017929 0.8720860535186593
Ni 2.0285332405905105 6.287166819005958 10.37255327508258 -0.017986409275091604 0.48091199080272007 0.9311041839240803
Ni 2.1382900371050413 2.35964241044093 9.33155446668667 0.6636896576560054 -0.46332847339300204 1.9636211611697083
Ni 2.1823196315520246 6.471688422796092 5.4265909730962605 -1.6027529485261622 0.2530420595964868 -0.013720692020202176
Ni 0.08518057832362828 3.12899728471907 8.544151044306863 -0.21290662502818172 0.9072389472707085 2.3063178451105504
Ni 0.25283505035923487 2.023044481374631 12.547668565392456 0.8731075528046383 1.034729668626231 0.38771927139811935
Ni 3.5713250814279474 7.079340956891826 7.513258172477276 -0.03294663012934971 -0.5280441684038325 1.029223394096021
Ni 2.6604760625394355 8.734445498870285 6.055103550382799 -0.11384716243015877 0.6235729921407778 0.07309157777935153
Ni 9.03088446603547 1.2737231185393758 10.387355456552543 0.3039866689651539 1.1872727049646907 -0.28098712274618703
Ni 0.11605094150480097 8.104635662077278 5.612716912704102 -0.7580812824647138 -1.6320756087496795 1.5936242467520167
Ni 6.654077041430307 4.48190747717197 9.222680284719415 -0.840577441387417 0.523352162244802 -0.44226908161954154
Ni 5.7006234828326035 3.3001601495801034 11.124311021824383 0.769202589188856 -0.4924133065741004 0.43207260070251396
Ni 5.08437465080245 8.683198691719003 6.634635617246221 -0.14418900794680975 0.405465796748263 -1.412830957318612
Ni 8.708435951430209 6.823309186969172 1.0486582477640025 0.6078388692349724 1.6711111253855866 -0.9745347443038892
Ni 7.418136228424784 1.3001555854500206 13.05966315097626 -0.6604215284276949 0.5547522738226381 -0.49996129412468737
Ni 8.624559987734274 4.440369430040738 12.92389037129058 2.0378707638129034 2.1725654591160324 -1.098624667507979
Ni 4.396486938018301 5.147757407978793 1.267461152204475 0.6460058672229971 0.3378295856565279 -0.49225081285430716
Ni 2.014696418781634 8.027397695288991 1.9604211404650083 -0.2658237847421873 -0.3889585431218592 0.6074940843010441
Ni 7.3957490781891595 1.3339063979818384 2.4833555494842807 0.4468217339872305 0.20033264501791304 -0.13115788579446444
Ni 3.5480093471373757 3.965182629248854 10.574894498826183 -0.8896459167792936 -0.442150039543174 0.526483508784932
Ni 2.8673572348605916 3.5502894347178415 2.5469231040814595 -1.1949407630329099 -0.2000523947733329 0.3286918850213178
Ni 1.0164042024019422 7.164329382673391 7.87466492544329 0.6563725551693018 0.028505306528544456 -0.16619328013204282
Ni 8.435358688063264 5.04570510094987 5.546836172480936 -0.39260231052203354 1.653089234886869 -1.896804103545159
P 4.377602664267183 4.072797246705931 12.58323333469696 2.0593263625835183 -0.9514128135744453 1.630517006013308
Ni 5.063559657729164 0.11906654120799799 4.1349572149782325 -0.6458518581436361 -0.17159671053580125 0.1798988026435934
P 3.0308707736452227 8.794086338122233 9.037442475999772 -0.41872291886848534 -1.0169340352057068 0.07091205362952949
Ni 1.164416823200018 3.9473464602726276 10.90482684928023 -1.3998440581406408 0.43720915059813087 -0.9130313855827694
P 1.762305433866498 2.9665226568077965 0.6848371762551231 -1.0595786093491106 -0.27529187213362266 1.3077574273160253
P 3.3478764985422758 2.607335311672122 5.005559929901058 -0.05174602222403991 -0.35164232316990407 0.0800510398163202
P 4.279411795882597 7.485453975457737 0.4061957636797182 0.14602837514839367 0.6654248951795572 0.569274121587897
Ni 7.115325887496439 0.028346637210051998 5.5573585927867555 1.483220562785768 -0.6461976715188291 0.24675134149176864
