# total energy = -340891.5761934365 ev
CRYSTAL
PRIMVEC
9.07964787413489 0.00000000000000 0.00000000000000
0.00000000000000 9.07964787413489 0.00000000000000
0.00000000000000 0.00000000000000 13.28898244866747
PRIMCOORD
 96 1
Ni 6.145804859655417 2.090434584500649 11.130864802583266 1.2221304360738243 -0.880587149011135 2.4358016856367017
Ni 4.522654356460776 0.16062714376715123 6.005104819225337 0.47646449655432777 1.5502893314098074 -0.06481134004843032
Ni 2.7591415757394735 1.6690118049468357 4.577894934536473 -0.9381780600517261 -0.072318704169069 1.7730962462708366
Ni 3.6299252115628993 4.155182844974975 4.967075884250247 -1.8513750246780825 1.2433772612677425 0.13639188049989415
Ni 5.257206954570895 4.62908598963029 2.8234173114816934 0.33549990908208677 0.5573190061085499 -1.6983051693018751
Ni 7.310878044556669 6.3011848748772135 2.6567730850237528 0.18512019894353277 0.2648264538259245 0.024586173979796365
Ni 5.345606406928717 4.4091315182490005 11.805626103069441 -0.47538103368216195 1.0847782485431898 -0.26816760238401555
Ni 5.808986239619906 7.771370549202482 12.265305979224495 -0.9114748397289271 0.6039184511346437 0.607617754363102
Ni 1.9166228839577386 6.474015973442449 0.46326452116233324 0.9406504328516186 0.22655892570429367 -0.20952613859172303
Ni 2.7472290776403097 1.490224457332018 0.4394785674501532 0.567406472251539 -0.04907053227440582 -0.04784205918394341
Ni 0.3811926754548985 -0.019275184614874617 4.721788287147557 0.3884522929094019 1.0428754376618168 -0.16899218303341865
Ni 8.818426470160947 2.449734412839157 1.5293622797835782 -0.34405911150600743 -0.19996960525153948 -0.30965183767073123
Ni 6.657996879679768 0.6799712024749702 4.720432695709901 0.8630452834726297 0.36054785318965 0.4546515144442944
Ni 0.7844597909850164 7.564663284167749 2.5251590482886668 -0.31151434480076673 -0.3894028297481294 0.37133260250997985
Ni 7.398224257753284 4.04943218540107 3.824210610248954 1.6086096644172554 -0.1585812721127398 0.34888352947784435
Ni 7.528698798671721 3.8802329460124083 12.707549299472817 1.5156208334933445 -0.5571601119331825 -0.2686509697783373
Ni 7.875223562356628 8.626582588806345 6.963359967386969 -1.2454984213758034 2.0062063428300867 0.06578141727118349
Ni 6.7543501036342874 0.7292464518531437 0.2559589073282592 0.8449979390526158 -0.5691136847506327 -0.35174208197256196
Ni 1.9612765925337212 6.534649862395359 9.083072784639572 -0.16702631755629943 -0.16044712167688496 0.6695489446502598
Ni 0.05111841791028503 5.103542992810031 1.3926718118844348 -0.06406186347691548 -1.54007690965318 1.4978377984783109
Ni 6.275398674723535 1.8767450701989512 7.057751987386138 0.975689940954255 0.7537628575950179 -1.2641214357936295
Ni 3.7842429079755466 4.092642229954364 0.6816255143298998 -1.3745618865350844 1.7458217268255998 -0.5779474809921789
Ni 5.909252791837184 5.758448919177872 4.854824196750273 0.2089404412915821 -0.2484068748173206 0.7920589249617391
Ni 5.317895321411454 2.971632576512902 9.260653447042973 -0.27259864157217567 0.3599847815973284 -1.3634598630846517
P 9.27095612356212 5.610396179844817 12.68991480724096 0.9245679254674594 -1.2535997103266991 -2.1725433476288454
P 4.006076866480713 5.956793828458543 12.671602973272671 -0.15705557949683274 0.5334828229209005 0.31135390796350254
P 2.3599094557545297 8.483678009856083 1.2666517462460674 0.9954635240367566 -0.3778377506183493 0.4132089310287915
P 6.101160230727377 7.616853100535123 5.922806890284161 1.5709476310901074 0.9391702487616663 -0.29299597428160506
P 4.737115640837495 0.8995697516569544 12.521889566331124 -0.24880282470415863 -0.054214795479506625 0.1768114219675213
P 3.9613051224814915 6.241813056988163 8.327753215757802 0.7324607536831321 0.029385909361284872 -0.4613191562724571
P 4.605506143926379 1.0076593285405742 3.8661367925833288 1.4216218161373646 -1.171107408058738 -1.0458059810450504
P 0.2343811239954364 5.700094021858263 3.642841918724386 0.014200202759781996 -0.2876673629798401 0.1661374871934429
Ni 1.656463731491771 0.9280035771503558 2.6238303063626343 -0.9683903219690483 1.0645099852124569 -0.1518346974175256
Ni 1.7210109487074399 6.809227495792327 4.984445250762215 -0.054616144682983356 -0.2682426785963251 -1.047342472294235
Ni 6.1056274175145635 5.6999305881953175 9.383922379355086 -0.7027429149037252 0.4108430018997763 -0.011051886938787418
Ni 8.727430238491875 2.4365053657884843 9.901475023524059 0.38247422094909617 -0.2432088755561489 2.4228111869143047
Ni 2.5787471304390217 5.362185844069779 6.705115712671851 -2.129806213771635 -1.1004879459689627 1.9907082471944877
Ni 0.5143656877415295 9.250254526255647 9.134992935463087 0.48627402644558193 -0.863663376672603 0.6107524433373417
Ni 1.481181127982348 1.2060768750047766 11.61895580511187 -0.4475454995271324 -0.5988893733511685 -1.6225231891745542
Ni 4.3665025711639585 6.573065852835574 1.5321796945398058 -1.4058738092744882 1.3591422095459045 0.7537965390464308
Ni 5.535706995878563 7.971395193352318 8.12238519879443 -0.36233991209306626 -0.7339671630253295 0.24767153931319283
Ni 5.27493950700052 2.991952828605836 4.453125136419641 3.0448888254564785 -1.754735227265146 2.628554204314512
Ni 0.666351730562816 7.428050901240902 7.149286642178137 1.4119804363928585 0.41049616008331885 -0.35851642458191807
Ni 4.944857985737553 4.584550316477546 7.158708592846965 0.37450097293563245 0.1041106518686852 0.3366093400961816
Ni 8.322714011150303 7.024760178626136 9.234061882116888 0.8608786148386143 1.0910915923557274 0.7211023912475193
Ni 4.556675797297337 0.15844258047244172 10.351081030288091 0.4832563226651806 0.05755208738285573 0.48602642921115013
Ni 8.239689710373813 7.110862480054775 5.002079742994072 -1.1472820235043661 -0.1149175126762021 -0.37386668178574317
Ni 7.392149973280463 6.240396631909299 7.324342254489025 -1.3206527952214546 -1.145658371858014 -1.8223598683926552
Ni 2.4370501446649704 5.06686121512663 2.5942751443484657 -0.7379454309467872 0.36009019682694116 -0.012036362339243786
Ni 2.215406858766575 5.077330049203105 11.620138883238639 0.3647690903598492 0.05381164650381701 -0.0636312036974001
Ni 0.9476428556476819 3.4243983007605525 3.720356689130014 -0.31732195262147933 -0.17100947057376353 0.31646988903382917
Ni 3.9842130742377346 2.714124681245834 2.635245239754608 -2.6141112894163046 -0.8656991761557091 -1.3640787276155732
Ni 1.3047908074240695 3.263388903815067 8.135900254755258 -0.5420283984980666 1.471895367580936 0.2871361730667184
Ni 3.7354670392341522 2.466250292444629 6.959599177209626 -0.29865188701580175 0.08699044724863082 -0.27973936638201496
Ni 3.9749245943936455 7.006310334009138 6.077901804560594 0.5347935713125241 -0.5098268740648574 -0.5981378398971247
Ni 0.823132735461975 7.047867882637091 11.218067557342408 0.570545789211469 1.3340194463363477 0.08631733244100617
P 0.3079780263143347 5.4878663308751365 7.9082199109406 0.6633222470142576 -0.5814752916397792 1.9529780796335656
P 8.399555071678677 1.650925146247495 7.978825069262796 0.1795712441008456 -0.4435525763176555 -1.575575873890738
P 1.9273913464162815 3.1511008977233272 10.52001060413289 -0.8753726946897312 0.8407581899396552 -0.2507293523029101
P 3.9007892689518195 5.957374925926795 3.882907810295956 0.028948307603234014 2.342363425880198 0.06345019803484556
P 7.011522051927522 4.052165159431442 10.528023393441208 0.7235513670086442 0.18536342530259042 -1.1991635428650058
P 6.584360934874721 7.840639183347697 10.21757933474598 -0.8292327057985589 -0.08650193764798651 -0.23458976642857016
P 2.353644498674939 8.77974716993043 5.763578012299989 -0.6315809500469188 -0.4463039138105475 -0.4473534381209844
P 7.081934721713359 4.026960056746016 1.53454494282855 -0.7008426125572188 0.20637859410167683 0.9638762361487786
Ni 5.432199009346192 2.6403162231299 0.4758961273784591 0.15850336768695283 0.11173962916885273 -1.1472992498955465
Ni 1.3040190373490472 1.1897425883581332 7.013247185036396 -0.08100594753042178 0.046356989997984675 -0.9458268348462356
Ni 6.786982358335808 0.7677051166386843 9.232945993384886 1.1502004827027417 -0.6371705283195542 0.44737066451216506
Ni 3.034209510125279 1.850395931872904 9.215111748898318 -0.5341076009890932 -0.8957193766668832 0.40940806922546263
Ni 6.297080874007684 2.1695727959582056 2.5153784515261517 2.098334111305283 -1.3066968472619949 0.3995538021392022
Ni 4.117811014048025 6.841941467325321 10.631491429522638 -0.367198011516316 -0.4368419970666993 -0.34963403449062364
Ni 8.239199409384975 7.242807923939723 0.21633441574703807 -0.46366143125238857 0.9480431257712639 1.1724618652041034
Ni 7.467674484857329 3.7751632600341107 8.33494248099783 0.48503604027342273 0.5078005876634479 -1.1425740765057355
Ni 2.9307741607764393 8.408988825889828 12.342062599027013 0.8947274450672591 -0.3724654305628424 0.38408321730742884
Ni 9.157823710211828 4.896717692352059 10.175693102862548 0.389144176770104 -0.9016879355454922 -0.29705214662884966
Ni 8.355546018106537 2.4281066914426566 5.707219729562702 0.48386181745966345 0.0242501307966163 0.5664891026435922
Ni 3.7548974858288253 2.789549316695343 11.795779224876954 -1.084566646753016 -0.7582923700342553 -0.6572081636967197
Ni 1.053838417970718 3.199322907940294 12.73642621178576 -0.5072799392732876 1.1583393097597923 0.44181605324252293
Ni 2.9245001240489072 8.488290471010332 7.869655922238938 0.4522318492592083 0.21906364576851306 0.996020167871175
Ni 5.528779224499248 7.98752972774425 3.6139386754324128 0.753019037450458 -0.8517599403667976 -0.2690937137427107
Ni 3.205233758750169 8.190941080576241 3.5400385128722704 -0.9522481649915472 0.10865353404436126 -0.140178601235836
Ni 3.66874978616048 4.52362587879051 9.666977680034973 -0.58459198289189 -0.01680935824785492 -0.058380753931738166
Ni 7.514516388587197 6.227830399158352 11.48580095212112 -0.5917141957589681 -1.29181144550973 -0.42346814686295453
Ni 0.43205686322282333 0.07666309942872125 0.4755320334960075 0.0995626274866866 0.8615926101865031 -0.46721598137286635
Ni 4.628178024836147 0.2314538454991174 1.5894286907401485 -0.28642937680768094 -0.09758879158976741 -0.15979843234929253
Ni 6.175204759689788 5.71670069794315 0.46085115073949956 0.531864313480871 -0.4041450210543104 -0.6781063473019677
Ni 8.186255982238462 8.783960126575256 11.46522919378021 -0.05514682037547277 0.8589325468558369 -0.22046823942552354
Ni 0.0007527028143450496 4.973540593584549 5.905118828129448 0.16348230895878296 -1.3135580931582023 -1.1463376573132256
Ni 7.860351099028556 9.054315723679457 2.3753793599171487 0.14474230934711846 -0.10708027601997043 0.6581569007632342
P 8.477068026154717 1.7383076780358757 3.6154268297300143 -0.3923261740425114 -0.6094751192868149 0.25886895069090904
P 1.8727500251047193 3.1767599828058253 1.5575482308881783 0.3240255898939 -0.0311892811186108 0.6138675919275558
P 4.84861371755833 0.9923873607030789 8.307036183049826 -1.3772702866051827 0.09607698293093132 -0.6019055344696731
P 8.45122734811339 1.7265767728955403 12.446567530903355 0.10907853739692182 -0.6396004779172856 0.017221763194925178
P 6.3583140197247285 7.826375056431702 1.2558805598931417 -0.5042997735990411 -0.26444593055805427 1.0224868467031358
P 1.8810215843793676 3.3520789049070143 5.937996233325388 -0.8666093466748043 -0.7073888983161688 0.031083608778681954
P 6.7670071328646495 4.003171379139453 6.114486430011022 0.16669978745481612 0.10789197328798837 -0.5156553078211764
P 2.436432728604953 8.63906710472582 10.20661656782149 -1.2097778280457423 -0.18903367506532606 -0.3336325168560448
