# total energy = -340888.22093034827 ev
CRYSTAL
PRIMVEC
9.10248009943360 0.00000000000000 0.00000000000000

0.00000000000000 9.10248009943360 0.00000000000000

0.00000000000000 0.00000000000000 13.32239971830921

PRIMCOORD
 96 1
Ni 6.154841985706214 1.9379543638671755 11.633784793772087 -0.1955066843841794 1.0872048557068117 -0.3293230908474135
Ni 4.8649568776738334 0.11528290693635523 6.041868377900514 -0.6632533414495351 -0.7095995328142424 -0.4342557243967618
Ni 2.9950981653495616 1.8423328133447583 4.8123572877786565 0.19507242506023822 -0.7767438918712236 0.8356074989766512
Ni 3.4946513604205536 4.560861231804923 5.362026006001602 -0.6372625738127283 -2.074634453695498 -1.3407629357077682
Ni 5.403077279747537 4.765330236030058 2.3902520349460556 -0.17626403410448355 -0.09027066066179938 1.1588676714594364
Ni 7.455622762084651 6.242362329187703 2.475940959487506 0.1738626237518425 -0.5480964590690174 0.34838473546455484
Ni 4.915202566287232 4.7194082253317635 11.082531333812259 -0.2881461023884715 -0.5222370748037521 0.28454218708729706
Ni 5.699663379763901 7.742742283086898 12.681644976084764 -1.0464621265718106 0.29295072286596646 -0.06549088261395818
Ni 1.8701317867189098 6.47821668383657 0.14502070851243679 0.9761522253026542 0.30776130551623765 0.8140387716669399
Ni 2.797000896999313 1.7500609753965677 0.5452967971647905 -0.15370363230546433 -0.6175198439681623 0.1449063457288085
Ni 0.579996360491445 8.73587744646613 4.3139664793808405 0.3423583267648168 -0.4266753409463426 0.4591368039091577
Ni 8.791648340331037 2.398439715545286 1.5559096320488386 0.37473442910267724 0.9689423378177765 -0.5321363361953351
Ni 7.305968891343189 0.1938518717616094 4.818404975371907 0.4432435297176689 1.7691665721991272 0.6341661942755917
Ni 0.6356179736872833 7.2883829003285 2.1177683912484255 0.19401673010221424 0.661099785441642 0.09178169798968709
Ni 7.903510281690127 4.105628010983683 3.575145499728006 0.4515283954342804 -0.5139342113650116 0.256601494812971
Ni 7.688163814078576 3.7752808133102365 12.435899866862107 1.0078500706265674 0.3128122376765839 0.770388381966841
Ni 7.731855717220662 8.771631987204069 7.354737247481594 -0.33437813677281764 0.9789714399190044 0.2913386411838401
Ni 6.864753489446702 0.6720943410750493 0.3508132133035851 0.8129092860481871 0.07990474404644303 -0.142328043478671
Ni 1.824501055374895 6.569496351484242 9.299794276353305 -0.10303207409252578 1.0149784541412326 0.6142116055305357
Ni 0.18259847595857615 5.047616340247212 1.123098549771328 -0.718582195928827 -0.9459170805671967 0.3914023766766614
Ni 6.1867461774797565 1.9513623166439027 6.90930284618795 1.2148950946676496 -0.18174794003719022 -0.13303221999904186
Ni 3.860070412845345 4.255636878438175 0.7347740171242986 -1.2313612106434728 0.6944233392944363 -1.413418968611598
Ni 6.201537707189316 5.461888401872748 4.748102882720327 -0.6974994071165987 0.3405955784374392 0.5912133448631496
Ni 5.268797497424195 2.854883566182754 9.136567697950351 0.4244253685699014 0.8756747993111822 0.8349960906448974
P 0.029301792792642806 5.862133542093709 12.346400644267474 0.477770616960261 0.46000275145387876 0.4685084749320448
P 3.9683262053596815 6.128954533094529 12.596235497673828 0.7636348652930912 -0.12987002022097632 0.6334087472842769
P 2.4230892309012795 8.513321814836134 1.6978864713090436 0.4564736552546977 0.5023981857009541 0.1256166442612611
P 6.399097929230111 7.5794346926135345 6.1935439094102795 -1.2679423522016164 -0.4389081355671086 -0.55687934746797
P 4.592337607026867 0.9907503136660599 12.909591096264913 0.3653974679724675 -0.06254336994986003 -2.008049823796729
P 3.8946598361661624 5.710413408432819 8.544546961615012 -0.22461028661835508 0.584567814522174 -0.3287080829712339
P 5.2083661338908 0.9713893390862237 3.9814792887014137 -0.6444464931556771 0.4439253862760419 -0.04015986004833729
P 0.3634128658721838 5.684662493018453 3.4177681748581983 0.008158110330760143 -0.6164443515157964 1.5156568289376027
Ni 1.7319379380724238 1.2979954175531294 2.812252101939847 1.1067418972984746 -0.12116966423350099 -0.9622718677761364
Ni 1.7505980217060224 6.559875030313162 4.871268537181901 0.37169718493825016 0.28529654875481836 -0.19814026535228457
Ni 5.974967881958142 5.666038819304139 9.16217388393556 0.1592836974964031 -0.21120815427983625 -0.17641341519815426
Ni 8.418346540381028 2.238236070690975 10.500715387604544 0.7634749426764593 0.704282234366387 -0.44638490356012794
Ni 2.0849230030613635 5.519024667710845 7.189965978252971 0.2949587544349307 -0.6151935098278307 -0.04012180772155026
Ni 0.22902840503089836 9.186768784412624 9.224429384425136 0.329504096509968 0.6357265967841762 0.3420037716388755
Ni 1.6468479567032135 1.0756400404792024 11.737620422085216 -0.5114078453987322 0.900043972184166 -0.4263105014077561
Ni 4.116942393401519 7.163560594539455 1.7580775293751583 0.9213458189857359 -0.48614984216289175 -0.63848179093181
Ni 5.254078787553206 7.84916847715716 8.343099070442554 0.9861589588063788 -0.06156352253509397 -1.2780640140166504
Ni 5.372374615310401 3.187042157340634 4.6358083199092945 -0.2068737885705405 -0.9401896911651162 0.38888758067460766
Ni 0.5780010969146231 7.5729992393798975 6.965963052331395 0.5325052894989797 -0.27719577402455486 -0.0566804834111798
Ni 5.202012602975555 4.473177043686651 6.973184049573606 -0.05843886086318323 0.2237034585333696 0.28169726143933427
Ni 8.063495467028728 7.257179599501193 9.447619458898675 0.140464507907371 -0.1359707338020755 -0.4801781979604891
Ni 4.541327310108482 0.39923476496080074 10.596729255007258 -1.1196246667984135 0.32228932392908366 0.07995308078587521
Ni 8.101161528529135 6.8966303737807815 5.0550776429567055 1.3701992386910145 0.4925793998383194 -1.2232609501338416
Ni 7.450434348586528 5.856444492205417 7.125685176003161 -0.27123955644111997 1.6128802667681514 -0.6481267702207418
Ni 2.509526379284037 5.488540462789419 2.4958717493041536 -0.8947845235574395 -0.010277984887240363 0.2559129533863786
Ni 2.3587984159236655 5.579228469248709 11.30292330598874 -0.2940267295389645 -1.5347899502226277 0.09454383411585653
Ni 1.39866884437635 3.5724775628923924 3.8645479226694266 -0.2581315583042522 0.09677889409396236 -0.3683015289931399
Ni 3.9621638265206833 2.653609532374883 2.7136931811791074 -0.25763533539412403 0.13764117952596294 -0.34325152800304753
Ni 0.9070384477417895 3.3176445378161823 8.43628934860471 -1.566175920733077 0.9026266453096777 0.19205086462509505
Ni 3.7601069794481834 2.429278917179741 7.096695598268388 -0.5922965506249992 0.38358416618382324 -1.286078913901327
Ni 3.994259170370473 6.590168083158341 5.9982502048449815 1.4214649788445262 2.3833650651035403 0.7133834253367068
Ni 0.9750576384541946 7.878724229136816 11.677309211285461 -1.1431561742614504 -0.7657719662407522 -0.4242721308214886
P 0.1160875661525553 5.72104510486406 8.313536946727023 0.08255580851604491 -0.703594207160427 -0.7349552379702117
P 8.240829978906666 1.8041661154541828 8.18953204362593 0.21050110091048263 -0.6546566009194597 -0.3552580655456204
P 1.6983770949714099 3.1492122512034446 10.708798076318722 0.35543264345027176 0.16914464945088287 -1.3891300141572465
P 4.1640113165572945 5.9962039673811605 3.7893832852973266 0.40216398606853965 0.9796427549544159 0.7733250959976617
P 7.000034544550382 4.039744262037348 10.411961658107273 -1.3017832120104613 0.01819903950652995 -0.7100952415037384
P 6.197814792942418 8.029770779290931 10.360430699343112 0.15394197356851555 -0.5833797077513436 0.04633282162826859
P 2.2062044441999342 8.84323209347816 5.815840150218705 0.4253823331665319 -0.44717063268621693 -0.05062245014255798
P 7.177714950661527 4.081533746896788 1.3315125687510012 0.9255588286258188 -0.3669956656975228 1.1332908514315965
Ni 5.600073148039412 2.7165986927380557 0.5861987902416568 -0.2731010351298909 0.6133466864270792 -0.19629164217932
Ni 1.1597651589873583 1.30984684628042 7.177642130822957 0.8598571155526352 -0.8305959046946728 -0.3756232594655337
Ni 6.47922705909673 0.9298365187021367 9.354629435292587 1.7949099997118185 -1.0486447360454263 -0.6899403638224182
Ni 2.5991584980840603 1.4451005939446366 9.219553185984884 -0.32425236119272544 -0.6342379280537916 -0.03608183332422173
Ni 6.607453692338928 2.2039834391235447 2.7387259109355755 0.23338803281098514 -0.7094861471648297 0.026389802847438422
Ni 4.203861973214804 7.118521524383824 10.411201601042196 -0.7282454300502038 -1.0957100649643452 -0.24370329869406418
Ni 7.963650365869243 7.4364620420608825 13.33518846328407 1.4367411882773062 -0.11711966253384347 0.3466129882761127
Ni 7.236853762060304 3.8621184708051297 8.058079491535073 1.4820154867340736 -1.7497809685836638 1.4329470113421967
Ni 3.3529803644823435 8.274026722814828 12.396639050897015 -1.0167802832366617 0.6194360871542687 0.9707693637241862
Ni 9.167289477595112 4.963964550689762 10.43960497907648 -0.037793673809005876 -1.358405588490196 -0.5124278020228142
Ni 8.812929938153161 2.1954180056117316 5.58640213359585 -0.3869643955099658 0.6544635110720471 -0.39791163855008893
Ni 3.712928826534553 2.6237442960813038 11.550080209831675 -0.34073390378751645 0.29498909345223395 0.0744311225263815
Ni 1.201545541366977 3.4123558403564727 12.838836610366219 -0.41850206110693083 0.20044577355700965 -0.4352227162957214
Ni 2.903845805141353 8.197219998082971 7.865677644808992 -0.2291976488787214 0.6358430677573823 -0.3764262149828033
Ni 5.971163045392854 7.790393764951234 3.8977346538497866 -1.6655542001230992 -0.8041153419056409 -1.1388058677125548
Ni 3.4686819854904773 8.409289572958865 3.910284242779368 -0.4321664459679009 0.38290899449366955 -0.12650238930032406
Ni 3.1533811869615853 3.608241206110153 8.944752050924759 -0.19032616862450447 3.3648968095505536 1.440115761176494
Ni 7.034660377790484 6.200545536888799 11.299113007935558 0.6416272785393272 -0.8442816297118815 0.7493336181790707
Ni 0.670963813081248 0.09414421804742529 0.6575039761695394 0.19502743075491574 0.5622863774161542 -1.6842800586673767
Ni 4.947270602697557 0.4888241021056636 1.6060551933842024 -1.1227112761435376 -0.9909715497036738 2.062151233626823
Ni 5.979063997877714 5.279565731052756 0.036279753823626616 -0.5423690696669369 1.2336451215816433 -0.19794717550487198
Ni 7.628833850603553 0.0926450396208625 11.47484912435688 1.7288488464166871 -1.1632622009827063 -0.38576111923048406
Ni 0.2031901058102479 4.814984263455074 5.756142446558903 -0.8111830473856998 -0.31441583471827783 -0.12117480643982355
Ni 8.085714620272443 0.002629706420364234 2.2924786581938914 -0.7997511513996743 -1.03850327673605 0.4243055551625854
P 8.872205286749255 1.4873452027951397 3.5415200290202606 -1.0301345930563808 1.2607340073786353 1.3307783136912308
P 2.002818635073529 3.570629759488675 1.561384773661331 -0.12771954953687678 -0.889180804217417 1.0748882431229876
P 4.5692810256395955 0.821314933777019 8.198044682754778 -0.16442384693644585 0.1464307527931349 0.293519707995559
P 8.565324282055037 1.7594274271326522 12.740051037857928 0.6755630120548236 -1.1566151279798338 -0.42934183203491216
P 6.432795309528443 7.748267488338407 1.4770147984459832 -1.3700585993480923 1.1634002692224674 0.10209464987992094
P 1.8682930857950137 3.432645267878078 6.225197782988738 -0.43419710324468447 -1.3166058788455905 0.22246238703741686
P 7.164753019396041 3.6834003819943604 5.810817401853329 -0.1396471542123982 0.9570260459961647 -0.1633072168334994
P 2.18994741523915 8.674909036623278 10.071027366153709 0.7600417486251942 -1.080663712154184 0.9547387926238848
