# total energy = -381171.7157892722 ev
CRYSTAL
PRIMVEC
9.16474910036231 0.00000000000000 0.00000000000000
0.00000000000000 9.16474910036231 0.00000000000000
0.00000000000000 0.00000000000000 13.41353669541221
PRIMCOORD
 96 1
Ni 3.5198135630536638 0.24635945516627128 1.699414854684839 -1.2309452061519768 -1.1565068845367437 -0.05762716359516527
Ni 6.5756800292931175 5.4382246813326 4.896102274168841 0.8509418153408764 -0.5190206247489836 0.3649740072818037
Ni 2.636130119381424 9.121262426956658 12.908074460288807 -0.12688162701661373 -0.19367811581587288 -0.5948378289896142
Ni 0.13494543255696342 1.832289970406168 5.005676931621389 -0.19405658220121416 1.827308727757498 -0.5705041373402562
Ni 4.471526939753418 1.5029363797811106 5.702631360548148 -0.166171682865488 1.0470725064622999 -0.4060931459196168
Ni 9.053314976671599 0.21187800292018183 0.6729950251932503 1.0990980075999714 0.8160696860540397 0.15168737320638392
Ni 1.7016373063565586 7.411624294581911 11.430452950642225 0.9482719539526183 0.40743320488727897 -0.24956541390179598
Ni 6.576055784008748 3.498707145734202 10.274259356545636 -1.2932160391667407 0.27349441391356766 -1.0780499286804208
Ni 3.5161568281381337 5.43917781524542 2.512932062299965 -3.0784635760881303 -0.9328108822025418 -3.80030310261199
Ni 0.015683635240466946 4.820667223818649 8.794572112437999 0.7360901229056033 -0.3745174279958647 -0.14263554741676082
Ni 8.541078816524239 4.377597425594858 3.903098036595832 0.7852020499409057 -0.05623336857143218 0.5031564040232174
Ni 3.413135882811137 3.5746920810340974 4.740115494011464 -0.43301362445954455 0.15536816449208082 -0.31622691978508766
Ni 5.3207875855742035 9.069948996400138 13.452302010335016 -2.104168972819505 0.8938710106042348 -1.037938919592148
Ni 2.3682994898790537 7.454909404872756 4.266296129400239 -0.5056452318833421 1.7490314920121492 -0.5568950311972538
Ni 7.876313736078221 5.63152757065179 10.731848866866356 -0.03513206781644272 -0.8855681471654941 -1.8372897502296102
Ni 2.4280811486610125 1.0796807692449775 4.525593460958122 0.06456991346158557 0.2658703217094066 1.4220691880874283
Ni 3.0474898855056334 6.356257604863 6.281652880786861 0.23644661713165083 -1.7927127349501837 -0.2996278777758259
Ni 0.06133600023978793 3.051348244902721 1.5625961473992185 0.6313652344916868 0.3074725706312253 -0.04075892708491689
Ni 1.3065907937402272 1.1560322945113422 2.6096971498491652 -1.0810858872932672 -0.03359249124346473 -1.1480739232780421
Ni 7.345189027908536 2.733679709458868 2.8003440948612854 0.0968529418650074 -2.0401461901106415 1.0748399063835554
Ni 0.02287521390767574 8.741539374938737 4.611077658764151 -0.5475734966860117 0.8583579052992895 -0.9035851525682052
Ni 3.7102020621394236 6.929476005932506 0.41483870490600133 0.01042993708407236 1.1150432180753183 -1.5543218496079683
Ni 6.195058831857347 7.17039893189604 12.660943333243118 -0.7256576147183695 -1.8796057373890018 -0.33602107169287937
Ni 9.031411226175067 0.1394077489238093 8.838434601926034 -0.7625709428049513 -1.0933518491448138 0.4944609331317485
P 4.103681402649099 5.834875025052234 11.95642432035827 0.4842922201288627 -0.12761284875568346 1.6628925941305361
Ni 2.86148213651918 3.068596302825095 1.7149472715641376 -1.3391811930429451 0.46287235969219 1.2493288508654872
P 4.972857048398321 4.7453971389533685 8.953777552500975 -0.9787081589552887 -1.7926332878624995 -0.6943130389688172
Ni 2.170450884975647 8.346016295365997 8.988370814686839 0.9507386703255561 0.4024969439279262 -0.395564478474151
P 6.529278904287283 5.196586904934452 1.071214373969372 -0.5228155730150416 -0.34830374571497436 -1.8627801811912303
P 5.8356631934801415 3.1181226072950787 4.895149140256021 -0.9017990072020597 0.20974571080169682 -1.0301173666652002
P 0.9970147318061813 0.6036966908817522 7.227159889354293 1.2711986543553848 0.5032592481496688 -1.5702719451793214
Ni 6.442397082234091 0.9708310434511213 4.605122404758859 1.3282707167780285 -0.04392678328993725 -0.4004421182814265
Ni 4.31919964393632 5.942460015461771 4.255310344580074 1.487606864778922 1.118373310889816 3.162622210314921
Ni 5.1036838426820035 7.364902403355416 2.056522971671277 0.5288237268823345 -0.24894166427486805 -0.03334900777409095
Ni 8.485549601353322 7.089034288838208 12.18458899901376 1.89151097346702 0.177856575402584 2.700929215642813
Ni 5.638144519546558 9.13484458521434 6.811500939398316 1.103252138977661 -2.625517988591349 -1.598907349527827
Ni 8.929847475964785 4.925017057774095 13.12080020250645 -0.6869319160133976 -0.6524035432192248 0.28141546853285726
Ni 5.636604841687387 4.23916388950694 2.9892735658804974 -0.8795396815832272 0.38168514938889747 -0.37135985620348944
Ni 3.64551726255594 2.6941888053209775 9.807749795865805 1.078690133367581 -0.8524058014809126 -1.007580876125581
Ni 4.296489395513555 8.886901461392922 3.8584712070277085 -0.5358261263420965 -0.8914148357542584 1.1652666330072448
Ni 1.4546839754446073 2.85464523364453 9.31535256822884 -0.28504715174817363 -0.2315108703929303 -0.667441925609586
Ni 4.205584248578364 6.667666616629392 8.393185426351584 0.03574141926566747 1.2080744722013903 -1.1268196418849563
Ni 4.230869791515575 3.454826326747843 11.812336134037565 1.7927695563300476 1.445072590961137 0.3987991833613648
Ni 1.4221399511713073 1.8520858285955026 13.486640492494184 0.5412323849593325 0.45207089820131174 0.138147172628104
Ni 4.514289659342046 0.520754794493188 8.6026512672924 -4.799711213118791 -0.9125521319535057 0.6358548948319244
Ni 7.283097852337822 3.1081696897054414 6.384628918842965 0.8385591254058075 -0.5376079008328677 -0.3145562169508841
Ni 6.537774626760206 4.611747601927873 12.216204634196977 -0.9326278196574583 0.2722947371785117 2.6314608364383454
Ni 4.416859211003704 4.412102706188767 0.5327697806442147 0.7954679506432881 0.9928463981288835 0.19771603333067242
Ni 3.0281339352760615 8.717261954409318 6.470019636207543 1.6150263665768765 1.2440673453562316 0.3758230341811657
Ni 7.416261657657746 0.14161553699686982 12.516211781531261 -0.45248330314838203 1.7970005636922601 0.20216995533696794
Ni 8.008762690963529 6.939208969542262 8.065103902910174 -1.7810676945120874 0.07293474048651309 0.12081202378376613
Ni 4.900501353766471 4.621691354768349 6.317373407119616 -0.02164200374980789 0.5739273040891922 0.6776787728462459
Ni 8.343376847607418 2.4420940501292963 12.774757603657882 -0.2547415587860967 0.11662781049908948 -0.47248622863287015
Ni 0.34767942304885074 7.107345457663343 9.602965308796803 1.2345794604704543 -1.1558090871387705 0.6423407596665841
Ni 0.5481647262860873 5.322473899419962 1.8557764730829311 0.6639058874318695 0.6141324155531681 0.6341507676566239
Ni 3.0671666019558654 5.595445953202062 10.18582410950953 -0.30349635959229665 -0.6191560940200047 -0.8613789515138004
P 1.384161230645102 3.193905918113417 3.8088275937684544 -0.04192646503045683 -0.6866982027360368 -0.7875618084223339
Ni 1.0745668392127325 7.636582227505712 6.319493213600723 -2.018761553787278 -1.0497755072157597 1.5386746299890146
P 9.012256900427053 3.2788814723409687 10.824106730777816 0.211779453402274 1.1236612987616326 -0.2232794836220735
Ni 6.207000500015081 2.9898619427766806 0.7635335821619716 0.7263507841306523 -0.6903859360002691 0.39232848803535664
P -0.047023411473915644 6.605584605807839 4.3519150490189435 -1.1778131022136877 -0.6469643744815246 0.30406354494967636
P 6.28782442287237 8.510825979541371 9.28557446525255 -0.40053673487776176 -1.8780245089448107 -1.7812728685443582
P 1.804749899175172 6.1337741542128645 7.996345372324302 -1.1448075938219444 0.569068176224678 0.9870984399015129
Ni 2.715432693877866 1.9765706164592687 7.101864021189713 -0.4579893205682758 -1.0588779837376603 0.42416851536408884
Ni 8.76323233620455 5.3002310532044445 6.442535469946434 0.02345180326503703 0.40154229332414065 -0.8507284137784896
Ni 7.160235225075682 8.236873297598965 1.151478330652879 0.7718446547973934 -1.2405667884021407 1.2984765162347314
Ni 5.579765067386343 6.168041151328571 10.362520473347667 0.7148013887301561 0.9567676501284554 0.601465875829093
Ni 4.335008836240302 1.847146028797331 3.210006549440742 -0.7960659892386032 2.9167478721114675 0.8510999381852956
Ni 4.136766147122941 8.181637354401225 11.25596895725173 -0.839956005753334 -1.7354858921172305 -0.10425051988065916
Ni 7.838014249331355 8.353723849411011 10.640489148372742 -0.7407013964253695 -0.02602753441201324 -2.4218634782890547
Ni 5.438032221600204 0.7028409473133371 10.640100563008286 0.6798194733383324 2.1394607061422635 1.8497511159214142
Ni 0.24639061531342116 7.814809104453857 2.4290040389015988 0.27579940789766044 -0.2904832351620804 0.025365218237665993
Ni 2.0776852939606254 3.024449706113046 11.482510558830677 -1.3513643653726986 -0.724192857247385 1.4301092847830854
Ni 6.875248185142555 4.59058619611344 8.061307863807386 0.4430848926526176 0.84046765528243 0.29891439664856906
Ni 4.82454391271406 2.8225319525818313 7.796269733374595 0.8180509781501266 0.2337022216172943 -0.21386461806607687
Ni 5.806299337165962 0.7952518625357998 2.103296185493077 1.5978107740295384 -0.5589976793625533 -0.4514304364038354
Ni 7.456595718718515 6.156191130662455 2.610153554357419 0.6121616649800425 0.3404441404612395 0.736969440186763
Ni 7.539701664117074 7.413558056655035 5.86883775249577 0.13872361395686433 0.4154031104666329 0.1473370666574882
Ni 1.1760206124330732 7.2084326409172155 0.20245572430700823 -0.2940331572968678 0.2571751079282539 1.4851859140422552
Ni 8.686028489266144 2.3288727389852957 8.343622462884953 -0.8787063870486543 1.4154514256605946 -1.5346341413710538
Ni 1.0176812411658804 5.175654617849062 11.152872860981606 -0.3835900797210942 -0.47109988980830486 0.23423084042725464
Ni 2.8144028200753777 4.195567177744595 7.9004390217715565 0.9895798115624699 1.5326173680513413 0.12194639449852547
Ni 6.475738439684462 1.3057109778207012 8.365432732940036 3.262291281472485 1.7216803536927057 -0.32263667996617335
Ni 3.904980476073651 1.871698391801603 13.526210213474863 0.9187590320951661 0.5839214391874267 -0.545394486756822
Ni 0.9280499943641701 3.3489551444315486 6.769557548384747 -0.6297433826175477 0.2239227736330273 -0.7952226674017014
Ni 1.6377131809534982 5.3127867595560145 4.325999887814323 0.6301421607178631 -1.1556720473402744 0.45822097696310765
Ni 6.193739107978059 7.674020227831375 3.9936521736381283 1.1112122743650024 0.40338217474635685 0.36052059949614035
Ni 8.060571017974784 0.6423123614746975 6.472407053364174 -0.5923955380967088 -0.6997501508239884 1.2352618312494599
P 4.891620711828755 7.388602444687646 5.762656801657809 0.6066268512047424 0.1282687371721275 0.28390712460645945
Ni 0.6290894613841549 0.5081001088506725 11.336825873206001 0.5260060549278812 0.2449417990868556 0.23560920883202005
P 2.4625222760107905 7.449447214372366 2.1349521455726057 -0.058969793665988764 0.1373537301925312 -0.6153472617968758
Ni 2.3193780588537445 5.175278863133432 13.385650455581425 -1.2816206210196572 -1.596310535334928 -0.9260113427822051
P 5.9388674337903735 2.034051923201633 12.296310040719984 0.43794242921972965 -0.06851475704194653 -0.06019903808739955
P 2.7710902155370465 0.7194749670418753 10.522195148567723 0.10405254493724016 -0.05211240442452316 0.4191471508900975
P 7.819776398499514 0.47947676426876024 2.8432671975602437 1.313173456125274 -0.15609732934862147 -0.03395398834794152
Ni 7.799036571146521 1.6334240783458092 10.245125535435415 0.03478188356587558 -1.5641331792714352 2.3969276342793235
