# total energy = -340888.3963590107 ev
CRYSTAL
PRIMVEC
9.10504412224682 0.00000000000000 0.00000000000000
0.00000000000000 9.10504412224682 0.00000000000000
0.00000000000000 0.00000000000000 13.32615242487539
PRIMCOORD
 96 1
Ni 5.9913649290185225 2.411234228933465 11.251977219508277 1.69040905438325 -0.3113186838501929 0.5931753536855268
Ni 4.663439755624868 0.18716510987222493 5.786974896502215 0.000806555061695385 1.1912833687859807 -0.13452525960480058
Ni 2.822572811390218 2.1078632607665533 4.71999027473372 0.6456734235842428 -0.7347996862289538 0.939915354457807
Ni 3.9074570395790533 4.431224707990517 4.865244866088815 -0.011482803828618934 -0.2846314043669937 -0.6602202110501663
Ni 3.9351181639012442 2.778786653764999 2.595187989711405 0.4413923354415431 -0.3409483337911676 0.15438703152573413
Ni 5.506921946567408 4.5915008012899 2.560460440574714 -0.25468370896496784 -0.08893471545919523 0.8076002151304479
Ni 5.2038969700806295 4.793951459388621 11.293394244629008 -1.0734204003282093 0.08230332618560665 0.8351526708274197
Ni 5.638626411123198 8.16640520599611 12.543707110637943 -0.9179033689630901 -0.07371301341343434 -0.35624228383576073
Ni 1.826453659243857 6.915098979663429 0.20962998546147488 0.594283499148041 -0.8089150772871295 -1.4743343160397318
Ni 2.88016221604389 1.651163348035556 0.36385486637622055 0.005873685171957626 0.31834807989314856 0.7499846214995083
Ni 8.335795448553727 -0.109162196090721 6.484626146790915 -0.511003925092094 -0.40785897957078787 0.7116898396843678
Ni 8.96779477753724 2.2345963711814893 1.5001780418521586 -0.6123123316252937 2.0969858248075046 0.2959787110590128
Ni 6.955980628184376 0.6010968089211305 4.380359378488898 0.21603745734767954 -0.5492336579972541 0.630129819422689
Ni 0.7679722382668347 7.53601746983848 2.145336891238193 0.3884355807388536 0.7051481819111082 0.8590991543406882
Ni 7.863544120305185 3.9251299303984646 3.5950365679678287 0.313700296708492 0.7839265256625918 0.27556620884093186
Ni 7.669788779430852 4.051617204619622 12.31604367460618 0.8133093497000832 -0.5167855647708778 0.674716090673496
Ni 8.10791440196525 7.340814426934118 8.940448687744853 -0.17363199579827515 0.24908204650747423 -0.10250962593015249
Ni 6.916792517887236 1.4303478157571585 0.1639809357900674 1.1705353376053518 0.057830794965539105 -0.31387744571630466
Ni 1.5240478257636318 6.687172407853882 9.013422885606955 2.285288535244077 0.012646742229733058 -0.03065294899916656
Ni 0.3128620662556051 5.009267544961751 0.9210662726901991 -0.3294133365683746 -1.034564089582644 1.5945063922466538
Ni 6.643568351112943 1.4439052265918333 6.830252714650668 -0.4218046431176026 1.6731710932384087 -0.12504508802850722
Ni 3.315465274871942 4.6929947291435745 0.4523558961364888 -0.13665490435329367 -0.9672101856180181 -0.6757134215897588
Ni 6.176506898066392 5.549706549329084 4.72388086012637 0.10424460634338821 1.120633310568586 -0.5308692965574535
Ni 5.442877065565995 3.007414313979025 9.019780027477182 0.8918370108933414 -0.21106340117185587 -0.0811959520540408
P 0.03380520815781111 5.754606464321377 12.341549634962913 1.6074619239660575 0.15032700252374756 -2.2069061413794313
P 3.8955112215702603 6.348956435479918 12.518614519288525 0.03399589732947048 0.45973355695289214 -0.8909651498113494
P 2.596394408069763 8.678773359051622 1.3863331215221675 -0.9958080518603689 1.1202018794581223 0.2226307942944811
P 6.610289414510702 7.809041325640065 5.47496961490715 -0.7064604729646284 -0.4195875808616258 0.2057008513083619
P 4.770360289830097 1.2036959501375744 12.89765022588278 1.1688571785719803 -0.9480793783258381 -1.7203873459128953
P 4.169782468429165 6.4452240679547455 8.04994258545459 0.7528277473752583 -0.25476752692802573 -0.5503420605700845
P 4.799824212906663 0.84294954585602 3.6933027576476323 -0.19503694383661246 2.058626508303016 -0.580717073317516
P 0.38308380925180807 5.924105967409561 3.4764470090979116 0.8477083960052433 -2.3916471026066746 0.14958472504108433
Ni 0.9386116928906145 0.09814054006965056 4.892656512199541 0.35083114012251837 0.6286838310047818 -0.6679000961929271
Ni 2.202009417939514 6.280022145735578 4.950785845975105 -1.409516034012766 0.21574100915318326 -1.404217247507672
Ni 6.158424280257349 5.866334461871608 9.196444289857379 0.043002728813771096 0.5329182086666823 -0.6322599783918144
Ni 8.881952420687464 2.2873054721364476 10.007114632965857 -0.03300088040605284 0.6855859435084645 0.6312307657963515
Ni 2.8008663859839955 5.082490310530894 6.970910169182103 -0.35169837321882014 1.6654562410926546 1.2347254991300154
Ni 0.6582755760807508 -0.1941550523153276 8.767262552254412 0.06725465938260031 1.1869474604147883 -0.3704766822675878
Ni 1.7006674734271794 1.3989991485282898 11.436384411488076 -0.9111544802750308 -1.1002483191543309 0.15531262866379705
Ni 4.061487072547619 7.168783721554436 1.3735532814633697 0.9136517927755878 -0.6839419801471383 -0.012467793449707559
Ni 6.038720263975637 8.300558927445472 7.610419338633339 -0.32925984170964584 -0.9259972017148181 0.6431074626292795
Ni 5.602725221787319 2.5731856503682273 4.808675226387112 -0.4910444512510317 1.0439504158935504 0.06910225411430036
Ni 0.6502085069071296 7.216639833943322 6.669992099926449 1.2986423523886346 -0.14941606067370397 -0.5698431067174896
Ni 5.328317399265203 4.695489511258216 7.102745746374575 1.0796674096791858 0.8952804893572517 -0.642150498032649
Ni 0.47372543490679225 7.657232923459719 11.058668025800431 0.044154583030027186 -0.0408766836097038 0.6377713951283468
Ni 4.823378962288332 0.4250917517420292 10.669957299224361 -0.3402636490193172 -0.28478181390192886 -1.1130660397442895
Ni 8.448142589110512 7.515685906108574 4.290847688820874 -0.7086317695843345 0.9701479280901034 0.9680933595539198
Ni 7.419017651688331 6.279430317861666 6.794205844607366 -0.14773481631653912 -0.9333114759880442 -0.016998334330209433
Ni 2.36290465424545 5.582657704339621 2.3173248029100693 -0.49316484002814426 -0.15807425056933422 1.6599880188892315
Ni 2.1637682322406326 5.541603059978607 11.129803004731302 -0.2716817861848611 0.10823701533223296 0.8841864363266191
Ni 1.1666293151423015 3.645932854619775 3.728297995084216 0.6320316644310922 -0.26525891337765284 -0.9469151828144081
Ni 1.9059315901880323 1.4191577164181286 2.634660177388022 -0.7562334306226975 -1.9762483630154155 0.7900776328656522
Ni 1.2855138774447525 3.4236696203113484 8.30404524887502 -1.3764490762554682 0.36362032146738665 -1.0229897544814834
Ni 3.9642998306071764 2.8818102290466276 6.90759824423992 -0.23254368253281887 -1.0150329615282518 0.004561137008121177
Ni 4.292381888770936 6.92617981847189 5.660270011724343 1.1653360527925996 0.10048951017633016 1.4115402635316463
Ni 0.7986444007106018 0.5136282911747321 0.43748462742173094 -0.10894818246664462 -1.9878496946997697 -1.3963185614858855
P 0.1446536584369685 5.578241757895822 7.928087957729525 -0.6812042695010011 -0.8276226809989617 -0.8001321888881768
P 8.837647275542047 1.5610780405820484 7.90740584979738 -0.2604272963169644 0.35224396130964497 0.040120265059653486
P 2.176442453786547 3.591348114556729 10.167028345505523 -0.2227858318151066 -0.37039569251800725 2.112024207197866
P 4.114760686243846 6.2420267962304745 3.5670913662661596 -0.06271769074419521 -1.1614824833744644 -0.4213973803768549
P 6.953831837749868 4.135556607228667 10.252288890030021 0.3263514098135993 -0.5172537626565479 -0.5535199440774339
P 6.470645351400288 8.029765807476322 10.198611012370693 -0.9659014941089236 -0.4227114712025882 -0.2737970327556511
P 2.561339987845788 8.445074189210388 5.982402833998663 -0.3088257422250101 -0.5354314620068392 -0.35757745770741645
P 7.336607896507242 3.9390333329132723 1.2299029988987864 -1.1380108826150854 0.3797357389720106 0.6081679704396171
Ni 5.170599823389961 3.1321989449321603 0.4091916130310872 0.4670208346429247 -0.01489954281965176 0.3295886858039743
Ni 2.031344469191935 1.3268143579995442 7.116125608847077 -0.9974219333147082 -0.003954870882689963 -1.053794655677482
Ni 7.082832104174093 0.8734687435569916 9.15074880446048 -0.5826636555209255 -0.25062188019076836 0.4699634622110164
Ni 2.7438505991158064 1.5792334987448031 9.418218583291512 1.2727261467435047 -0.14651457075619284 -1.3434757066532412
Ni 6.716153763587106 2.2451582224697515 2.5264385323646095 -1.0193732407748186 -0.7660257341227711 -0.3542553353127189
Ni 4.148986547444345 6.873060990527301 10.149184279854888 -0.5648227706847627 1.5038402959186488 1.102793454173688
Ni 8.484690236585585 7.403803122806705 0.0856156412488455 -0.8472070308887925 1.470123363282178 0.754966648095132
Ni 7.65940902902687 3.923035770229241 8.014934600956105 0.4972775766449372 -0.2900929417021972 -0.08858890208400226
Ni 2.982029450710339 8.700816671093763 12.300932032724171 0.7944947880967413 -0.8264823967469315 -0.2703568967258505
Ni -0.1983470146714621 5.161895401121357 10.05239674935544 -0.08109619325138293 -0.7255198035889248 0.7281690682863137
Ni 8.826475386291444 2.251340547491071 5.821596827126024 0.3109684995996257 0.7307640827069997 -0.6377166306310114
Ni 3.720885578589583 2.656624275545501 11.61474130158766 -0.6155526929394625 1.2861737876079784 -0.5576313951426461
Ni 1.4615781174112448 3.4688761648339543 12.573397749315436 -0.31473285173806437 0.8386953938733556 0.1174212529346623
Ni 3.4920940275797037 8.614236805662653 7.908564921925825 -0.2675502805149908 -0.7288792069794608 1.5905499787020674
Ni 5.539244853527176 7.91214684631962 3.3490883821454727 1.2269872499454935 -1.3248148970189442 0.4982168006297549
Ni 3.188540958528512 8.422830566195538 3.742276969466 -0.8126208082734909 0.060634325852605246 -0.40291474819163514
Ni 3.8491392313882593 4.514371971752942 9.199096589236923 -1.126169152785151 1.0338683490672003 0.08426816322146133
Ni 7.139474584229508 6.43121140490937 11.613608634087436 -0.058036740328758114 -0.21476296151063012 -0.8391957305485417
Ni 8.112312138320622 9.059783039231478 1.9960715279068237 -1.356242005179974 -0.034051690268070395 0.24351869348708383
Ni 5.125183862850432 0.3110811196073429 1.567435182452277 -0.2658088723438519 0.9801618606826797 -0.5967939242747206
Ni 5.654796969647296 5.432743151355792 0.4179552180870808 1.057935931539365 1.7499362632146054 -0.913348659712872
Ni 7.639705713347732 9.218675165810328 11.544499527494185 0.9979238126517912 0.45421314135529517 0.20300684941596653
Ni 0.25206859654301916 4.698767327175263 5.558777904879512 -1.4948566043627998 1.8968506405123786 1.1677336064904986
Ni 7.524454063686674 6.325592892026745 2.4019725779589645 -0.2314486496964272 -0.9748666737220112 -0.5150654967559775
P 8.78394572476776 1.3904039867902556 3.5698101324684663 0.5749462322720098 0.8943916589943951 -0.2605622792329319
P 1.938846325021712 3.267864103721049 1.632213930017339 0.3652678843731386 1.7129871967940824 -0.7067687482336668
P 4.844766711147064 1.2565598368441706 8.099235473820446 0.06082098794211461 -1.5920512458379419 -0.20084635142953797
P 8.940197388524545 1.983424621493551 12.328516674674965 -1.5715310143974033 -0.7483308879461693 0.24713880673817437
P 6.463898513637699 7.696958231365485 1.0605591920666615 0.7098913530230484 -0.5037690979065518 1.3992843289824288
P 1.8554168048886526 3.4787278226735237 6.145715459543421 0.8230119216998277 -2.668943920985468 -1.811888536547686
P 7.144118156778658 3.943012237234799 5.762668070468469 -0.17774884618012612 -0.40256610660296477 0.601657423014609
P 2.2836543494066253 8.561627860194049 10.08760413432221 1.2728230773326854 0.09521514915126827 1.1016315726551027
