# total energy = -381168.4835027271 ev
CRYSTAL
PRIMVEC
9.22665942517998 0.00000000000000 0.00000000000000

0.00000000000000 9.22665942517998 0.00000000000000

0.00000000000000 0.00000000000000 13.50414871377481

PRIMCOORD
 96 1
Ni 3.368422604105393 3.105564310416813 2.588893539710377 1.397357287163045 -0.5923304891867283 0.05416980117418412
Ni 1.6049681395919442 7.817388492712292 11.492056832685394 -1.04002279870437 -1.602974320508349 2.2594792874904575
Ni 5.9842081646934675 5.634942207682428 13.022334243461358 2.269428428283369 -0.035407432965016444 -0.47238672694052836
Ni 0.8446951129282649 8.598794259586729 3.1646970465051534 0.28991142181901036 -0.2542353085736396 0.01506126520849664
Ni 3.448150166173666 1.7354792338467435 6.190746930681002 -0.5291464003290758 0.008502381044056326 0.8384136009668788
Ni 2.9123396136416972 5.301287758022332 5.0508217902930035 1.4653840488249796 -0.9908429945456098 0.5695114344096837
Ni 2.2499023903742845 2.804350794471802 4.533099180438809 -0.08671225388657969 -0.8784551902697967 1.1193603573934336
Ni 3.562966713144802 4.222986551704208 7.596934079333092 2.0264728063886066 0.446368962720528 -1.2620303575925553
Ni 3.4529664822712984 8.920509412253844 10.605604628257026 -0.715255188438123 0.04390235780990504 -1.361233030636662
Ni 0.8135994261232083 6.243707954436574 1.561281753655032 -0.15932072138192563 0.087674617799849 -1.327231991100869
Ni 1.2992058806658369 4.357548149343797 3.219875236464289 -0.7886002769891773 -0.02802656711991302 -0.29673590094001157
Ni 6.741449311147028 6.1544031201281815 1.8090424649095986 0.3363260045278079 -1.2188605070733007 1.0519576024687431
Ni 5.903696336593971 4.8919101163828005 8.445791338222357 0.147824547816868 -0.4301910674090849 -0.23566037378492963
Ni 2.0345890714962365 4.019418769976133 9.44631365289332 -0.6075755882712569 1.3328670778994594 0.14768313714299727
Ni 5.265534453657727 1.7372507524113898 1.2653375827739253 -0.6950602015474868 0.052558233712690125 -0.5062324718453798
Ni 7.36294784758457 2.9042109268945446 9.367179365011019 -0.65891229087202 -0.5898609446003131 -1.2352037243180145
Ni 6.669878115803481 9.221113968692258 12.03863766449086 1.0757881292294376 2.0866376488039613 -0.6357456229475695
Ni 7.00006334160781 3.6188433612046866 1.3183954864510001 -1.596343959676025 0.4067580331971253 -1.35971299444771
Ni 8.90799806239103 0.46603855573064007 5.90945561726091 -0.48501701411002923 0.9139099315329808 -1.8861957319016935
Ni 2.616929666327742 6.414936295700664 13.213889837588846 -0.036220158674298904 -0.0038558834109804563 0.37690032640574445
Ni 3.277429291165073 5.477341642043246 2.5049115650891958 -0.520791086385845 0.9966937968994318 1.0307156623708313
Ni 0.7575899141709755 7.6236932363184415 5.442050593304103 2.4797588079439423 1.841692764393312 -1.0632570866419624
Ni 3.3951245558037595 0.6833752809692452 2.255854508218312 -0.5860965924618745 -1.007626898872168 -0.0250667131606407
Ni 7.03394363415667 0.7029690144269682 7.541527068226023 0.16499591738983196 -0.8320925438448573 0.4682793896403742
P 1.7917710815702168 0.5899295220159928 4.950904452583278 -0.5807139879937225 0.710600463274931 0.4527843793285686
Ni 3.77987624406287 0.13001193199257327 7.968879164635281 -0.6845868128199888 -1.4597201656709826 -0.13494306386850954
P 1.7697562727408105 6.403947344604342 3.7149371713457175 -0.9099041528076975 2.7846103960125523 -0.374004235804872
Ni 8.227107520741885 3.7524546129476164 3.175514381740525 0.5836550728999175 0.6188023102250118 0.7909376668731023
P 6.022102053990354 7.663275604247257 7.149919972188099 0.3794056093261014 1.234129003196597 -1.3453981204869345
P 5.421271234140353 6.1057786261923175 10.483607895103557 0.8336863706945384 0.06501060054342997 -0.5350509387389688
P 0.8699327938130406 2.85578941946088 10.79440606461604 0.9559760074650955 1.000523197947851 1.5643830904987124
Ni 2.3564149440736415 6.051636590060316 10.09474296217716 3.2286555956959107 1.5156311179059898 0.026960844859560018
Ni 7.8397539145909505 3.020476059358647 12.097501904796745 -1.8296011233361007 1.7200122219616638 0.5616158337116908
Ni 6.378389498645644 7.824917446612037 0.24231975032971292 1.5880326115968522 1.3456292626611341 0.5957906798211868
Ni 7.41750508338016 4.854735906502801 10.4980300860848 -0.6252406096511877 1.8260650851583842 1.201495533432292
Ni 8.885604960534799 8.81530704415959 12.825214051175859 0.3253234827697171 -0.33518520605514535 0.13503073848630937
Ni 7.64882665595436 7.427432968669532 11.125986361290028 -0.6474027475705237 -0.6982861646839522 1.731759335195263
Ni 3.18149971555764 8.358301387776809 4.209081053637655 0.47144570318349777 -0.3658746647192021 -0.08443348515473201
Ni 5.467561383300928 3.263054156145704 12.889993502689011 0.7250305226573319 -1.1805870654143988 -1.5312497982798532
Ni 8.10408847375007 8.071758259945275 1.8735654152972434 0.40681511168730583 0.9304364684330944 -0.2414381568089713
Ni 5.715546302373832 8.454249416702623 2.6903369668502712 0.22780668206846574 0.7486345352295172 -0.08353514171017871
Ni 6.968148327466605 7.631332910128479 4.845315487468928 0.01912617930648964 0.40099541968173524 0.17760332174119736
Ni 5.322296860999934 5.9639556477695175 5.986294312336523 -0.426996214620871 -0.2847887558804643 1.973761334927504
Ni 2.234097123180331 4.267689715483954 0.7513305485758921 -1.6450797343188313 0.1329777126120226 0.2696308171931034
Ni 6.665412412755103 5.119024332365965 4.419192382063892 2.3670717272601554 -0.7410068434809302 -0.6755465569945913
Ni 6.939204297584859 2.213106473521111 5.670959394499892 0.15123897281505566 -0.7673642504285365 -1.4609355261353227
Ni 5.0205851054586175 1.4451900823837183 3.7449025923998924 0.24887404426172624 -0.14973256347285827 0.19107281698254192
Ni 0.37951832716605166 2.699120746399976 8.77057989106595 -2.270908355263005 -0.5428768625412909 -1.0261133877121298
Ni 4.562868996318138 6.886280180466051 1.0748236784690866 -0.14160916303477547 0.47016297981633215 -0.08243393822619996
Ni 5.194562991161586 0.24253196349110284 5.796574823388017 0.7204153924828238 -1.4244245756934821 0.4857317807888667
Ni 5.274438179776912 1.5768637356965665 8.823516002841703 -0.4227150707470139 1.7182857261888602 0.33385980237550245
Ni 1.2515225059674417 0.42797858656831794 0.8235033220986839 -0.8148990627847061 0.4948789945057735 0.9794077561254746
Ni 4.653400976298915 3.3907603460064797 5.0177091557888245 0.1340712027865175 1.4224476544727696 -1.0002933413252322
Ni 4.203481394174718 3.886056638031356 9.858109601906778 2.032571205976861 0.09599830717419597 0.3637666172372638
Ni 0.1345246910028258 1.655650178527371 3.6654038514795535 0.4512674284634099 -0.06832166719453396 -0.22613957877868796
Ni 8.936619159201097 8.356234616118055 7.746775947258675 0.7071659836720853 0.2354379733614784 0.7445230841643049
P 1.63102422514695 3.683771361930811 7.291119228449596 -1.560673245747293 -0.5983353006199115 -1.9808827764636339
Ni 8.488904748623517 6.5392101683424375 6.459763096713567 -4.539065373033118 -0.29031071413995807 2.694919004892991
P 6.1796380330152 1.880752982806928 10.852703788047608 -0.5016448524746974 0.30920960792699004 1.116828077889883
Ni 2.5655925345897637 7.677226312943846 1.7230352385960226 -0.16387260241866616 1.1866628392948337 1.209155621080711
P 8.283962194676 4.966738322420723 8.461834653223434 0.10913124501172818 0.4420189132819484 0.017514097624363387
P 5.294026377239121 4.402306673078689 3.0166645264469 -0.23990757909705776 -0.6621405680013306 -0.9222410771064956
P 2.3883945448291826 7.659289687476803 8.535040812575604 1.1675562003723698 -0.3230025479460244 -0.7105876077591246
Ni 4.634846164666084 0.8472610468492447 12.184954948605531 -0.13986158421604947 1.533375072152972 0.7062632693521579
Ni 0.2061936889337963 6.379985710685664 10.110191157660426 -1.150047244954329 -0.43297120125738336 -0.9034630251680441
Ni 4.976601621095758 6.483822533219669 3.7997569266214293 -0.9480474966466382 1.0907360087885216 -0.7684412855427991
Ni 3.00878588216382 8.65591650663738 13.164505989601574 0.2864370901171647 1.2851175784293223 0.20144413291453694
Ni 1.148719069262813 8.847286644915133 9.608188007069709 -1.3666158922151304 1.9552871873827165 -0.6377135453072179
Ni 3.252028298412619 7.116734447076311 6.411729108965919 0.014717508715832718 1.324224828843429 0.24936075409015765
Ni 8.525082479310901 4.989325184119963 0.14216897814245827 -0.20033881566550013 -1.5358942390304002 0.4092376050858694
Ni 2.853731874461317 2.109777117242603 0.4634744671414984 0.9848088725363878 -1.0082874152743022 -0.5741160230612306
Ni 4.848784711324693 7.716328894594737 12.036031133269441 -0.5470528482958514 -1.8774868912737859 -0.33293034858269765
Ni 8.787608613268612 6.371331104364631 3.4268125941288696 -1.2777153724279802 -0.21567364625035756 1.405079338397651
Ni 7.487415480069352 1.3044466230862488 0.32572505875146496 0.3135460305188148 -0.1599249306248278 -0.03098719241013373
Ni 1.4752505380275598 5.995759942000432 7.522053281337782 -0.6754833078568238 -0.5785830576936487 0.7159812679708701
Ni 0.6946530264982407 2.6621864296589397 12.983036979301541 -0.10212447467659186 -0.08360173328205601 1.515353695874887
Ni 7.344586795794746 4.390671855839007 6.494968337522235 0.29749771880670056 -0.10297499560234523 0.8796227282153367
Ni 2.832362931775272 1.940163441336914 9.502369298141504 0.11120406838035686 -1.821697295107992 -0.23684128146690825
Ni 1.8054265371726983 4.669086296923387 12.037178929672782 -1.629831035689877 -0.6218711789583226 -1.551087658941387
Ni 8.617044591466263 1.366948012445175 10.89394510929894 -1.08944968587693 -2.3758247908624375 -0.8614689401244453
Ni 0.6138108839997112 5.367848877425239 5.433650642776739 0.9662138831430198 -2.643528309125841 -1.6064437671141882
Ni 3.4197136025474175 2.7948381088460192 11.778074963608965 -1.0724428669062884 0.20130195090971784 -0.16005117179004694
Ni 5.7094567073078615 8.589752133579681 9.914812958630163 -0.40013332879175606 0.6435406935119562 -0.351368243572911
Ni 0.02260623768354071 3.195321251025557 5.486843255678 0.06434648459686983 -0.7570525840898833 1.0601283112049935
Ni 7.214841514252789 7.0769214126677245 8.94660609510929 -0.1974380970789374 -2.058149568666597 -2.0058111642741974
Ni 4.117535063811801 5.146796576530473 11.876061161550043 -0.6019459007893053 -0.09142637153279738 -0.04751270086898269
Ni 7.171033336414557 1.6847418349561716 2.577307623764406 -0.025001921360976294 0.6378649832834176 -0.9219852523419475
Ni 1.2415577140413063 1.0786610460265678 7.554220183274897 1.4672732954278924 -0.7251714191105705 -1.0064297932402733
P 7.837115090062363 9.089080475670965 9.511471397433294 0.7529835562268322 0.408634938504864 -0.33970906206742785
Ni 1.5958429736521778 0.9659481773509492 11.543832230734937 1.506508329669115 -0.11553766275870424 1.2890673071056895
P 7.316768418334285 0.42995862763067777 4.070636877810549 -0.08567661353321374 -1.7906715361504388 2.3191610196218058
Ni 4.508883813392381 4.578166797256594 0.9356256845860871 1.2568770955263902 -1.2814966938472834 -0.5314966457288073
P 5.453066301712077 3.0470580644875316 6.958633796508984 0.027253693509630483 0.01986280036219805 1.8967655369977399
P 9.013135843870948 6.637455635406778 12.631780831903031 1.3413864282243801 1.3158324910146757 -1.2551099763236384
P 0.749506438053858 2.857782377846107 1.8062200298631126 -0.3802633293407064 -1.017402747312009 -0.9313618084608412
Ni 4.523120548523887 6.896706305351731 8.462941852326338 -0.4792572288081165 -0.3905590548397596 0.9387190201568607
