# total energy = -340890.07548248704 ev
CRYSTAL
PRIMVEC
9.08728128159438 0.00000000000000 0.00000000000000
0.00000000000000 9.08728128159438 0.00000000000000
0.00000000000000 0.00000000000000 13.30015471208573
PRIMCOORD
 96 1
Ni 6.532810193739701 2.314457854632592 11.36837340646672 0.6543444689956796 -0.5438744505678699 -0.054588376768841464
Ni 4.79888421912434 0.559771985835599 6.029345729163741 0.3505238932947447 0.6007145994853654 -2.5043053869350547
Ni 2.7787634065329176 1.912827282014698 4.258044675196384 0.5125177906334593 -0.34260900932304217 1.724118016599921
Ni 3.5985724910572814 4.773821497236425 4.7812594369990284 1.3573064418887464 -0.9361530592018974 -0.7025112585088933
Ni 3.9906705055676985 3.0324166900925094 2.4992059188349325 -0.6319277918633762 -0.8132396728044122 -0.5731405465218388
Ni 5.394800866420845 4.766878814305908 2.9410495287618907 0.3389639563712872 0.08931061074137522 -0.5250208081964765
Ni 5.483610866787266 2.7129260533501984 0.2503118902172473 0.8021186231905864 1.425565888386777 0.6057637318734986
Ni 5.589750312636011 7.851065746093649 12.385875387437563 0.662145453097337 0.5190841309970674 0.2630994438324888
Ni 1.9218873014933968 6.902753416385457 0.08690076256052806 1.909496868521479 -0.47048333927022845 0.02092312330591235
Ni 0.6315187980624482 0.3823210085353599 13.279553164377617 0.8335578155364741 -0.06667616117131098 0.8934267239779645
Ni 8.284883469156428 -0.45717930588709027 6.87913284604345 -0.5974562404490678 1.9356550149740857 1.0727853378473717
Ni 8.827512298776817 2.7136802976999794 1.422797454146168 0.2376583780515649 0.20578595482300044 -0.7211941796303772
Ni 7.032583404642395 0.9681771266795409 4.744644054365608 -0.03227402954235732 -0.6502052500163253 -0.42944904703673786
Ni 0.7680988188858622 7.464247442031701 2.0125792778217413 1.521302200148838 0.8130959481376964 1.5210031808511806
Ni 7.868395191575974 4.032853665467517 3.6914981211347375 0.039435066067170794 -0.3109443312299096 0.4066515895262481
Ni 7.848612180136529 4.211873107524048 12.79175608153007 0.4871605428155933 -0.45704418304618705 -0.4858428524454343
Ni 8.475180227334388 7.256566714683479 9.047736200534715 -0.5590264757179598 0.29815849231915104 0.0740004627468661
Ni 7.143112007369988 0.7697363469802067 0.2816775504305632 0.05481309118513786 -0.013131395175635451 -0.8026919791955531
Ni 1.8538144771053013 6.669746435990963 9.016201516888797 0.5703215890158049 -0.07046211057630446 -0.5014656465843557
Ni 0.3757763485267754 5.159721985884783 1.529691144344695 -0.4678009073420588 -0.6181839599147224 -0.553130421948499
Ni 6.71468304213155 1.826925211671531 6.967898318731389 -0.10567465392169542 1.2536285066821056 0.11963728674937461
Ni 3.684738092558806 4.422525375864781 0.14581360737537538 0.8586175867185794 0.3853245459136977 0.05649562109388334
Ni 6.299648729562723 5.95442291211462 4.86861456362569 -0.32974140933175466 -0.07323273134290613 -1.5751840377689583
Ni 5.630306849179072 3.3319789188942126 9.204930719038598 -0.3863614718186443 -1.2483412901412372 -0.8178841135549592
P 0.5581135569942123 5.705204221840489 12.339883747935415 -1.1976859298782148 -0.2844642826615101 -0.2664040827256896
P 4.121645491271292 6.247051545267128 12.354168045446515 -0.23643376161584442 0.10825706993689097 1.8065362710968371
P 2.7397607950960325 8.85870893555753 1.1230734717369215 -1.1101342108094752 -0.23376161410032 2.095485329002578
P 6.620856862475018 8.067452088948984 5.826358582618677 -1.2891387837735735 -0.2896681954599527 -1.9278702288223444
P 5.0281018032072815 0.9296743157154026 12.404163541099429 0.25332539516486047 0.7975906534132458 0.2114189847390617
P 4.229229814850341 6.676725468046771 8.103066053180648 -0.9029470047635739 -0.4884944311356684 -0.5759368783200532
P 5.092521540503665 1.2104258721791863 3.6833313814100572 -1.4981051932070844 0.09824493711652757 0.21520673391626804
P 0.5602199888048064 6.114086444953871 3.6550290437306123 0.5356353504875292 -1.7463590873863086 -1.0752363704910257
Ni 0.4564750415845836 0.33027905712858074 5.018308440125843 0.8533167433309562 0.5821520059918297 -0.9360589568261943
Ni 2.3940715263004737 6.789898469639262 4.743114664919003 -1.116869986871412 0.7172930448037582 -0.5569359117375183
Ni 6.119829606749796 5.803028805278996 8.943675924652595 0.3560553646359352 0.7885252007768678 1.63727900732749
Ni 8.840488936505585 2.275037228254865 10.118904030084698 -0.5175954622666828 1.2091080556722273 -0.3283936370546086
Ni 2.642454186692919 5.530392191036352 6.786457116202367 -0.7934882012090979 0.0017869166970936965 0.928252316297582
Ni 0.9992283669590926 0.013821754891775843 8.727813917929577 -0.4364745864249515 0.4580903649225143 1.2925241553060385
Ni 1.5563695848517796 1.4653241132799832 11.32881919705355 1.2124252929709183 -0.6090611716778479 -0.5556030518587077
Ni 4.158667075379835 7.011746268569519 1.3537831874130448 1.0893157314022273 1.2871695758623445 -1.2262012637090882
Ni 6.014526190782736 8.178353270210808 7.877268921787558 -1.3254337615498657 -0.6519332884510257 1.0157860376441925
Ni 5.522104590470081 3.175150617827633 4.854556539419524 -0.945931735855216 -1.2560959943859915 -0.6273388869411132
Ni 1.1737314301982587 7.7045969457349095 6.859381640088634 1.4162991183728704 -1.3649809277148686 -0.8742522079320426
Ni 5.155696320258842 4.88745795017637 6.945899828105477 0.1534876596399163 0.46884786054933447 -0.32047309665595136
Ni 1.0644296104492252 7.82755694931191 11.118291424466936 -0.26230137341122567 -0.3861154172461092 0.0906270155599536
Ni 4.860423288241438 0.3394835643803097 10.217803638903675 -0.16344399952167982 0.05539724582338201 0.4298624804250725
Ni 8.303076206364407 7.4671735466176 4.472549042089796 -0.3939230862159861 0.9428908921463632 1.152602664386331
Ni 7.335308007344385 6.232820862715833 6.920935248855849 1.193893295605002 -0.03776179212980593 0.5070930200734621
Ni 2.7056380537294196 5.574665425640384 2.4021546630369857 -1.5402759130378634 -1.1042227304210468 0.014825237938290594
Ni 2.44377895513546 5.512953698178155 11.102051544015199 -0.43722200611393736 -0.5948437425268852 0.7487067832283493
Ni 1.3191188440796011 3.873862591446142 3.6856059279251205 0.017383999804402323 -0.5333200720907911 -0.7865253967380196
Ni 1.4800273344600579 1.2264467491510473 2.2750708511957587 0.6906276196974299 0.28867189298495444 -0.018166129386065488
Ni 1.247820034821959 3.5338346989146046 8.048348806152475 0.6646085699258489 1.236104638865729 0.5994395894276837
Ni 3.901487926667049 2.9860715553469097 6.91931226041162 -0.10380571903375671 -0.7728648685317915 -0.18267713671967895
Ni 4.540814516841932 7.137586940325806 5.922678312270149 -0.3915993231788159 0.5768303366686002 0.08695265203215992
Ni 8.63137241870838 7.443601138866604 0.09316280811997761 -1.811214650409113 -0.524917964070025 -0.4082598145536323
P 0.27543731434628804 5.708530166804586 7.680666499099799 1.1249985295158174 0.5472449097019996 0.9108665167209666
P 8.919357451105007 1.8163657907745925 8.009579737845582 -1.2496101295513318 -0.8918151565164706 -0.7240211075562112
P 2.21640608916102 3.4569926480501367 10.274436484834665 -0.42482774621464253 0.09124973674561705 -1.3140396607803113
P 4.269786351393402 6.4889549740765124 3.4854649178903157 0.4131870766519206 1.2212058673770259 1.4852509629522355
P 7.250169268632322 4.137357400678182 10.383842808318908 -0.022794886407328484 0.800580589279505 -0.12799182936165698
P 6.5314198396973335 7.962366767733669 10.246119607505102 0.04126723417990313 -0.6223242073353412 -1.0045608583523344
P 2.5198394998061793 8.930207665004271 5.475860324547162 0.4808963070734363 0.21413664078054087 0.6216806602140713
P 6.975188135808432 4.147362497414438 1.6455748819557359 0.9781738837183734 -0.030630066181031118 -1.103583297064835
Ni 3.3048170350207626 1.739332907002348 0.28338777677548904 -1.4361737458096107 0.7216986300706215 0.37200160355254647
Ni 1.7327537153247374 1.4766923022146392 6.955316069012025 0.5027524837165793 0.021159407686434525 -1.5189997772679065
Ni 7.084644439339951 0.8246944069634295 9.082834915915381 0.6503363762775509 0.1937948438993953 0.8992672419191416
Ni 3.211736012432689 1.8302329820729817 8.962136736659593 -0.6951100809488159 0.365828384862299 1.1952426105440448
Ni 6.5869249540161805 2.108585496267581 2.4546764228976015 0.501316265490685 0.45872491318271963 0.03981070423903466
Ni 4.103316444843473 6.937766711321691 10.327729754879575 0.7731281494955072 1.4914776605882378 -0.8949745280810587
Ni 7.6440302157193365 6.470580491242081 11.34129512558144 -0.40791914338476193 -0.9871894569534225 0.11640541007563823
Ni 7.9086064114287735 4.088322430661073 8.166866946618958 -0.28803811605569746 -0.7324427559610032 -0.3481654203648971
Ni 3.0621957109868876 8.751315444886258 12.363836912773833 1.1885952804308562 -0.471508180990317 -1.7456188667861743
Ni 0.1683500650555885 4.999067939381361 10.22938810513381 0.3674726053339413 -0.45418305944830806 -0.4918540916365207
Ni 8.67236514475493 2.494858563450169 5.904617340641349 0.8518172759672943 1.4102379997804553 -0.8853717148839718
Ni 3.970787534033704 2.797346896837771 11.378348515174611 0.08289982211902497 -0.48490491401219715 -0.09075042851169532
Ni 1.635283535857816 3.511016535513389 12.423807517134637 -1.3681693527451793 0.7319241644533718 0.9002918265289142
Ni 3.368982328440111 8.829484238823834 7.593205051281663 -0.74640487456805 -1.559698026318217 1.3836435371213784
Ni 5.943018374054674 8.006585478649765 3.349750006248819 -1.3460200703416496 1.262609627134793 1.671575723726831
Ni 3.3047534240515035 8.747153470040475 3.4476127562688803 1.0369012223562528 -0.3242940130639383 -0.9266507761384171
Ni 3.6558314506714034 4.686047446940789 8.86984630754659 -0.6856052267821741 -0.38826511659926033 1.2235424859300026
Ni 5.320666825390531 4.779019422152991 11.281577147641404 0.4128194088998568 0.05656941175461225 0.1885168833299076
Ni 8.365224123330123 9.12090426356043 2.41985668705354 -0.9938473285895724 -0.27127966565043604 -0.13965743862504335
Ni 5.026602401789042 0.43958451179014324 1.477687359519471 -0.4530124361789747 -0.6292538445756389 0.15540210305380978
Ni 6.3832698922938995 5.927151980865298 0.5455894658753132 -0.8454620231732278 -0.11627865468978685 -1.4124352645420901
Ni 8.057319770274212 -0.015256636612624892 11.257663058112673 0.6292875260270516 0.4233167088867548 0.41627240044546376
Ni 0.32220046403273017 5.053637063723974 5.53974027733298 -0.18843023715337226 0.11757886155844911 1.18688755371113
Ni 7.459712888651691 6.450906527178508 2.5801772303324206 1.4335067405004085 -2.389444695638717 0.20056121608895136
P 8.754586866162418 1.7982730136611635 3.462788516077733 0.0330301909820915 1.4698333428455848 1.411605826662259
P 2.0865579263414378 3.6243349336070416 1.368506400612029 -0.42522755275622254 -0.94316008664735 0.9520183083689281
P 5.064505452185883 1.1402357112429096 8.120981628308286 0.16326967872734463 1.3855600374178008 0.23353124325706875
P 8.700290360259485 2.009425082474644 12.317606277772898 -0.7198415222572248 0.14007190045464266 0.9001748413350754
P 6.736674262932404 7.962902917331706 1.3825644248181943 -0.46245892630385516 0.6922785250372917 -2.23778277635363
P 2.1280141037354423 3.5011931844035864 5.792909208798074 -1.129768440100635 -0.5014008547846913 -0.06482779510866254
P 6.930769504703238 4.189127642373413 5.979762796082876 2.331461948476346 -0.7510511150908097 0.407793159329859
P 2.6548946748236495 9.054303578746605 10.145251693551637 -0.15076563272306293 -0.9177956397406322 -0.5188177647095581
