# total energy = -381166.03846750414 ev
CRYSTAL
PRIMVEC
9.28770915734406 0.00000000000000 0.00000000000000
0.00000000000000 9.28770915734406 0.00000000000000
0.00000000000000 0.00000000000000 13.59350116779781
PRIMCOORD
 96 1
Ni 9.162520273289717 6.012742265156252 4.92275063244608 0.7621636800642035 1.8110698973011323 0.967819537067243
Ni 5.991185491854614 7.901360801905464 7.540083770196527 0.8746430156125581 0.6022824581931175 0.6615741539748994
Ni 6.966729326628793 8.06214962542893 1.8834202058500638 -0.5247063622798511 2.2565945097434943 -0.6895205026761803
Ni 1.9401746111125886 8.179453393976836 6.019324464742151 1.5970255591240818 -0.5804257673293424 -0.5492786523025766
Ni 8.748882851591414 6.319886811940041 0.5869962309979136 -0.04093119099672306 -0.18302989207340736 -0.07581026226209524
Ni 2.0091451404266625 6.752703353357379 13.082480646938487 0.727200019504825 0.6001340443915472 0.0499364798191269
Ni 1.483655835543686 9.131824394029952 0.3176582337193582 -1.2516996650905088 -1.9600097896693665 -0.7912605974301599
Ni 8.568506249139405 0.631935741250954 0.7215277715394471 -0.1082814954169232 0.4955865620957594 0.5624025912790444
Ni 4.5589742781626175 4.5902924339459545 3.613152970712825 0.3627780280717494 0.2208312791918971 -0.2454295373565515
Ni 7.801099979935976 4.237248027766777 5.98384541518926 0.16910942533757328 -1.6660866755878017 0.5369371000180883
Ni 7.787734966243146 8.11830311589929 13.084669760022157 -2.2348866857527576 0.25532699897592154 0.42649356395283966
Ni 6.993375764630688 2.053382499856091 13.265055650183474 0.5460876561691046 0.494152143642078 -0.047902480108233635
Ni 3.806771989094812 6.333484018365547 7.385675602966999 0.9077135729142819 -1.0616429480773073 -1.0840863646824879
Ni 3.8480279938366806 2.2227531667792593 2.2597702609933954 -0.5510102902817027 -1.1503457500313543 0.2067506327291149
Ni 5.805886403469872 5.659995065674899 5.896996974230066 -0.7206645323791524 0.3937186835146639 -1.101100125631665
Ni 8.192511913262534 6.554800843442986 9.168191348592595 0.44428431227735743 0.06354327196928412 1.6622472472370533
Ni 1.3655811871232952 5.328265952355377 9.320357462795405 -0.1257428854264802 -0.03340300094047796 -1.8285264022146834
Ni 1.4997235726448641 7.5472390214466705 10.34571499766696 -2.6061017888482665 0.31632667858774555 1.566573927502444
Ni 9.06099632285447 7.621280640042388 2.804855703743294 -0.8231229933563953 -1.941737987943372 0.7448956370123753
Ni 1.2992297918338067 0.7666836854193416 7.547832506071391 0.7284603742744874 -1.102467695403153 -1.0166504425270169
Ni 1.7179011519765242 5.502122582873844 6.665192698724594 -1.2537894577400022 0.10498585538478693 3.300101410341723
Ni 0.3570334773265513 0.5696783682240081 9.546674790563754 -1.2139664122057932 -1.6917146605685511 0.6326960374879684
Ni 3.426969692402054 5.996962447043592 2.0150326193563948 -0.23631549087042528 -2.591612851203472 -0.14255070101243839
Ni 4.111668910226298 1.7686399079208797 6.221595913114575 -2.5930488123190507 -1.7776933787232159 -1.811774636677641
P 4.972713864663298 0.2653015588137162 2.1221087624153894 0.15918548135564198 -0.27035561117426987 -0.23665873314245695
Ni 5.6689484174468845 3.4879435040027666 8.782747697266743 -0.2724220067849954 -0.02698655589117288 -0.7165636228369014
P 3.8932034119061196 4.600388173962706 9.14727078337849 -0.13235242032319788 0.40108129452732216 -1.0790220627857032
Ni 3.39736976284052 8.196988589148527 11.69189323127692 -0.06002471729306436 1.1548932601927206 0.5454279110979188
P 8.68612579980375 7.226729460970051 11.471297132441705 1.450441568582534 -1.3542517142228225 -1.4962930796990102
P 6.60136941790848 6.367867118220206 0.9825207620056279 -1.320474103551745 -1.765122484036741 -2.2842914614381304
P 8.337223711975511 8.914696325849988 7.437779652179489 0.10208565101885644 -0.22770332372138202 0.19292863924435805
Ni 1.260054233976715 -0.0782953894583413 2.6521601901099836 0.4947512106786577 2.039818117347261 -0.04616158615772695
Ni 1.9588707699476586 5.231497309085333 4.658438214673563 1.225028840667542 -1.2580685447313302 -3.610637193279304
Ni 3.023353709046047 4.3999315439888775 12.962871668940574 0.876632278128445 -0.5929272422304627 0.5069433818694753
Ni 1.6327142822123597 2.71802026557713 6.614149305914967 0.5402723350389083 1.757157206443077 -0.32107859145043416
Ni 5.274759459037523 2.4262561654057975 4.308391881058697 -1.1481189175833648 -0.6172930726693369 -0.3918746883273896
Ni 9.202940384193953 5.031783695856068 2.6570668869368927 0.3260765588856578 1.3200195325128299 0.5117264050804153
Ni 2.9882647432840526 3.0931879953256756 4.683178814725654 -1.5502613063853494 -1.382385239234245 -2.6510161328624537
Ni 5.2511129511418 4.092471215088648 11.261318742886301 0.15023521414088964 0.284260137070504 -0.3458074616556818
Ni 2.721140935904295 0.5726207145324782 9.666895828605002 -0.009763764254983183 -0.5129304526908456 0.640619148989787
Ni 2.103740459718858 7.301867029264 3.727188394355584 0.3348597043949265 0.00032678721179943724 0.11643806308578657
Ni 4.858131394942354 7.543941884642672 3.2388016306123686 -0.9935146278405018 -0.6689892154920479 -0.18773912462361864
Ni 0.5400440741380379 3.528595807639678 4.371112710780065 -0.7401092713673254 -2.1253458640074365 0.2269484478332285
Ni 4.456763037238651 6.253024592638665 13.324268512099572 0.5817462859129787 0.0008145254814953714 -0.20999202248454804
Ni 5.478568952071193 1.1839600316241419 7.71397197892664 1.5614481762401045 -1.4338502398827564 2.2679245900443328
Ni 6.851589594349427 4.529838734066436 2.118315661934395 -0.8119206968826727 1.5420782563539248 2.3243973283200807
Ni 3.939604807604088 2.1332103613500935 11.317976555972033 1.195111227172503 -1.594535959933009 -0.2672592316371333
Ni 3.2243768892876052 7.494605572803679 9.099517097205418 -0.3686658543110941 -0.03376115561084508 -0.29929286303391034
Ni 8.278079579108287 4.160243629902114 12.974928973162971 1.0402156314414666 -0.44486383892991127 -0.9737770402022585
Ni 1.52903558321788 0.8278553252282945 4.874833482589202 -0.7836326485712568 1.5974760163979391 -0.0020828506709577033
Ni 3.6587537658685267 5.944041079412081 10.860215084897847 -0.2569128554058027 0.5259512904305458 0.8738061215335596
Ni 7.961201512970719 0.48734561152989686 3.0362580523572475 -1.1285561649600886 -0.27708187415450986 1.184022316348193
Ni 1.0701298663570682 4.649390128266646 0.5473191368382417 -0.18134427684086835 -0.11606936689245817 -0.567958488100267
Ni 0.9407520757100107 2.6493005044143465 9.051178285346 0.24580260442525406 1.8663948951256824 0.31245922521253927
Ni 2.62322061668018 3.841545172740367 10.785043152079464 0.05248470016227735 -0.11499027489566646 -2.2541743303377757
Ni 3.384877793822552 2.3494375217272756 8.432551831532033 -0.03510687100546212 1.514700121451288 0.37875023513028966
P 4.339394254725595 3.989619122222495 1.2197910853597689 -0.33734390426936095 0.8182564092927133 0.3430556099421576
Ni 7.450804735711682 2.5761783690400257 4.058475412712092 1.870101140332676 0.8132486716654769 0.38499724448126593
P 5.86907068988566 0.9305448831815746 11.932919504274826 -0.6726543230484608 -1.090336716467574 -0.790205159582452
Ni 1.4434957805000481 1.9798795684001818 1.0061514807955279 -0.5172054259171157 1.4667935275779964 0.28965971081952047
P 2.0039904617612554 0.9945093371791542 11.73908965489157 -0.3973547376053544 0.43346279618182115 -2.4643761548402847
P 3.768599503842881 8.9603639925127 7.530650243853367 -0.7245823793763198 0.290018636820836 0.2244187394328393
P 1.4473501798624693 7.018238962445633 1.4900652837364738 -3.07025764323857 -1.84744355083416 1.0465652278085782
Ni 9.469191146898847 0.09376871316386878 12.04044424369335 -0.758889637298622 -0.007150752112168329 -0.8194499153801823
Ni 5.170709251670762 8.448109673392254 13.697627924846037 0.26573816700691655 1.3703771590297755 0.15781405492941208
Ni 3.102289950446574 8.070638591735564 1.4995675391285057 3.694730007265166 3.407421570286641 -0.5296760475803007
Ni 3.3786364531682214 0.08404541029032932 3.7706604465381126 1.199765952335695 0.7004276365069873 0.17623986573476744
Ni 4.733898995251396 8.390488724851382 5.694861126413524 -1.060660786669696 -0.5361505995610508 -1.1827758455356017
Ni 7.694152007265418 8.885254287346672 10.497282054619465 -0.9071471588878506 -0.3662798705774208 0.009333618696100054
Ni 6.21385832249088 2.254062034853289 2.0425325978436075 -0.15548077881054512 -1.0141760128445954 -0.7247402451104228
Ni 6.379922564900744 1.395747666952559 9.828591132556832 -0.46696452748369255 0.9322601519053944 0.7262523108795751
Ni 0.8882765181252387 7.614444885992407 7.886079733782593 -1.0418552239274186 -0.5277957998384523 1.0684255182167792
Ni 5.679889339010577 7.589869607165981 11.486984073461295 0.3322464351417955 0.3172561323805504 0.5196266337640986
Ni 8.838100587194834 8.586580131450903 5.307718753055413 1.4886119090046683 -0.8243725494927802 -0.08505260679596965
Ni 6.788005936433437 8.077595086006536 4.144142457047431 1.0527646717510708 -2.207416505356947 0.7798482418281601
Ni 7.630094676174768 6.400392676213458 6.970761121238979 1.7447428919391241 0.3810935385514856 -0.35216297156006443
Ni 8.371708976632549 2.0739176251339546 10.907261976392654 -0.2796298373873442 0.24047399312348908 0.3551624205080206
Ni 6.819574860368062 0.30997079672592176 5.68117290043681 -0.3356215222616155 1.6207293304989248 1.2876292891075827
Ni 3.175532826041886 1.0938506759272466 13.304992800203744 3.480793141200257 0.32861732302964053 2.1283352856530633
Ni 4.948965191965198 8.695032713029201 9.62330210743055 1.4117341247100075 1.5627154729883022 0.05852782103256372
Ni 8.499554295243945 3.2115784258625055 1.5057661563200238 0.7292587018060667 -2.182963257410589 -0.6528115772909209
Ni 7.524047611306994 4.1962520788855056 10.006095046520176 0.7673845621435107 -0.30217352701581507 -0.05275697998705753
Ni 0.9756645749951715 3.032548541260016 12.033266701940871 -0.4952569466704826 -0.9325591712030521 1.1671941890472608
Ni 2.194685709253387 3.8253288322902765 2.3528043163510772 -0.007391921588696946 0.43814991724484537 1.0844391200362165
Ni 8.032196762913728 2.5804414276119574 7.988669913246288 -1.209557227394504 -0.15546869462568708 1.1379969986580145
Ni 1.021620160646402 5.481345977153998 11.584504092414276 -1.5563661337315067 -0.5455317836656347 0.39513896090095824
Ni 6.065412864636472 4.3972566837084495 13.555222264353995 -0.9820842745163733 -0.3414047046022959 -0.4982998472618644
Ni 8.82562719359548 1.7309225204249934 6.064577899569769 -0.11412252757873248 -0.5532294094202085 -1.11976504903102
P 0.19113548491328458 1.7888778265009184 2.837167644422484 1.6439556480167172 1.956917781007604 0.5952885433737877
Ni 7.070807397123476 5.702105539673014 11.745342140797069 0.20739957916702348 0.9519812844834055 -0.07817721983237505
P 6.306586812212361 2.4165505091799413 6.203489523820502 1.3237414614491074 1.2527409618708296 -0.13899332267848322
Ni 5.711894785282634 6.295042189543711 9.359982545782957 -0.2951186770515627 -0.8054867683318709 0.0034280518449424833
P 7.3578812040947525 5.4661327093090675 4.2022816597676345 -1.837727866208293 -0.31157270884252797 -0.9269839911081197
P 3.776484769044557 6.073000923140322 5.1311250346041595 0.9932577746346894 1.231731192388382 0.002434577583421614
P 8.695933620831985 4.5964966237630565 8.13962583892639 0.8704243495455204 1.0402979067426277 0.2580809075719749
Ni 3.9566106033452773 3.981678130764976 6.3879536471385405 0.7682286553113609 1.9346993359290359 2.141086157560829
