# total energy = -381178.47624792985 ev
CRYSTAL
PRIMVEC
9.15574348821178 0.00000000000000 0.00000000000000

0.00000000000000 9.15574348821178 0.00000000000000

0.00000000000000 0.00000000000000 13.40035607173195

PRIMCOORD
 96 1
Ni 6.309689874221363 1.5693310801276334 2.6889018194905603 0.6048908423502422 0.2798635506647051 0.07033252697697565
Ni 4.638940621970712 7.457536296618282 10.20765433355325 0.24374289368274799 0.5280567668093229 -0.737435324079588
Ni 5.268910717763471 0.2059254921447729 6.3704217528280624 1.3609615221428304 -0.013694209657640932 -0.10975242353549486
Ni 0.5823776248608579 6.324348219763384 10.449999542685559 1.083269268097831 -0.0958908350620542 -0.04315236701775794
Ni 3.620089471492293 2.637257016430679 2.382006786660345 0.5728397274519683 0.5066394774758113 -0.5969366205001719
Ni 8.035153850369024 2.9665982703294853 3.627208062159951 0.5728158161925683 0.18886423936699728 0.8441677298418364
Ni 7.107741111463465 4.063547913920602 1.815815600952352 0.3363655995164917 0.3386420542554942 -0.6171899714325694
Ni 5.515804500328183 6.105773152227696 12.048072333197645 0.9339115714658884 1.0986658051585594 0.21412147127188932
Ni 7.469878239023431 6.509935143021809 10.201396382786248 -1.4132629026497079 0.5301190486549903 -0.26969792298561296
Ni 2.93076268978516 1.7212065553625007 9.027445104168589 -0.7244715648300685 0.6217297682844517 0.4404338281830157
Ni 4.0050152449323875 4.992507973498616 10.379808865340909 -1.3494476079659599 0.23714544297088835 0.5721540142388533
Ni 5.554981927295266 8.321481420722291 3.7160123662921882 1.1330172860552359 0.1251016522980555 2.1442380729262487
Ni 5.02229160750748 1.6231760083803615 11.49666126442187 0.8053309594802969 -0.733768416750962 -2.1953965980779353
Ni 1.6172522422556352 2.8260392942138792 6.540593150546764 0.14785128728974536 -0.43977665421499096 0.7730281335825332
Ni 7.159031587245098 1.8662060671357459 10.10220671866131 -0.8313870331374004 0.6827914114824628 1.006699244851576
Ni 1.730179184114018 8.921393210197467 9.681636719718632 -0.48020930830874076 -1.3177420493325627 0.2980605332887061
Ni 0.8346925232253379 4.2120357640145905 4.440502696961644 0.2110765137979784 -0.8129095431585032 0.03569359674686757
Ni 3.5835031199708 3.5120150737546285 4.964805440015487 -0.9685263333262804 0.6274926389101579 0.7982293154385092
Ni 9.172132405084255 5.674262955228703 2.83063730866185 -0.8345551464527369 -2.2004827543515906 0.09278802776701439
Ni 1.1139610152445036 3.236711018724654 2.148787107198074 -2.5650466706791697 -1.9183309218733413 1.451826621855519
Ni 3.2186467365545073 4.235666738308128 8.07075321272785 0.35506600413947237 1.0469208113757842 -0.7039037679810458
Ni 8.752790191361555 7.7171840300512216 12.246090009574372 -1.051649327199705 -0.0576598166053136 -2.403563394428286
Ni 3.715144401796633 6.993449963805106 2.721652830007961 0.7899488205972718 -0.2819965378473079 -0.4967638702333122
Ni 1.7278170022590267 4.153951726463951 9.820304119201522 -0.41342901745939764 -0.09399413225997359 1.2268491817057323
P 5.623210528781295 7.125695524710123 0.7667331006018555 0.2555892514983727 0.11674093903818605 0.5886065033679218
Ni 7.426956112914131 3.2982376158779156 12.651759035768995 -0.1907804825531037 0.4642155039836457 -0.4243122400308047
P 5.580837747289435 2.8792890991310474 0.7917401831620794 0.10212987399323056 0.20473925872604098 0.7796903760940572
Ni 8.406776328323451 1.827687853709589 1.326554635470634 0.025225864446324298 0.546122108951466 -0.13235679119857205
P 4.628301647879628 2.978812032323898 9.311893915930213 1.1635727902445898 0.7817511152778278 0.6160291183552488
P 2.1526984408742456 1.3559839422012483 1.475928761547425 -1.6704354394748007 0.7595612094443499 0.699231559316357
P 7.379877279199537 5.086152919284861 4.462840880255473 -0.3521087212833613 -0.5750447055230871 0.03216630031989944
Ni 4.828913146425032 3.9018117028026897 12.469849059149967 0.505547015742581 0.4626371037529323 0.7952872020910497
Ni 8.477916456281909 4.307017448369939 9.909080956102887 0.5852337302409469 -0.5417142096917574 -0.3777305356165237
Ni 6.456721961079137 8.569757720574225 11.344487311944862 0.48829697041288156 0.3513494745198336 0.2637931274654038
Ni 1.8889855572722511 7.3249885961736725 6.543393892521345 -0.4015566915018439 -0.6056950834190923 1.0225218137061294
Ni 6.490955286489263 1.082190584869233 -0.10734560054519396 -0.6153200081033662 -0.4973297700391113 1.0380391926154382
Ni 0.26755097132917394 2.0177977143182693 10.254997768258578 1.392446480124989 -0.7209902911496873 0.7731523178652233
Ni 0.7763649428943008 2.745578619246191 12.592100210315028 0.10170975573667644 -0.6251660476595104 0.0008232672322437435
Ni 4.1353197881891175 6.4270573517373855 6.841163395681522 -0.7772843377557258 -0.442189891642174 0.5744371538460752
Ni 7.911120991494732 7.392210065861061 4.033654410988251 -0.07897529025363818 0.7083504908984898 -1.261581185870279
Ni 6.376627515856408 6.8294705954993145 5.859855371933303 -0.3163932701596229 0.2543430377960974 0.369329456037022
Ni 0.17419626261581023 8.936637523331422 0.5620125043180008 1.2011600044697444 1.1085177582519745 1.8317017146188714
Ni 8.051972951406308 8.600658355305217 6.131078712030063 0.11292079396114744 -0.6015460942477253 1.0942337375291349
Ni 2.5799786843189514 7.208985324457627 11.53617928505177 -0.12651498770581437 -0.38601308734029005 -0.5659543131860446
Ni 1.1648028595885607 6.747288640730315 13.587291088120313 0.9935117996270244 -0.22903592648987653 0.6642833253759464
Ni 3.8635590059416294 1.5716749504953769 0.08433447009500154 -0.6979740327601721 1.3474516605818536 0.8866171572552989
Ni 3.5952407832967643 6.576140325166934 0.11440010100748388 0.020767571564654558 -1.7065008177387901 0.5347231230859049
Ni 0.9030364870810282 5.221776949587133 7.7977344313064245 0.22141337694761223 -1.0918595808700033 0.26755696538321017
Ni 5.297925269307918 0.8362590709594039 8.793072716584057 0.7964280005637122 -0.24978755721493112 0.650728469509647
Ni 4.639013867919704 4.834479838548424 1.455559978707118 0.4140345122538805 -0.30669506903525245 0.3718445091493919
Ni 7.579060481739598 1.2986781428586491 7.679221570263041 -0.3908441901803463 0.17755729899461034 -0.2571779361417313
Ni 0.005486121579499183 4.711206906394923 0.3470393063239937 -0.6057891857947955 -1.3276551946812167 -0.6023313091531821
Ni 0.2678485329969539 0.10499989902872585 3.361104613897731 -1.6953728261464287 0.4288687490532356 -1.4964995392828613
Ni 7.232890971059884 8.620370671327683 1.6801906550757173 0.03360971763464534 -0.11170029129048505 0.5790419996079383
Ni 1.8514470084138623 2.038068530701799 4.060321429867505 -0.11555643181178162 -0.205865144800368 -0.15218411033714435
Ni 7.743946268664166 5.68980940790225 7.833754042297592 -1.2084002309719253 0.17502116283631794 -0.3278596189280095
P 9.271838453149588 2.615896666555893 8.233031443868303 -0.26317889092017255 0.7474618550776546 -0.6024405810375367
Ni 5.471463233957163 3.538539263033349 3.707195385182278 1.137786939529737 1.3157461019484566 -0.30445872350556596
P 2.0636863013617437 4.939258168581448 5.997503737150841 1.1849144891451595 1.2574347678020732 0.19194442095421782
Ni 1.3117433890100934 9.29848166709542 5.437797564651724 1.840640668979714 -2.3956431111399454 0.5105789217395336
P 8.291212532301357 0.9103775623187493 12.204227203002368 1.2034783681902756 0.3735920879681179 -0.9116581593843267
P 7.389811261031574 0.46208580283133177 4.348121243795512 -0.587962956246652 0.45984925659515 -0.5232241213073698
P 1.0578729298038962 7.342924697933084 2.341082443809802 0.743765380062674 2.153988210334477 -0.5857528359692106
Ni 4.91970150020059 0.016031707085619275 1.8267631236035655 -0.9962770210769873 0.022772517809825296 -1.6793494541349787
Ni 7.920862702710665 6.405889272478704 1.0484187089377566 -1.5763266360138335 1.3897455362540583 -1.0301970708632
Ni 4.256660858437954 1.3169896301066437 4.214063761227306 0.7479004852769701 -0.6289296284670007 0.13837317259598103
Ni 8.02619037736113 8.95633152786664 9.601543190070267 0.44346258770701047 -0.9780998359473282 -0.6330372228774711
Ni 4.643005772139767 5.685579454347964 4.60296862084639 -0.36376841700947676 0.12433006423935362 -0.47434127956373795
Ni 3.1232713552233276 2.8817245269350305 11.454196009919409 -2.4384324383913296 0.03503847966137191 -0.4995110939611462
Ni 6.242633207919208 4.225741912219714 10.471373626175781 -0.5909706327247242 -0.18508754593338447 0.8541117284284258
Ni 6.781805794192786 3.5963211610443957 8.309547824482772 -0.03006930858155466 -1.6093768816005833 -0.3017084144539385
Ni 4.569915470789397 2.601998247734665 7.035696396034955 -0.685484899154226 -1.320389257147423 0.7512370058493707
Ni 5.710840151006573 4.587915662754176 6.570033444169727 0.1974722927509825 -0.12384695395534799 -1.986028325220315
Ni 4.517260789207788 8.66104048450548 12.81729304934214 1.0804091729412169 -1.1752751662831822 -1.3828516373477022
Ni 1.7588641288880016 6.54262114775948 4.308013593276229 0.8854143951964493 0.7403157309511766 0.24121704193710075
Ni 2.5917346591321637 6.774407953344595 8.901548135892451 0.006007125426028364 -0.8547563039909603 0.05352908226639168
Ni 0.7641566743460627 0.3802206367917223 7.777727300339266 -0.22216336773975934 1.7795769688991738 -0.8993623727361091
Ni 6.179833962402211 6.243200864023895 2.8061282985547717 0.14076275587408016 -0.7740478330962992 -0.3334142301976516
Ni 3.4467071544846557 8.91029644892518 7.830967033938447 -0.9504098262312276 -1.0398057975975574 -0.8363896285583143
Ni 8.31144672571039 3.7879783423255313 6.173356273788233 -0.6376443826321793 0.2634246883823915 0.6713726281225599
Ni 1.5496187641051673 0.24475225413105828 11.929265572783931 -0.5594111127508882 0.8001080205184607 1.1517452014820422
Ni 9.25837951002231 7.367013459407821 8.108569180618046 -0.12279562987269821 0.5222486447679779 0.9525608111359595
Ni 8.959645907058526 1.5857107054709647 5.517704317130161 -2.2307721493637516 1.7488952235446011 -0.2693953041435296
Ni 5.351651172893534 5.632485297072404 8.565816172944094 0.7459605879417799 0.9061673114730845 0.9873272680828674
Ni 2.224387913450144 4.233689097685344 0.7229201206379413 2.937837602902231 1.4941012142540142 -3.2831046186734105
Ni 2.5006166985861427 8.848064859512872 3.447630053441955 0.8045022929314144 0.5901270537775063 -1.0291323770441116
Ni 3.7776872864921582 7.93081499602995 5.23698006187478 -0.655591196918587 0.6322543219648595 -0.7754107748820969
Ni 2.880827264059879 8.626358527657777 0.9948530308655603 -2.5838620036134596 -0.8266831999038278 -0.042550471767700916
P 2.110206634715274 5.044421039846681 12.053124472529367 0.04152948670235428 -0.4238517554546184 -0.7254701812979119
Ni 2.6712889154810764 4.91713789198587 2.870571000052277 0.18383259048036082 -0.5242533339028326 1.0027518301680538
P 7.741272791525958 5.765564030647204 12.213111936615094 0.01796866866327873 -1.2496330123694672 0.2595096695987014
Ni 8.963170868353766 6.161375983256232 5.664880149162831 -0.020135594407610487 -0.1423396134428968 1.0449045522767038
P 3.4634804768038188 9.219376042184082 10.923206827296962 0.9902827511667655 0.7042444391499161 -0.5242271086505875
P 6.485104766313528 8.104114911344972 7.807128224264646 0.5640370415586737 -0.14808680033931915 0.5123108168289758
P 3.1183089421791212 1.0591089551931359 6.017550237815583 0.48960411926007946 0.3772541102007374 0.626187032724857
Ni 6.297357087559839 2.310287100130487 5.580296642841257 1.4382925919248262 -0.5467947095384583 -0.9473268164305298
