# total energy = -381166.48897346103 ev
CRYSTAL
PRIMVEC
9.33459928375533 0.00000000000000 0.00000000000000

0.00000000000000 9.33459928375533 0.00000000000000

0.00000000000000 0.00000000000000 13.66212960752859

PRIMCOORD
 96 1
Ni 0.45752604373280475 4.562798747435704 6.2974902504076775 -0.48366898472256703 0.6843703259338084 0.0759493589431208
Ni 8.60703250716405 6.556958502784846 10.374775025418284 -0.41977167184797387 0.5274399591609303 -0.8488749055095187
Ni 1.4977084330762094 9.057706955105859 1.3499771996872976 -1.6442922054205293 -1.6197949916101135e-05 0.257419362728576
Ni 4.972718335400009 0.42890616267668247 12.309688079833567 0.24716091822536143 0.8840766502216324 1.8144987204770238
Ni 6.44196557560599 4.4411315818500885 2.0772451556440967 0.9844769431182658 -0.7152958118680713 1.032650674610015
Ni 2.4806883987040504 2.2132054594792674 8.513623973646666 -0.13334949412914454 0.05531779873569828 0.3514949989587624
Ni 8.709115683690388 8.11661133595513 4.495331998472485 -0.8326725847180434 0.1251633587739264 -1.7419977250938194
Ni 4.691952261555897 -0.014575043144497517 4.491193037200377 -0.15196016725179637 0.30769985615068296 0.9645395807643905
Ni 0.9812437301821664 2.386857007844252 10.271954415557492 2.0751425036801683 1.2697315828915552 0.7455417552368063
Ni 1.2025670765098442 6.449209224562138 4.911508568260637 0.6315362128519123 0.01937069121712793 -0.6930974213941612
Ni 7.764248886474859 1.019235548805264 12.113335719746345 -0.8233351093672013 -1.8050450312632915 0.4757888106435418
Ni 9.025623937757556 4.397473661530622 1.1590146371610022 0.4061520241820102 -1.188654930024198 0.7033412106093564
Ni 6.4876211001479 7.968853965688539 11.187985702476064 0.6259618040879283 -0.07618255799984944 -0.4542599354328306
Ni 5.115743063887257 3.8136224872262248 7.801062678682666 0.5599291900378873 -0.2117249460152547 0.07789285582273682
Ni 3.540874834069396 0.9549855027161285 6.850068650571756 -0.9349114734853124 -0.706413678887093 -1.8274506526520011
Ni 3.676674582798837 3.7476362056914145 9.802673311089535 0.8276324511909746 1.0170355937805773 0.6177065060576716
Ni 6.896924604566964 7.135022225603661 8.514102838584101 0.2201766763270337 -0.8590896412589915 -0.09257745441810508
Ni 9.293293568965746 8.651539876008012 11.49336244703266 -0.08731852001201092 -0.5325844794763472 -0.06415956539704433
Ni 5.465706521380762 9.030151218355151 7.426993552291795 0.568506133073621 0.16895387359631547 -0.42310510709658095
Ni 4.671780192748891 7.222916811391152 12.654137589597179 -0.412673884460928 -0.9119949738984552 -0.018744370487038687
Ni 6.021749924756852 2.275840619911942 10.247976630668758 -0.10018457734140164 -0.11792904580901625 -1.3955009506805967
Ni 2.359562639870312 4.940233930287384 7.985637574996729 0.3379020907656761 0.19365600432868585 1.2116477913749455
Ni 3.5273676690699802 8.020660991083673 8.342178191065623 -1.2892051182351345 2.3329855842097245 -1.3429344894377904
Ni 7.070557483733609 1.9132194459435194 7.646489184101928 -0.5317565842584132 0.16389677078838227 0.5050086267406076
P 1.8433313019555262 1.5091619862581604 4.41499937147285 0.22605498948468167 -0.284973875308077 0.20542831437326553
Ni 6.033035455153738 1.6022186053868241 3.2731594633252725 0.7477302782476928 0.7299649838444718 0.13148750121974132
P 3.130488516146577 5.60678965324059 5.8720378894240035 -0.7105968637305052 -0.13324562156142858 0.21950099041624777
Ni 8.55309719315809 6.849318148798463 6.364639622999107 0.028120412385299956 -0.121653545848455 0.5494930823062277
P 0.8836887677133377 7.465784412603869 2.6643475708395075 -0.7436918465122612 0.8795103710071884 1.3853078121976787
P 9.203392044356642 8.657430008084468 9.113323430422389 -0.6172308519728338 -0.0454056818283089 0.38900353742718163
P 6.0643623699692455 5.867813049839529 10.265614355801027 3.1034089331795585 1.3570051085982435 -1.7049902946315347
Ni 5.328282552395689 2.445823670803001 5.701206323468365 0.33649492600550435 -0.8022687756152055 0.19583758536103693
Ni 3.2040171538109856 1.0730215092245 2.7511154705071443 -0.03969474748646067 -1.4419898382707554 -1.5008043373058024
Ni 8.559183351817122 0.03861070254808831 6.791075850735329 -0.3174602779715565 -0.6075845871323213 0.9690138144856604
Ni 1.597037902847311 6.999091792485836 7.2782532487325735 -0.3348095678832815 0.5533769907416662 -0.4979175242217812
Ni 9.308602311605028 5.690408992608086 8.281231659622852 -0.7681821183441415 -1.2248558054247873 1.211610767489423
Ni 4.998248464130763 4.74283516163317 5.19497047434513 -0.8438093180611532 -0.6494251773171912 0.48117964264181
Ni 8.372491368411236 0.16580581776235248 2.2722439988516276 0.972160844755074 -0.5379778825777768 -0.15931300807244175
Ni 5.0412249587107985 4.890219147932948 11.658400960743213 1.1097745134772112 -1.3925696359664148 -0.11081043248636399
Ni 4.806366443586193 4.71996539366595 0.3997719452062769 0.6915611872552928 0.4375709048129238 1.0243390694205263
Ni 3.1353798461118116 4.914265075395625 12.652743933941052 -3.6475903734648853 1.778657799519014 0.6346531612143392
Ni 3.9241254722041687 2.8159965355001924 12.419108251307756 -0.19166134249616024 0.5202902354900265 0.1888801802065973
Ni 3.3240134261451186 5.507170810895208 3.4903326468618374 0.9773207916894588 0.2043492223764739 0.24362410871669654
Ni 1.741136110239144 3.1737263795033805 2.0393457495527847 0.5266992243401639 -0.027496405648055874 0.28294476069319013
Ni 2.1657016843016397 8.40309951909063 12.650967559718946 0.2427707595774658 1.096445400468473 -0.5083199505020277
Ni 7.788416163726751 2.907662299352482 5.695727847215319 -0.07888890118741897 0.7647730926625926 -0.3573103200889588
Ni 8.073252122809112 6.7044078312788145 2.2536233404267247 0.23511581413536928 -0.1595832310146929 0.16780561892448517
Ni 1.6949765173420386 4.782413862115218 10.619012945789201 0.6472939899068013 -0.5666158580294435 -2.334604864980702
Ni 0.2506927956971748 5.051212979823013 12.263756251156217 -1.3676597600986122 0.011869240633760204 0.9178912847782321
Ni 3.786253442458922 1.4986885659890903 10.370362560390484 0.9584308967634915 0.28678136083046096 0.24470705736823015
Ni 1.7831231373071277 3.712043379055082 4.506644599206965 -0.8115504580274475 0.2755926912034931 -0.0964906734295822
Ni 6.484297982843276 8.365425076839323 0.039548829764702885 1.2241682924394595 0.1610932399013161 0.5124208600442788
Ni 6.31731133828588 7.638250466874227 5.642431953252523 -0.0030372441644270273 -0.7152063374780586 0.31898005705019256
Ni 1.3705711923768011 0.15449415048778986 7.71697194205707 0.5635670439007907 -0.3717380654785146 2.002936156719247
Ni 6.140691387384742 6.043042145464293 3.817089357358072 0.8661306072661729 0.3950093773016293 0.1404994749103645
Ni 4.885103787587626 2.5237022316807662 1.3877851267067407 -0.6026490975039169 -0.44465146580878906 -0.6200660074287837
P 4.762101774320659 1.7253139646454951 8.372139454022516 1.161607696098419 0.20290477662046344 0.400945026059774
Ni 0.287525257103322 1.784850038153632 0.6522887215813271 -1.0624996396506474 0.11555103249514294 0.07060172147796227
P 7.997352496955449 2.96627424754276 3.2942537905303033 -0.4533034850568322 0.28128357094068335 -0.2941529707041837
Ni 2.8042069367481104 8.316633126976194 3.6088923243836617 -0.9830911185143327 -1.4413460340391695 -0.4169285459722239
P 6.561756486758377 6.201711662160956 0.6830872980837962 -0.6363773429942976 -0.06442413191234066 -0.10685581871399015
P 2.513536853184316 1.3090935222412428 12.191824763409848 -0.8361780267681406 -2.1004200473000343 -2.7258581176740084
P 1.8502575745398844 6.529197404852391 11.797535961756202 -0.3964137138483237 0.060030373720019195 0.38992373524860585
Ni 7.771053809270004 4.328462969864637 10.205787976258694 -0.04298395976069371 -0.5591907692099659 0.14391544257044891
Ni 8.343656791574197 1.7637631786279375 9.829109829399727 -1.1116938419871112 0.44505101524005286 -0.33184508593831885
Ni 3.4249577815726813 7.764052859892283 5.954338249928738 0.997441987919366 0.2904467254971901 -0.35910006499952996
Ni 0.9862657445357847 6.59642518807685 0.49123981555615664 0.4889194344882289 0.13100541937700017 -0.27842758954912694
Ni 1.5261136183514148 7.177606667018543 9.738816251625469 0.42600762545535664 0.029898330221329154 -0.24612039277598907
Ni 6.449507931735588 8.553227877546474 3.088119703972528 1.416497864647238 0.6301359900702761 1.0086681956524888
Ni 8.36852416376386 4.935137239140404 4.389205073585575 -0.017278584574789597 0.2068161958597277 -0.7641066627231872
Ni 6.789091314951724 5.273581801257763 6.523516367797349 1.5715243295291839 -0.5739064781535859 -0.21380908223779305
Ni 4.188322632521008 6.660497876781751 9.740756914792975 -0.260078654728294 -4.602766253626189 1.0979345834194898
Ni 1.3477854358021124 3.110148424554506 12.633671480916307 -0.01005249913999559 -0.3947144717690299 0.1965127570511906
Ni 7.254094372619935 1.8018016702468866 0.9578446904419897 -0.687962671270757 0.6486739009734634 -0.007011141210510506
Ni 3.4813107567637473 8.172544254183531 0.8858030544254093 1.5217855675431597 0.7279885768443913 0.30111371829273303
Ni 4.936817466991057 6.166342865904711 7.468799488135875 -1.2980980498493901 0.7971520232139303 -0.49247244194680984
Ni 1.107755552737165 2.3684771820779424 6.672392956504456 -0.940387408998219 -1.667559403478586 -1.3299622455478384
Ni 4.857249343663468 7.3282857668254335 2.4791304541025285 -1.7583525123027588 -1.4516916389395516 -0.6722527167346681
Ni 7.960219461456018 6.548267990957302 12.53613798802557 -1.1301857301437117 1.1239693169203546 1.8477415416905534
Ni 2.5555238802522995 1.678967679764984 0.5117068576969439 1.6719127953512753 -0.5360495552068123 1.057161772377502
Ni 7.01765831023555 0.023090064507639976 9.213767451334423 0.1460124343087937 -0.22464088274597438 0.27785269088226344
Ni 1.104899165391055 5.327899833829706 2.6377196932463263 -1.868595502321427 1.0234823778471858 2.1423336568146847
Ni 3.82489868302394 2.7913905320872963 3.824002561503592 1.1268936896560011 1.9356092493378148 1.2398206542647356
Ni 2.021202089145484 0.17670302883375405 10.115822976375233 -1.3602403277060897 -0.7076002429960265 0.41541313776896205
Ni 7.354852036064091 4.289276322547741 13.47857872291674 -1.243500674219484 -0.13679888613032568 -2.027571438769424
Ni 8.959787009809471 1.2931033538625287 4.447009578947623 0.7602798327779293 0.055548683799581756 -0.31356582801315674
Ni 1.3093455564188408 8.892699245572565 5.617922096211082 0.49785607485622646 0.8875602378948585 -1.784675980688636
Ni 6.901358539172854 0.5164152295184404 5.345868003772606 -0.6554765257175936 0.5913539842060719 -0.28582773866794003
P 8.807997092701317 9.12281578431866 0.11147938405115669 0.08167083480793032 0.10173212433417964 -0.6408772877471801
Ni 6.066229289803305 2.5748184967372985 12.44947836970831 1.3305613125844182 0.7018641118431977 1.4166171638339218
P 2.6682018268369223 5.157636744963539 1.3934829660402885 1.9917138056408663 -0.630331908131166 -2.03823560335149
Ni 3.136957393371591 3.412486757081168 6.511589550437464 1.422282589649815 0.15204604209738332 -1.3372214982134132
P 9.229099530471633 3.331705135861441 8.126221305800946 -0.7200855199472309 0.16210702587781115 1.0322351843391513
P 8.495773419653313 2.918770472365132 11.962410186521357 0.5278788464705618 1.6666073239779622 -0.6056287489575312
P 5.328263883197348 0.3043060660317601 1.393032104900363 -0.5374402649067518 0.39066626984158526 0.4699824883744099
Ni 4.261935281577949 8.5277350872124 10.690014707458209 -1.1483379755727061 1.1821412972753964 -0.6939618262769854
