# total energy = -340893.6375033842 ev
CRYSTAL
PRIMVEC
9.08245050653370 0.00000000000000 0.00000000000000
0.00000000000000 9.08245050653370 0.00000000000000
0.00000000000000 0.00000000000000 13.29308438448320
PRIMCOORD
 96 1
Ni 6.354227663773902 2.0635327454052375 11.231805100260521 0.28337413492112484 -0.6294870436323674 0.9032341969866895
Ni 4.564067594882539 0.20217534732711523 5.791065781532597 0.35896173964945277 0.290702550261738 0.5861444149806744
Ni 2.6496777685455206 1.3552832582278587 4.835850842565225 0.2898476584606105 0.7794996002394898 -0.5900550628889902
Ni 3.6355323541529656 4.534059178549709 5.021488864087614 -0.625091228557517 -0.529016816729747 0.8618566624811672
Ni 5.181338175762716 4.377305165992715 2.900564114200794 0.8297240436126808 -0.7184973495245045 -0.9445459112512828
Ni 7.402950971492681 6.182060732779617 2.304688153633454 -0.5997468362554574 0.10782178217168527 0.9976728729832495
Ni 5.106934741562188 4.635028780357236 11.354513547253468 -0.5045741103063504 0.3592671867050135 0.30998119598569196
Ni 5.406283226402907 8.083181098988831 12.111820982366726 1.3821543541703616 -0.665814417308492 0.248483750801843
Ni 1.990500761224764 6.368913986174079 0.5468007559755786 -0.8746730975195453 0.6586186708910012 -0.878315836478455
Ni 2.745815506706236 1.6025257247570022 0.451862809521149 0.3748534711790448 0.21359208113098052 0.051027398890460506
Ni 0.4233012275472236 0.027560695932800142 4.730955805667187 0.5617914400576066 0.41317344980516585 -0.09783716015514764
Ni 8.68832660849966 2.182785319996658 1.2243506523398224 0.2765753668317366 1.0341766243362382 0.47257724568477966
Ni 6.693684249863342 0.8444871523813975 4.708197909539715 1.140223831106004 -0.7415318627464648 -0.1625970781403522
Ni 0.5480196208278382 7.440770295224492 2.5025829420569186 0.8591292362476753 0.7395163749783329 -0.563085733388998
Ni 7.578142358491456 3.8908582015950084 3.595939227845549 0.6276466479895191 0.14542776544991728 0.48847129120721683
Ni 7.405003605297529 3.8953176847727984 12.479441339099772 1.3191268454952316 -0.17191552732780072 1.2857328434158177
Ni 8.12989214172483 -0.18960160290484848 6.90715271609731 -0.6908345935019135 -0.20726099670663012 -0.27220166324407313
Ni 6.936022193141963 0.7089206802666631 0.44628346020115583 -1.1500243621361934 -0.25804388368645237 -1.0372460072901815
Ni 1.7537576074319254 6.223304140336329 9.476666052113032 0.9793835877557585 0.9341553120455783 -0.0785788261461679
Ni 9.173184144066179 4.804634460320693 1.5740077385453035 0.10279681815326812 -1.0715159842166448 -0.9461117130765061
Ni 6.548528526548789 1.7040856858446845 7.000337749612201 -0.6942379627565076 1.034441962182483 -0.5460079519711049
Ni 3.6834695277015963 4.52925456225429 0.7373051544565419 -0.5904222164204219 -0.08976800999376798 -0.40363002909110485
Ni 6.069084131458772 5.69968270618975 4.83534585831943 1.4917270575948827 -0.5970937149033265 0.35312379281143697
Ni 5.468216456116457 3.0521756433051097 9.073021972104895 -0.0893319508976139 -0.18572415107611884 0.2583441885356905
P 0.17446024973642826 5.556752183238861 12.688780923352835 0.035941965312247776 -0.022429275537793628 -0.31167683852056
P 3.911130231030503 6.306145171017849 12.517073564352026 0.16450946467171668 -0.3383366071999334 0.3104406521206137
P 2.324689526045124 8.46981193278793 1.6380008680240723 0.6673089995761475 -0.4472536793183265 -1.2758081281029383
P 6.548192475881623 7.776285097812585 5.6289567561820695 -1.004188048393948 0.8120322827598724 0.38734311900562324
P 4.8288573557079975 1.0568975131363172 12.716244437065672 -0.65480932444724 -0.30341974071809036 -0.5428745485484457
P 4.189262111587477 6.179299667838581 8.173824862863913 -0.9542582534430404 -0.6668958232981289 -1.10970020859585
P 4.723210291911546 1.1180042398576482 3.6620985217599658 -0.5987291936242205 -0.0702898466644983 0.5206255073422582
P 0.21305067351262683 5.730817346380108 3.6149478884215114 -0.47278061994483744 -1.7872393705404381 0.6967854117687096
Ni 1.4552174606824972 1.0668064665924666 2.62789623584292 -0.3742088956165104 0.7566607479681033 0.330911775490772
Ni 1.8668431981583369 6.3127935247574465 4.95918416215009 0.5108810263609846 1.2503012420810855 -0.2602223793950099
Ni 6.122625176943649 5.548786874181992 8.993436091669649 -0.12255060374142765 1.6891499851651683 2.1475455400329273
Ni 8.784591500966869 2.318704191189393 10.118975132432176 -0.027799795821087606 0.1938858609513048 0.7548087823610291
Ni 2.2390692655216413 5.328555615332581 7.089879812246008 1.380557699107203 -0.4341577653663168 0.5480350097034626
Ni 0.45840489859031885 9.164010869097607 9.2147527033495 0.11480592679900227 -0.9878821121450727 -0.038629025226107665
Ni 1.5975667068036956 0.9825939858908936 11.43888497083816 -0.3744726908008583 0.4171764003169719 -0.07193483846708901
Ni 4.0558681616237156 6.977919537132078 1.5416923797946354 0.6800992093622803 0.14032695388824218 0.37744077229024675
Ni 5.613898961557918 8.054780276388117 7.844421641192999 0.30977525062247296 0.1663478034320361 0.6267369916910561
Ni 5.017054811771123 2.6325028547182265 5.144902109236561 0.5458714263932406 0.6727713082422995 0.006576624776253189
Ni 0.7743960656611454 7.3791186214753255 7.227994819960922 0.7539983706445917 0.82829091071058 -0.10741631920315049
Ni 5.46945166937955 4.488892152392578 7.101311892644959 -0.42903021433176436 0.45612372811444674 -1.401842062407276
Ni 8.424499587423377 6.856287360519107 9.63519931671591 -0.23017646785222295 1.1342820117002723 -0.9852840124005934
Ni 4.447158292510813 0.6486522637231529 10.438168771536583 0.026669024650754065 -1.0508206606508226 -0.11238549028296775
Ni 8.540346243090823 7.0577179469081806 5.173960501250865 -0.4445295955189441 0.24876348682579094 -1.3938307620670252
Ni 7.360363361267305 6.263076190917885 7.062190145516621 -0.09823439559356631 0.21632953466680163 0.603181058747987
Ni 2.291629406356413 5.299410031793826 2.7115501458409614 0.35258977468483793 0.02791266724986806 0.3388958221375131
Ni 2.211004493588093 5.114064465176375 11.592221257285576 1.017886628926963 0.4331671193182734 0.4718545085861422
Ni 0.9601058385421991 3.4739283130482326 3.9367200352126304 0.04298884485670016 -0.1501843062982962 -0.6982005469486815
Ni 3.294858719701359 3.0092610648630327 2.9387158556195843 0.4399892844464293 -1.2457141369310352 0.23618899259488998
Ni 1.271452240445771 3.3043862102380235 8.206963999871661 -1.0444785204828786 0.2652558280538593 -0.18949338831056398
Ni 3.711379897977258 3.0404501997561737 7.309601545624393 -1.279996455152673 -1.2866270730953133 -0.5338121812358613
Ni 4.317996764463243 6.930381991403861 6.019042554137649 -0.6685760392140292 -0.8258185379106875 0.01804708730969795
Ni 0.8709597707486186 7.440588646215214 11.62847113357722 0.6643990250182042 -0.4391881287013726 -0.07476382327545188
P 0.2642529880030407 5.56793267975996 8.129465266553026 -0.6453453508208628 -1.4667788722899773 0.005580065190938777
P 8.512908160239286 1.6208177799913603 8.033927878367978 0.8653068258132968 0.5131029737129679 0.21507380788282962
P 1.8226843240027018 3.255913172112021 10.435509430040744 -0.4221782244069374 -0.9028482744021806 0.46851078892488984
P 4.286762217317782 6.0553151365554525 3.7336019295273593 -1.723488096325406 2.1241988948871864 -0.8494222933725565
P 6.9515168536334295 3.989420954029593 10.345249853820286 0.6095460817340664 0.36248363675978224 -0.20354549552825593
P 6.449112023770595 7.8061118651361365 10.036889761629256 -0.43786401057331037 -0.21638609893634989 0.10034604261993041
P 2.446339867559022 8.288726035438065 5.956604340178306 -0.8144668603432941 0.61598386693961 -2.226105340015702
P 6.814862303953117 4.152024064685358 1.3742792033731714 0.8742743194192297 -0.3950975661400615 1.0517506286642595
Ni 5.328192317314024 2.9200532364062974 0.3499786049519045 0.10820359099113623 -0.0524312212165226 0.11586856373556173
Ni 1.474617574873455 1.0936814375152397 6.858048447664064 0.7861518154486847 -1.156363416980344 1.5913279945186722
Ni 6.802782644836087 0.8166957622068136 9.184670719167913 0.10672417823213233 -1.0755014512269543 0.8537615441778587
Ni 2.537227949351585 1.4877689631452278 9.226689767994246 0.6290851802082585 0.28415806427500095 -0.4247470135753782
Ni 6.406560743347075 2.002825646504319 2.4817923046999324 0.09165365705225505 0.5378408427792801 0.14548278705756879
Ni 4.056204212290881 6.932807005677731 10.177584185275926 0.8160604300826592 0.08686729140720523 0.7294751886922469
Ni 8.169818593964274 7.3387380467126855 0.1468632240017724 0.25948884366309505 -0.016383583564345976 0.24797055861085038
Ni 7.805766732018507 3.9718464123818853 8.168933055044041 0.2877360114342464 -0.7178676863603056 -0.15077925956981772
Ni 3.115988940264692 8.517140582155477 12.69557368805481 -0.2748804956278169 -0.6013627745923256 -0.01207570021761146
Ni -0.03338981264055138 4.78748679384479 10.5891381713931 0.08097149474806055 -0.9283137656631366 -0.22928635193778577
Ni 8.889076011103937 2.2804489098353136 5.975267867636639 -1.4989364308591282 1.3625712898321114 -1.2934366398179789
Ni 3.7746845777108606 2.735897470799623 11.697741166775533 -1.1564973714550468 -0.05169382882986582 -0.4852764384190029
Ni 1.0419750470240778 3.244069656707054 12.622448154634558 -0.7962814476835189 -0.21635498858809835 0.03585274803255115
Ni 3.0346283490087935 8.459893896881319 7.933392417692627 1.000147302665671 -0.18961011639408634 1.6824576607466575
Ni 5.6696652074064575 7.805666825063405 3.419047606119926 0.5044391273903829 0.2823433796637654 0.4573365174756253
Ni 3.301588815495132 8.292231861317143 3.616210349035998 -0.7485725716433301 -0.1383916845387423 0.6089968940988157
Ni 3.421831377187121 4.26233950802027 9.445015528736324 0.3510196019842406 0.8717821491249954 -0.2311951389247244
Ni 7.101440863441547 6.106630981676666 11.504592866964519 0.1426481458222511 0.7808221757056553 -0.7102230253308542
Ni 0.7023540685812406 0.1236993423385615 0.26747544142764357 -0.3621810179176988 -0.523678435235969 0.27126089659735864
Ni 4.629061610402433 0.4225165038271399 1.6412305874090463 -0.2889871102325281 -0.6612825908764095 -0.7084877878073024
Ni 5.92651690652644 5.830488157771293 0.27745069677217954 -0.5274677270750722 0.35922579194411686 -0.01800337855595609
Ni 8.026134227624876 8.744774038132993 11.329177143439285 -0.631413571231119 0.7474723966006158 -0.007393978471225976
Ni 9.079653069188613 4.9167300639465354 5.972489546039722 -0.18653739100603356 -1.806914223261546 -0.48036074628494047
Ni 7.8174467633151234 8.894561811184152 2.5664425595138667 0.3338837136349024 0.11195688738598139 0.41201465361037426
P 8.505106335290769 1.6524247076058418 3.536133108030653 -0.1979176078185172 0.6893163570851741 0.4163400204586055
P 1.753457886566616 3.2111821035771584 1.4901549228821025 -0.3539591442285388 0.7443806450491697 0.1909853994750582
P 4.7399038358642525 1.1972577026059146 8.22707617817899 -0.8926361097558692 -0.9229581577781782 -0.5213801261200957
P 8.35480994501363 1.5689479053918476 12.38266782940658 1.1577700675198836 0.6596933920124186 -0.8900899462952477
P 6.3667251156122715 7.868953339896079 1.235348591606597 -1.028521740043306 -0.8711452868719448 0.37259989925817766
P 1.8917563597809008 3.2499550846076817 5.906741687131322 0.3847411626064019 -0.0734078234681897 0.6489541512180436
P 7.008327581285322 3.665095730413063 5.904349369679123 0.3406673122156391 0.30262475562062074 -1.0002403766001096
P 2.405169119606021 8.348497641941197 10.212331824260835 -0.730219265947123 1.0507026470157195 0.2561224982940234
