# total energy = -381169.8398144273 ev
CRYSTAL
PRIMVEC
9.23796892336960 0.00000000000000 0.00000000000000
0.00000000000000 9.23796892336960 0.00000000000000
0.00000000000000 0.00000000000000 13.52070130755728
PRIMCOORD
 96 1
Ni 6.818960454899314 2.326582433758127 11.56935309608568 -0.6399524619400656 3.640629625876336 -0.6798773231594614
Ni 8.289007662627583 6.097031671761216 6.127636138486637 0.2578057995337173 0.14268105594271557 1.124302274779741
Ni 8.923249646237263 8.889678867741027 0.9949911305064777 -0.09544449155325498 0.24003613425512207 0.10335500464958329
Ni 7.984570401938685 6.473053952419111 10.077952323554424 -0.17264109263991556 -0.22219344964674637 0.17147252625311113
Ni 6.516804972495658 5.336876173868736 11.62028571308104 -1.2082608771805836 0.2776063791994122 -0.7286825175876225
Ni 3.081684762735516 4.430649913845687 6.898518765710385 -0.4524215966725112 1.3719750996445146 -0.4725669612721345
Ni 0.9591321071468631 2.6033057881485364 0.7416444560788432 -0.6012918121450741 -0.9713170086975401 0.6987934433376739
Ni 3.8238169835652127 5.615742737012895 11.236026859471236 -1.2074221833293723 -0.8041881041251053 0.9089525875277056
Ni 9.0142621145215 8.912607506218643 4.351543339707281 0.36941121711755087 -0.26959610730042605 0.3710847481652319
Ni 4.954645978199979 5.430539939188861 4.332086329891989 -0.7906263062802706 -1.4584526118124688 0.1889097478929521
Ni 3.340865214438982 6.6612313761858495 13.320824860509457 -0.005506531640526001 0.6121022724970168 1.2923359505546324
Ni 5.524009707164898 8.917134110914063 0.9176702557305708 0.8707809615539907 0.015438188931941155 0.38051709722272536
Ni 8.281386338395498 2.5693839668391862 9.598886967888118 1.4867254906152332 0.12371274237032888 1.4904191374167364
Ni 3.3540016060244655 8.769326610655456 2.335146954601236 0.3390601156295193 -0.642002916711191 0.5219177437911205
Ni 3.327571777384474 4.592711599910483 2.4124179443458056 0.4448815795417242 -1.0993810860580293 -0.5102619047197471
Ni 0.7825086109159648 4.688121341327414 6.492113729577458 1.5201210353565433 -1.403771675329821 1.401311900935419
Ni 6.741222947732053 9.088516907463918 4.669184429153656 -1.8993677505072772 0.30846501645148167 0.05039799283657771
Ni 1.358535686751916 5.564000873953616 12.21983358119252 0.28509523137728965 1.3753165053129217 -0.43395799065068486
Ni 6.493340531829604 3.8781454778790163 9.296888530953488 -0.9820991869147085 1.5226911100765645 0.12014687939594147
Ni 8.860191271439435 1.0798076931392493 7.863747932242917 0.2992974910196007 -0.8860828820183837 -0.5414262461376934
Ni 6.248109412963045 4.5280273426098105 6.805347384125496 -0.7829235383193742 0.18563724778926738 -0.7504371356558946
Ni 1.3897877350878451 6.753675729628841 5.428453082044585 0.1037499260951568 -0.4331133832622025 -0.1748275587682731
Ni 4.659797729090358 4.7130915709023515 13.347108729242946 0.41612224802084463 -0.40464715750170954 0.4542064564870758
Ni 1.8016810484647505 1.4320976320368712 12.281839751347883 0.9490566546374429 -1.0454036034003094 1.7199335462049283
P 2.0779240284793197 0.3298370558114633 0.9502876758501388 -1.437480894656808 1.0344332204317346 -1.3121349875584305
Ni 0.5857805232592661 2.2578981359817054 5.359700423299294 1.6623454633778145 -1.3163834784221393 -0.06870913244093972
P 6.207037403828683 1.488957329792604 6.632701757245308 0.9636170689501212 0.24720951207510977 -1.5688642661985175
Ni 6.650931041011578 6.650663139917358 7.945697029370671 0.10900346118461227 -0.5602755176337125 1.0993672021009584
P 2.0878548449029446 7.258752433950032 10.967640771892288 0.9042700944503718 -0.3533204822032754 0.01732332176979597
P 7.306919203096804 0.06731707839902906 2.5438659257164145 -0.20398104040377776 0.6161957258401001 -0.5926431353311405
P 0.9516770663525697 8.547171937766771 6.557810468254901 -0.7172385374167389 1.1215277973583975 0.5479985000385723
Ni 3.0277812149849552 6.732862585998675 3.624332286028691 -0.3070514239334067 -0.4092286062248049 -0.5235051428828985
Ni 5.378511699097832 7.487382922943797 2.979205203821841 1.3601020023560124 0.3809305306110601 -0.6097265731759887
Ni 7.876837210187692 7.948108139218639 12.36219345126972 -0.1019072164594632 -0.6679749152949206 -0.15697458974725223
Ni 6.38638332945497 6.475298778829289 0.3178258488216983 -0.8938162461068992 1.1919752526466825 -0.368381747411772
Ni 2.5959338890731383 3.722670463544495 12.976384423672444 1.5076031053951908 -0.37819590528871644 1.5581306818310972
Ni 3.210711472492513 0.08209598083113646 10.574770283798665 -2.8883181560158646 -1.539852966567832 0.7454862194085226
Ni 1.3722263564633697 8.000930844623559 13.083765648813445 -0.18641603493682088 0.19244912850477824 -0.8481066598849264
Ni 7.97639479958063 3.088058961184168 6.384678000420737 -1.0119095854079219 -1.5365357292691408 1.6306494178261142
Ni 3.384874897640982 7.434393934101086 9.115710716120871 0.6455312415794238 -0.1516647474985646 0.6956826656228341
Ni 8.884727316482364 4.311618686293678 4.743521440018092 -1.7724007628657088 0.4856117102712347 -4.036139596963468
Ni 1.168612286888373 0.8823488821531469 2.9795839605412535 -0.6198623760584099 0.42787681745361145 -1.9932122445632638
Ni 8.366015370262316 3.4023438965777966 2.3807520350091527 0.2453002108675388 0.18020219281662514 -1.1483767992304417
Ni 5.188458967671562 0.7882389229416157 3.1871398713887715 -0.0643426279421279 -0.2423940929643374 -0.2920037855716649
Ni 7.9494938345335635 8.418320749416331 6.370643678271182 0.26584152535400024 0.07335974383907366 0.8455137023467696
Ni 3.440893940238994 5.140079725243167 8.99664715567818 0.6428295263775445 -0.4469217499002045 -0.27764828818094117
Ni 4.893231961842528 2.227532932647328 0.2862532429695833 0.433982159020401 -0.12963065051666062 -0.4850555806574484
Ni 6.317264847146539 0.40169644345281463 12.305162851091813 -1.0514459529396474 -1.1561070779951637 0.36630995248440784
Ni 3.1579441949001903 2.0855545906801702 2.090990211502181 0.6751835172282178 -0.05773617836920379 -0.34446765979833577
Ni 2.0265332082331557 1.3799400603831158 7.136145188688641 0.6493537006493075 0.6121223271016748 -1.4233809649203164
Ni 4.030618152364535 0.7294780512138067 8.329278739869917 0.21366201513696753 -0.2232568579142542 0.32713148251273333
Ni 5.541367850476518 8.388620679833117 9.862878553725002 1.5430200514419037 0.3363560864347949 -1.2043183475930677
Ni 4.535814950279686 2.9451475843716284 4.109738583456091 -0.40579644061480435 0.5672293232437262 1.0038021258094387
Ni 7.562071900418225 1.5003200313749843 0.6492407496984222 -1.1048505938130326 1.1999299887173849 0.5163870437808783
Ni 0.8490903470012073 3.110959885755486 8.214083116949618 0.37010747185362713 0.34857911086354804 0.24103912159833973
Ni 4.404681983644004 8.127223115625771 4.9595143877397465 0.6083908850837005 -0.6512997686320848 0.0597264693263552
P 4.639270962491944 6.041751666664497 1.7027562599322952 0.2585748164892579 -0.044682173398723046 -1.146588082761135
Ni 3.0999205130799212 2.817626663523516 9.373483301384374 0.04138910446974808 -0.3443509317148134 0.46422553128597466
P 0.9046558053328005 5.6755770607113325 3.5849868532567264 0.5253059435370631 -0.110192596396707 -1.2578361170055499
Ni 1.0630592557661958 1.4546197998887764 10.192404289989048 -0.06802727588256671 0.07539322932933468 -1.723997688971973
P 5.333402697612659 6.260081820483991 9.94144655428434 1.2671586799580563 0.06565517610596436 -0.8913526150577553
P 8.523716735069485 5.131950312728944 8.175008356662502 -0.2194768220465317 0.04176448553129582 0.32237545588498673
P 6.640649181774838 3.8698682578645345 4.383154745028214 0.36710493758187746 0.4195217606206968 -0.03183025713671937
Ni 6.018213322248314 2.8479549149828283 2.47438254364172 0.7401074715951125 0.6293762290861161 -1.9084961951711068
Ni 8.650147575603189 1.0770917303219973 12.015765927351104 0.542397351801711 -0.5623403705825413 0.08594889335799391
Ni 1.3101656822922874 3.2168270078157133 3.2403708950131556 -1.1253870232034875 0.2546623688087291 -1.8729470944219033
Ni 8.752384175938314 6.37557490599856 0.32452245238028976 0.04434278778143331 -0.10627577784080407 0.4573164628709672
Ni 1.4708786249172232 3.4163024673834683 11.168924101947582 -0.09138060589652648 -0.3981489513718756 -1.2017413308945109
Ni 1.4591094527091317 6.353191307678147 7.89676535641006 1.3155298721725923 0.6096810646500338 -0.5109447897193845
Ni 3.0751442808490723 8.064894540360472 6.836133838835611 0.5166415829938457 -0.31717617107223445 0.16598322100376575
Ni 1.3645218905123897 5.068614798868132 1.218248816865843 0.022263953604522945 0.24650425847796903 0.831820264020077
Ni 8.622821663992879 4.382981995012287 11.269369460138947 -1.3130281887966613 -0.4628278796074996 -0.08836547321928652
Ni 0.3493467220487227 8.4989497408074 10.719428560504888 0.6590537015458908 -0.9489283565896947 0.019341637751405398
Ni 7.096829317416728 5.401292530075189 2.143463721687739 -0.907198066730444 -1.219024543454991 1.422106469083267
Ni 0.9911324309528514 5.041399742883016 9.681038376531852 -0.09180560924908705 0.8699828911327275 0.15923536075697092
Ni 1.128113031817515 7.370310144770214 2.123237189074225 0.9591572334065546 0.03659168308110472 0.19723909369425385
Ni 7.782083364553159 1.8970168861315517 4.049192936162659 -0.2827143898499389 -0.08460137819116398 0.006209214134505435
Ni 6.54573829067128 6.790101040473822 5.00169957211043 0.1624852351528363 0.7160105785469087 0.5943593466912989
Ni 4.421144043985306 2.843465262162473 7.306194946345538 1.4857304736918153 -0.8220690981705842 0.7887869390786867
Ni 2.5598411451037397 4.279719980144118 4.623998752527723 0.6545828102587308 1.4566818930652912 1.7140153809482803
Ni 3.714106866498262 0.042528836808784144 12.90586084631468 0.12604524715824741 -0.10695223508253839 0.4334959634126018
Ni 8.946436947840333 7.717759388034368 8.331631650514659 -0.5115531127273448 0.8883742491557217 0.7603482241220195
Ni 5.624149288590103 8.567024332645255 7.222434283542738 -0.46240673290968104 0.5524951023573452 -0.6933596739166124
Ni 4.351277286206816 1.0688329862450476 5.760143274390541 -1.0251368827314733 -0.5630533374891658 -0.6784927841071089
Ni 6.94519729808893 4.157584795086678 0.03320680252684916 1.3659101243973573 -1.6800552219527518 0.8755827538180082
Ni 8.136636605798492 7.277228371482358 2.831748746376349 -0.5571238593786083 0.2897913513013783 0.2258747551530755
Ni 6.568759308836559 1.4874145890086548 8.61748673703042 -0.9381171249068037 -1.12220502593108 1.3069799257200523
Ni 2.1004369583624585 8.923055648893174 4.614047612572813 1.2545286498988717 -0.10737929531762798 1.2745328609349404
P 7.7449652060507175 0.0012720682991006315 9.998234195883697 -0.7805532383149848 0.48235797922062734 -0.2363895386414703
Ni 1.7694682513771405 9.06828575586602 8.701855258178034 -0.8798361297777235 -1.0371225943384397 0.09845576757575303
P 4.792722861666676 6.148727344976663 6.796775472907374 -0.938052075996823 0.6720773674990683 -0.9772943093268976
Ni 5.289189779097803 7.522376348630022 12.041401290677205 -0.3834373561933138 -0.26508227859047245 0.22204715387686919
P 4.873240997432552 3.3918957539032664 10.974455621451087 -0.2703910923978956 0.5981095577623505 0.20097413525665386
P 9.2208785239455 4.258158561043894 13.275083981960679 -0.7840440250770626 -0.6410040431330316 0.8857362973122423
P 2.7228358660139182 1.8608132865369593 4.412535180892118 -0.926103131165063 0.11803086149420317 0.03351612947957454
Ni 4.877804554003036 1.2670058922167742 10.53261281333428 1.7099872336254938 2.549059037001662 0.5662101379505927
