# total energy = -381165.6384651955 ev
CRYSTAL
PRIMVEC
9.29520439580685 0.00000000000000 0.00000000000000

0.00000000000000 9.29520439580685 0.00000000000000

0.00000000000000 0.00000000000000 13.60447120691904

PRIMCOORD
 96 1
Ni 3.1803077686353873 4.553888034004038 2.4345469990989184 0.8218875782873976 0.39947152683804105 -0.10407054265936916
Ni 7.878327244748649 6.838890993370864 2.531112090846635 0.3233648163814496 -0.6932863974765157 -1.1048935312358261
Ni 5.811408375073982 3.6593175458967453 10.642152218244458 -0.568584294609724 -1.1305063467079242 0.6043514249070043
Ni 8.347279610662001 2.5806741216299693 2.7752441323137624 -0.38810390843104775 0.7868691532306836 -1.3120334289835598
Ni 5.3205100311637334 3.2384864540579095 3.0785011110289457 -0.6155295530110109 -0.9640305023384558 0.41667349253862435
Ni 5.560177585874439 0.7247573252832765 11.000765858273796 -0.9958527890553751 -0.5585685622449348 1.7431817180995914
Ni 2.275382422633752 0.07828700147533305 2.343206741841696 0.15341926829582608 0.33811369255585 0.01658695782440369
Ni 0.1811607485667571 7.937221660923295 3.907598966685269 1.2667722431529151 -0.8745995639691325 0.6812484924753751
Ni 4.258105329286019 7.996831807850062 1.639297630895242 -2.1126710967532456 -1.1369919544322677 0.7066710463135378
Ni 7.569140855036338 6.338111846999497 8.781292232105836 1.420961042624914 0.521257227388986 0.6133559423984598
Ni 2.591242769229491 7.025603767629086 3.1799229471660646 1.2137398980172838 0.5999311843521217 2.4675388688389823
Ni 4.254080505705902 0.4909429608921993 0.15353911865757558 -0.4419983444566582 -0.38568141503248415 -0.46600936265927484
Ni 6.585791868052146 7.735153208710447 4.3029714227190645 0.08841612395156385 0.2958686678437098 -0.20233784837339994
Ni 2.1453146250435053 8.11643320509109 5.410158561188666 0.1079109994513819 0.5224422488360229 -0.8933583326338743
Ni 4.473196363105666 7.184523880213981 5.655446926104677 0.9558129995246699 -1.0915407640780042 -1.495107029810709
Ni 8.07948476691334 4.382177719926669 11.554019223021225 -1.016968230877752 0.5428159273963684 -0.2401001547238381
Ni 1.0173601405168662 4.593476310280524 12.118999417857973 0.11431895986025474 -2.02405185565194 0.5672429500904811
Ni 9.224626084695492 6.507033599704961 12.578068192748836 -0.2074653994079524 2.291654329561105 -1.2159885848421446
Ni 8.247384047115773 0.26809043125408266 5.252904149263254 0.729365659697576 -1.120400882842806 -0.035127696941068536
Ni 2.32797469010789 1.271602575998066 6.201449101764694 0.589584551010475 -0.11158073499348527 -1.3806428026218418
Ni 2.7998829310754623 6.589361226608185 7.172222606482049 -0.8169526028796253 -0.4227603221626526 -0.5764387576571363
Ni 6.145180580881926 4.784399812210322 4.652512013564678 1.5068109485111985 -0.05342006749235316 0.3706885411680777
Ni 5.515672146378828 0.5292643007853823 3.37593557359959 -1.4658039099712175 -0.4773641255504618 -1.0631655553694206
Ni 5.22131160796048 4.8617545046669814 6.802753097031883 -1.2090568907193178 -1.1180511516637066 -1.7186621356916723
P 7.597026468755393 1.2652725416838404 11.056027708501306 1.0038077822363938 -0.18186261123818356 -1.4895056244635314
Ni 7.578073546631008 2.0952134723949363 8.787835126604783 -2.8718772368510215 -1.5253642860333536 -0.29319189234249504
P 0.783992875465751 3.290372285984499 0.43434167168571824 -1.9779869429730772 2.703751515582956 -3.8518313523982695
Ni 0.4198392935108949 5.407587507603769 7.5816903107303695 1.0648822809502112 0.03436150819900534 0.4746351566550729
P 3.2000693735576244 0.8405207325561053 4.2378473604395825 -0.4408053525898215 -0.3069179836793359 -0.4743381942399444
P 0.5168942425396094 8.018405977664038 1.7583236549732002 0.11868700702096335 -0.15056534378679876 -0.5244669925755354
P 6.996751452634437 6.241664804349858 11.010343637065834 -0.573072926508697 -1.7728393930650241 -0.24184079156402868
Ni 5.378474926881075 4.562569755075238 12.694849424922408 -0.2279241814829365 -0.15774617780595415 -0.7540747324084819
Ni 1.7856087984768385 6.175008892356742 1.4476658343769797 -1.5950596936469625 -0.43678491857651874 -2.423187853527433
Ni 7.521651654872787 8.122949143496776 11.586601703611027 -0.4438721644406033 1.62405890909279 0.02932651687825917
Ni 2.7433123160440727 4.005331536127356 0.1439706350701104 1.137862529962679 -0.2286147797920579 -0.4068333665197509
Ni 8.98282063293299 7.108470516397545 6.220140828640577 -0.6259173240032382 0.995250379584686 -0.15824188649545004
Ni 8.358182885626153 0.19071250078599083 7.604001590266987 0.848551717842145 -1.5712139973776167 -0.987906280514789
Ni 8.943817954544604 5.069065452259012 0.6860009698160762 -0.9821788911127084 -0.19616103013872668 0.27375255267096077
Ni 4.518036429965907 2.451256988359834 1.0207064141631528 0.3919880739768023 1.5579998126801877 -0.048176045484594456
Ni 5.075376896164091 6.04464364822016 3.0128323497614855 -1.0894365732508078 1.3841158487721066 0.7166415272626883
Ni 9.228427823365855 1.4564656045462563 0.7200985687512796 -2.698311832624624 -0.979868754922293 1.7284454403306813
Ni 7.136318949298309 3.4447935195560535 0.07578101432244728 0.8949454746153361 -0.27521679592131315 0.48910172570236415
Ni 2.4289392021800165 8.229713863222464 0.14309967440161858 -1.5472263762137675 -0.6036613408185152 0.06393690786327698
Ni 1.939686109479192 1.3097315051565874 13.39971036481714 2.3873024524847337 0.3250833417344531 -0.36838894650062365
Ni 7.932983047637998 2.432796712077819 6.318106707717447 -0.5447087735437071 -0.1496330617805165 0.7630178005343826
Ni 6.281894449741882 8.347744370890654 1.3260594615095516 1.8109261726344166 1.331583068980713 0.5387281304802399
Ni 3.7686570372891612 6.199715546111826 13.222580016953243 -1.0162853458781143 0.6796328112488231 -0.03734141676293569
Ni 1.993784200094159 2.716997591897857 9.81185806975959 0.22002652390241462 -0.04064528432518806 0.6051867763241061
Ni 2.614973426504407 7.376683644351991 9.317688743360094 -0.46797882768081983 0.13107663893456778 1.1791467334234467
Ni 5.496245168821219 6.727506556972385 7.976465085110121 -0.6050168264051451 2.319665984282682 0.41913378115365885
Ni 4.720132767792473 8.639297757527949 9.479201288500404 -1.7313762408242308 -2.2612551484439574 -0.12627793199434378
Ni 0.5190051834981418 5.541187482931764 9.991572484494785 1.0275724887561593 -0.9103150150928709 0.6422129758394682
Ni 9.0242958357378 3.4647782093880433 9.266753810861326 1.786185732464943 2.0170348009041588 0.744885095489414
Ni 0.025789545087839608 2.2066072039979887 12.040433560245448 -0.25742219094205343 1.3975516625620383 -0.5359325700129738
Ni 7.776340260173492 4.768811754141371 6.724200252705763 -1.0542469127235523 0.2294352188108242 -0.46913890942719205
Ni 9.285175047284133 7.610820552341752 9.763045232464838 -0.2303729001337452 2.484091630991341 -0.19931551660730837
P 5.753666564266391 2.7174623521265087 7.188534760987239 0.8553178329213851 -0.2084478179258797 0.5189527476255256
Ni 6.909376529648063 1.908417041295558 4.362954307349209 0.16342754446144758 1.632542778194085 -0.34423703184476845
P 2.1695472233653645 6.3501863177398485 11.572222022136568 -0.04755383851956326 1.6627912926659811 -0.4199994715880638
Ni 0.2658428507883268 0.8393467482185331 9.815925651280741 -0.8202281883071035 -0.03159500119746172 -0.09866145582865589
P 6.700922271893552 7.603914215343999 6.439621987580059 0.684863206409827 0.822866654371215 0.11354865735313348
P 1.8728349981900434 1.1436169042321753 11.246666777171168 1.321870983899272 -0.7450046517864137 0.19298108974884828
P 3.4980364513503033 5.278830333858318 4.738532625244763 1.1187849445059377 0.5826633984106094 -0.48401788342155344
Ni 1.353855841264706 5.4695679316966554 4.947851337024565 -0.3401078401677433 2.0609752110408506 0.5564947104350416
Ni 8.106598878652836 0.038932964354087655 2.7784686387801427 -1.1651123668175678 1.2021845890795166 -1.0022111271732352
Ni 0.635271461338371 1.8619503136350388 7.587839088555421 -0.15415691779279903 0.716490860617437 0.6243710625620409
Ni 6.735556204132619 4.7274480937914385 2.1073734590173587 2.166413323471708 0.06670495752671739 -0.3096891186665699
Ni 0.26660784612468624 9.156157607810638 12.218515737057624 2.1768309192606057 -0.4037686115514981 -2.4891464198064295
Ni 2.2155213051835134 3.3509956102097247 4.064675840203335 2.2213567695871226 -1.499930162230965 0.05542527084784003
Ni 0.7649628031434104 3.3024932327477146 5.607532005571682 -2.609238277594719 -1.1128174140685934 1.6672123045518124
Ni 5.050818965682176 1.5156481720626647 9.040701871809176 0.9293797450338057 1.035023802827882 -1.2665357016620769
Ni 4.5485990626019905 2.150027293762026 5.381303457632645 -0.6126128935848482 1.258404330804194 -0.4939037750766977
Ni 6.547607167666186 1.2381584299443456 12.943116902904073 0.33128072879441656 -0.5439994061815083 1.0810488634077446
Ni 4.222253725247887 8.907687494369283 7.17279426156329 -0.015611738395327953 0.03235193396814428 0.05504526180060198
Ni 0.5938511002405436 1.290239461166968 3.8696828977114692 1.420964899279656 -0.22945347364326935 0.8545488159658444
Ni 3.9249744925936123 5.320575097595744 8.85660569763826 -0.6047208924312811 -1.7263772449477428 0.34996030748179086
Ni 6.427011183535845 4.412554448471293 8.695556053685685 -0.019529071171863144 -0.8478881161162173 -0.2669553272434693
Ni 2.577978512303794 0.5524484000314048 8.476483883747415 0.3693687939153896 0.29582675886218085 2.5544017893708135
Ni 4.0102301089373364 2.3355409866303276 11.97050666576309 -0.2922513828060967 -0.6140984769914393 0.18594629438925392
Ni 2.8137513762984057 3.986601698912724 6.4708036808407075 -0.7051947188783275 2.339234136222597 -2.378707768837187
Ni 3.211521065591583 4.444074487178399 11.313709369674523 1.0252718656474407 0.09547971566656459 -0.7834935518902314
Ni 5.183266335643116 8.01536644576866 12.744587135072173 0.9549863898583164 0.3770743900897635 -0.770748336409421
Ni 3.578653760612092 2.7327715540582695 7.915271964844568 0.5065615730500244 -1.1225726936831442 1.424632063718598
Ni 0.3651202832304501 4.599276517934087 2.8841755642254228 0.041321227346290124 0.4136383052567263 -0.1731342302262502
Ni 6.063763884026859 0.5671831583205537 5.988702318538363 0.2629492914078697 -1.3465792852792293 1.3959961451494602
Ni 6.903864473336263 9.087856444608098 9.278398843150402 1.0963988635012536 -0.661291589737474 0.573015076687568
Ni 1.6447957444001824 2.5786105862147592 1.9700907236375351 2.2789147705072494 -1.4792055280891039 3.3341790687517223
Ni 6.790844080932932 6.586135790621348 13.52122564467975 1.0495770180517086 -1.6068764837762326 -0.08853953690330559
P 6.741811876810259 1.6386794997911365 1.4237762291038651 -0.13939570032322443 -0.2062351265452771 1.634853428605133
Ni 8.363304543345885 8.730102611001765 0.23072649743192053 -1.7893067945924281 -2.2147217807691084 2.4457055750139753
P 8.539457965209158 4.624838330509888 4.721812411258818 -0.8583599621818185 -0.0761362781429463 -0.22564232742729526
Ni 3.2733899472295938 8.638721454844422 11.54985590089297 -0.758019833099159 0.10470843335368418 -0.8837256946401167
P 2.0015921719354948 4.3575082469898785 8.489299182292235 -0.056705166001528154 0.6235179705331262 0.04069156418209121
P 1.3707173423601615 8.701770827463205 7.270433878959647 -1.5886129095803545 -0.6226247692948954 0.1929155266182355
P 4.937203680186172 5.085741049263006 1.0709218978279702 -0.5016222267668781 -0.4242885858817209 0.6175057029007752
Ni 4.7311475852115 6.3166027436175325 10.76974842093874 0.9374612364903596 0.7998167145302871 0.3521526871474193
