# total energy = -340886.5062643148 ev
CRYSTAL
PRIMVEC
9.10930647259468 0.00000000000000 0.00000000000000

0.00000000000000 9.10930647259468 0.00000000000000

0.00000000000000 0.00000000000000 13.33239080545665

PRIMCOORD
 96 1
Ni 6.479813877469088 2.4524894008731764 11.293694151559162 0.42266724822821405 -1.0156775370907865 0.3497394497202364
Ni 4.617625737438479 0.3897371114243206 5.869024876035783 1.3642216809513408 0.6342124741324947 -0.19163691701612803
Ni 2.849372763017089 1.986685027965169 4.706400481081287 -0.3121162400508237 0.1500837761646899 0.599817798702709
Ni 3.6943337881896894 4.6789586961319305 4.987794237268374 -1.2932420073086695 0.6014316801570481 -0.3177515839597302
Ni 3.8430523213293415 3.10782199872934 2.7583653284228826 -0.5530131796443444 0.3027818500237753 -1.0192552271397157
Ni 5.260715427752092 5.138878457230051 2.2189368099559745 -1.195313572991296 -1.2133367490415943 1.352807011356496
Ni 5.858422554541158 2.9910133652337034 0.4019545129094916 -0.7161543032136247 0.8972615243430225 -0.5216878871685016
Ni 5.813276832978 8.132087165259703 12.126542532267976 0.7991299728759076 -0.5389325331815622 0.027591022244391195
Ni 2.1378904016994023 6.8339928121133875 0.19258257531944953 1.7698689975827904 -1.361154869100559 -0.43119199786977347
Ni 0.46421570990546185 0.11913423937034888 0.5332833804994933 0.288057142219091 0.8669991259140551 -0.6997159551519432
Ni 8.19797477705678 0.17599361778541664 6.769454288565603 -0.3033446645057808 -0.45470885004479106 -0.6755205888526623
Ni 8.809865093610544 2.5491482490383635 1.0220814641358547 -0.17479027777243447 -0.6544293154000019 0.20488606871655038
Ni 6.958553465191398 0.9814821973007378 4.458284842330547 -0.4314532219509602 -0.5892035135219723 1.5852828167658568
Ni 1.1357391886144017 7.532795019190574 2.1971509932307027 -0.30380823440576066 -0.5048204219892015 0.9743997613879218
Ni 8.228463624932465 4.0858335503651135 3.4011325492967583 -0.01329157490258356 -0.8042822065008083 0.8738014935478692
Ni 7.784977052232234 4.266425545923953 12.60088232509218 1.1495186261443686 0.14878228374444696 -0.6453260675471532
Ni 8.590276158178444 8.07656594392648 8.818869642796416 -0.3117046064347019 -1.909954267773872 0.46038764559712325
Ni 7.1175290771204205 0.6280684443778484 0.38283863383356603 -0.30547302370269325 0.6443513623387096 -0.2502171885531819
Ni 1.9878510191596976 6.929093968917134 9.483316101512939 -0.6169444310806665 0.22905649531516678 -0.6995866286629305
Ni 0.37947001239812295 5.17140778969616 1.126009538654432 0.06342782943734238 -0.5867938756392153 0.8574598189650523
Ni 6.725409882122902 2.1671403839308994 6.768921394152478 0.33929202913466733 0.471744208260523 -1.032298433476919
Ni 3.812663675821937 4.516712843274504 0.32823654149665615 0.06423772693314744 -0.9207205266969111 -0.8866811777240149
Ni 6.20140615185674 5.7054499754027175 4.5430524021727825 -0.30403037771889574 1.1226991919586793 0.3901124542206442
Ni 6.205751290917601 3.242348232798088 8.830295445572176 -0.4062751800234358 -0.9731052109462145 0.19698789691539623
P 0.5824481279612924 5.873015663085182 12.423668060274991 -0.6111633056225151 -0.8967272491061072 -1.7398292566875908
P 4.2232474345015625 6.271912181900897 12.548338935958109 -1.002526858641441 2.144093062707953 -0.7660365327560484
P 2.5910328389793245 8.780751750972156 0.9513258391016187 0.04283483577733913 1.2546782881028584 0.5339502494756223
P 6.476744041277244 7.982084219944827 5.832227833611574 -0.04761965876049218 0.1197362742210841 -0.18270541885445307
P 5.174304549070067 1.1938110156856552 12.72082000527001 0.5054151181504071 -0.19713367846464114 -1.2459092836609769
P 3.929025953313418 6.217566061068411 7.865310201812778 -0.6215855293971037 0.330057912130909 2.322963938307664
P 4.892745003510008 1.442895884616848 3.7103379282652162 0.07816564986814925 -0.3963124123837691 0.40850715467774806
P 0.23721179922065613 6.06555906838794 3.648208816209251 0.6184091885516511 -0.762246469585997 -1.729219085271912
Ni 1.0352088853111305 -0.06125917331317214 4.1406141851036855 -0.4688864270967538 -0.7658005054858424 2.358571917319261
Ni 2.057090855641046 6.578977784841271 4.793221278542639 0.3022082369084924 1.437622819551311 -1.0922835557812995
Ni 5.967670463884772 5.490005774294919 9.158845347202362 0.0492214560299733 2.416036330084317 0.0563117872178514
Ni 8.68567792208703 2.5807119950465034 10.424835772482448 1.1237772555142067 0.5081636274298216 -0.5443555039693464
Ni 2.1177497256751603 5.4187163439169375 6.875966673255179 0.8414472455868799 0.5875428379900978 1.1929386450012165
Ni 0.890118588833828 0.7187679844222494 9.352245027288603 -0.0808658224081317 0.23765760672061653 0.29650912964118614
Ni 1.8168420137308912 1.2302300219022624 11.812151225275725 -1.1659384622632887 0.9979893757824038 -0.9346175963939775
Ni 4.270397203430316 7.43818576492202 1.3870084691740945 0.7551083158793189 -0.2918898857016199 -0.035002998437746166
Ni 5.587356929731858 7.717968995771662 7.853964560931641 0.06906934399383588 0.9865937323509525 0.3944964422209528
Ni 5.44582563918973 3.405514125582448 4.676322462915551 1.1592026862013518 -1.9298263241074505 -0.39470495868733313
Ni 0.7406348739727661 7.512763654840819 6.763842045011312 0.5243968014592324 1.6630843984263681 -1.3949831305039135
Ni 5.2238591748375365 4.8838998671827625 6.89020634071836 1.514534285297385 -0.7305275412161613 -0.29725037868258486
Ni 0.9577797825494593 7.931354493676621 11.813164180125973 0.44468514726020186 0.3265478420951215 -1.8582624958265352
Ni 4.734607447752054 0.5695721236373368 10.253354904992104 1.4067364143850998 -0.0026875741344921456 -0.16636271583037154
Ni 8.228718685506268 7.486829460068763 4.623806401700102 -0.7493423599298191 0.7961145830883516 1.37621253476463
Ni 7.342711126563774 6.301991110997254 7.347107277739396 1.3646088890874304 -0.039404727049867624 -1.3558949062532004
Ni 2.732135992129711 5.353885411639901 2.1401686391818364 -0.5870597277060922 0.19185237546104378 1.324552130275861
Ni 2.6695368398734516 5.258866238592019 11.250257335840484 0.40639293654822267 1.214165929811109 0.5823222130211068
Ni 1.4865658985744306 4.303955887497845 4.013716084052893 0.807582474518635 -1.4817239236355837 -0.2773358991468449
Ni 1.6916163812997507 1.1261015426471253 2.2920116643505777 0.5659034053434512 1.1998806235366883 0.14279701269528955
Ni 1.451531506901326 3.253252072328173 8.465401234036284 -0.5266179774802673 0.8298024622590999 0.5238296161018527
Ni 4.175851714305212 2.775815115393501 6.85876830313588 -0.6867493676889463 0.6407081091591675 -1.176114374355026
Ni 4.296622896001004 6.9423297908362755 5.833947670623504 0.2731964230571746 1.0128639789013911 -0.5538624150185171
Ni 8.288703466881046 7.405665541762117 0.03276799628873929 -0.9553106059669548 -0.8283719004601603 0.8775635316934628
P 0.4203234288764222 6.052168388263275 8.14574383712562 -1.4418944503434716 -1.5344251106840412 1.2613140482518213
P 8.651636444790517 1.965105081560181 7.98787500590078 0.9067414388089996 -0.6660167631272852 -0.2288911733818961
P 2.476902341508621 3.2568593575862463 10.483645453356488 -2.33631310592106 -0.5730189333423099 -0.5546825969269673
P 4.106183740432122 6.600912994188342 3.5401760883136846 -0.8533429685832012 -1.2847028594894068 0.17754675747164905
P 7.22164844706935 4.339910319097883 10.450127761166893 1.1485670608643768 0.5406741984630172 -0.4969829282226538
P 6.417569988154912 7.805035744500611 9.886620613602345 0.6125943816420869 0.6229482140725853 0.277257994721058
P 2.573734266491746 8.772079691462848 5.736367871600763 -1.0723796177685208 -0.26589680407196786 -0.24731415597377404
P 7.435708033633645 4.195491378488055 1.406114328013192 -1.9716774558152819 0.4945136407465548 0.21593307055933134
Ni 3.1528675179242183 2.114989605894362 0.27519396238242844 -0.22973038145373983 -0.7191768920900324 0.8495356790219691
Ni 1.6266397001233976 1.3304779367131085 6.962280993291407 -0.04600654863710141 -0.9858527404198699 -0.3756481991661982
Ni 7.292855893691466 0.8745717359299051 9.279263998747934 -2.242080375287719 0.30202131770866697 -1.5901095487305388
Ni 3.177608393583124 1.696225690240622 8.765700444325907 -0.07265423313161681 -0.40491378089953495 1.5551188915879668
Ni 6.667729755218561 2.2311332600368687 2.4492264473897376 0.6969373639655416 0.2180146356787084 0.5228091452571384
Ni 4.253399238047577 7.262503685408891 10.16541457379788 0.35498090062483384 -0.8529254214298084 0.1570247262588973
Ni 7.734356637638515 6.682368410293621 11.164770140807875 0.28614372724646203 -1.5302146721471195 -0.372598613706597
Ni 8.291363384293565 4.036934794644567 7.810567826160277 -0.17298690601510852 1.1206068282060249 -0.0010178997415530857
Ni 3.5914441745787387 8.869567486492896 12.331114776417415 -0.6760872599894098 -0.9955897652019757 0.6003834413981918
Ni 0.4672163153701318 4.925811785042346 10.127657410499427 -0.6328114800199102 0.26830129974840244 0.4458462574478386
Ni 8.986576524725093 2.1934389509512457 5.523862332675425 -0.06978668177583465 1.3118357111504568 -0.8511593306683213
Ni 4.18717458192083 2.7563667466410107 11.536450785468174 -0.2855572586153728 -0.028416346359163965 0.037635550964586796
Ni 1.4041722239298051 3.6056546922620574 12.543779728201377 -0.6524243691548312 0.16773594202881434 0.0995078629893512
Ni 3.3103400943290433 8.557364234851631 7.759344375495638 -0.5179489889513597 -0.4189144660540011 0.8598411747130353
Ni 5.7560794993026425 8.009967806245236 3.5726935786817244 0.239620129763626 0.524399886783026 0.14995676366852237
Ni 3.339298578761908 8.86653408752588 3.6093712891946175 1.1517282322011777 -0.6694808104164858 -0.5795742179623244
Ni 3.9769409039635826 4.101109856874681 9.170764874374555 -0.33996668660418866 0.7191514381687356 -0.46923044069973385
Ni 5.318823692048174 4.8371144705023 11.400940746329043 -0.14077998226526078 -0.40362925776015646 -0.19265507386799724
Ni 8.120682313888219 8.765721395730184 2.646639687790894 0.09770397701139302 -0.24530818128733878 -0.6520718709114189
Ni 4.82742216869778 0.8654824701963056 1.5194523158438642 -0.38910432467110406 -1.0905552602362831 0.575854345908576
Ni 6.031289858436244 5.828953948960686 0.1931409757899543 1.5274013710680405 0.9157747526558615 -0.01120666734909683
Ni 8.079972824447994 9.13763614956001 11.181489361420672 -0.2922536967989418 -1.6415321261768892 0.09360898100641298
Ni 0.04042619001717894 5.225006947419651 5.710836308163067 -0.5099202051096122 0.00014449599766426727 0.4554449568798672
Ni 7.303996575182939 6.151168328123727 2.4099097708686017 1.8650563788199168 0.9648026046177899 0.025015033987098853
P 8.860257775549082 1.4677733998688625 3.4029726291506237 -0.8445857912158616 2.0739878212504346 -0.05717002145308864
P 1.68959411532174 3.1222238118430106 1.5133199309051397 1.9457072570037648 2.4076594188745313 0.12715622083423905
P 5.184534299940815 1.3511014059663349 8.034018196493632 0.0548431730921249 -1.3763439181361714 1.1373393104693574
P 8.57428932578471 1.599803684036823 12.322528344386454 1.467808341995756 1.5115970570459323 1.5312937641439113
P 6.577319891111551 7.948279584609702 1.4325786844065105 -1.3394385604693901 -0.6768043406610925 -0.9652857149017958
P 2.045093899366091 3.4168278838918593 6.3493777218873975 0.269426157381465 -1.2583109997594393 -2.087569416589611
P 7.297665607368897 4.1567312805761825 5.481252641960367 0.1298270827981829 -1.093504572672594 1.7506332892816303
P 2.6507898876989198 8.949182822744309 10.255954700983656 0.005949275604899431 -0.5634598288989651 -0.3220903205444001
