# total energy = -381169.7256376375 ev
CRYSTAL
PRIMVEC
9.24721216841413 0.00000000000000 0.00000000000000

0.00000000000000 9.24721216841413 0.00000000000000

0.00000000000000 0.00000000000000 13.53422973099946

PRIMCOORD
 96 1
Ni 7.96517844602671 8.110054514933903 5.219908713005025 0.010331206722678982 0.7137978871663062 -0.30614279607620826
Ni 5.526651677972669 3.6589830424167347 12.153304523319333 0.1580991902699987 -1.5735565294678642 -0.040539097764626955
Ni 4.041604929387626 4.315155951945398 3.64342830727224 -0.6347896867922035 -0.1577232949878187 1.0646125722285924
Ni 3.3262128748227933 8.080149031634877 3.1766327492198 1.456864955610375 0.8234811480267623 1.1344838432984332
Ni 1.4739685887234995 9.187382443439349 0.5915265758257653 -1.8261933832061323 -3.0387068650154827 -1.4218838115494996
Ni 5.551489689148053 2.566313989361789 9.976676366102254 -0.5850061876111732 0.6705056521365743 -0.8724184971574136
Ni 6.29993127905943 4.106150468480766 1.0238374312440885 -0.777228801927442 0.52225250142272 0.32908320692246545
Ni 7.589935834155578 2.9539663596087076 9.227813103328034 2.180202406836 0.1103437772625906 -1.0033953772893234
Ni 5.462476027355709 7.448222311719709 10.766858021107987 -1.0515552248240019 -0.17869964012916967 -0.6680386786533205
Ni 7.837529932897526 2.7515079021724334 2.388954314476604 -2.081376657515338 3.0599405775832786 0.793798276250349
Ni 3.1780078096299933 6.823194011885272 13.127106215669572 -1.0070949376280978 -1.6875805837955196 1.0379265782969738
Ni 3.3648292317358233 4.126142940618211 6.163650493617433 -0.5698091681557605 0.7150461577511105 0.4587154001010229
Ni 2.525515290439306 6.253861669351404 4.575165357390277 0.8778638365427011 -1.7297366483382792 -1.3782928143324262
Ni 2.12228136813337 7.605720824876493 6.2948647316569755 1.3074082715067226 0.38622546046141226 0.707585330597691
Ni 8.60629689457491 -0.08233717479732264 12.698545104678507 0.2956241559330715 -0.5284568304612189 0.06810415186708917
Ni 5.821924401294021 8.58818160645407 2.4859668145663063 -0.5627005821354374 -0.5446077291894684 -0.3873868277593651
Ni 2.126609063304658 1.9992934498040364 0.8830051681027158 -1.4153778921101818 1.7450385688026722 -0.6724195813298355
Ni 0.542864972620919 9.053085184950858 6.989604063154385 0.6232629170995265 -1.9593037647412772 -0.5192988181110346
Ni 2.61598076450065 5.776964457014531 8.434951606312387 1.1167522303466253 -1.0312077715159016 0.6574051101988743
Ni 0.9029911671918278 8.227882489020548 4.18919597970997 -0.5773954651434507 -0.2634169750729076 0.3680336200437339
Ni 1.497401023689404 1.568197678029959 8.874204343707389 -0.7887337172432481 -0.3997615472746341 -0.10632437169055238
Ni 0.9515565993928675 5.6392272356975806 7.015901284368291 -2.170880615214442 1.8397945189293348 -0.2799016029914922
Ni 4.510022448408109 6.058810228650604 6.463298072890784 0.6898981977305731 0.6828014387847918 0.9400091997231941
Ni 5.999285925621587 8.603800147360706 6.726890772948642 -1.2100099986612063 0.4094862307615657 -0.35330814090810125
P 8.636692480104873 7.319907999333406 7.741348757158035 -0.13338291847024128 -0.4325328281683841 -0.3636555455806963
Ni 8.545330026488797 5.745773611260783 9.339402908263928 0.16119762668966434 -0.7296767631800918 -1.071240361957755
P 3.1406675679597793 3.595769101837838 12.788344779482731 0.22670059348848054 -0.10413816267251098 -1.1442818032254616
Ni 4.286656044855848 1.5852310423579765 11.481871864705928 -2.8656423116849035 0.4003986666380007 -0.6850251859089879
P 4.146126165543751 7.7679261688926475 5.367526580241892 -0.38907372854348476 1.1021177682629018 -0.6596211440135865
P 1.9021792303833847 5.142254326316122 2.5580506808039627 0.1944345343659232 -0.8971746210561711 0.24253138987315007
P -0.08217904747375634 2.6075103183961637 -0.32124536739741116 2.282223266055192 0.5538140782790849 -1.0774804293301958
Ni 1.6625377338792724 1.8860428456101 6.527599485589645 0.5254931198472047 -0.9220179053520958 -0.5620256675555998
Ni 5.117175887631222 0.1996158644968424 9.233538052218085 -0.32242970616168987 -0.23607303584231604 -0.002263342112879973
Ni 8.707516876081142 5.537017802517571 2.5154043889429683 0.8981007324148662 -1.0436601383466413 1.4436299449773395
Ni 3.0834458206949735 7.122914644132669 10.55056758410502 -1.2177122524014707 0.29778902479487424 0.25942430897374674
Ni 5.866190804680676 6.832653909663536 4.159488386745697 -0.31478684490445147 -0.7459744718988508 0.6159013345281328
Ni 1.565867380630035 7.15438290624355 1.982196279713878 -0.7733798604949971 -0.2742634308691083 -0.4906482442538776
Ni 5.3966266313840405 0.10054678447958765 4.5031221788849995 -0.7443937576752921 0.38606682339636095 0.5991205155253682
Ni 6.685216363058807 0.1934045122606158 0.5977268314077065 -0.7398853282819774 -0.4867933892841616 0.20140556636711765
Ni 1.5600601315540332 7.65579447733915 8.650077819336582 -1.257554324099073 1.4668737459966286 0.5843968361619484
Ni 6.36136975495267 7.029527051109516 8.195963887689919 1.2217460561512121 -1.4541393291490956 2.0429139826637654
Ni 8.74024275901103 4.425826584017989 11.911719262872902 -1.0715198408713869 -1.089103615391421 0.2710492948071848
Ni 3.6363828565222316 8.821072638267927 12.335069569955804 0.319412773712237 0.616497573351235 -0.7303521919805614
Ni 1.4378027429651516 1.138729415551067 12.085674114334866 1.1500621573526644 1.6217644566316585 0.5159180745642599
Ni 8.472591457648305 1.8261486541049046 11.04349761244185 0.7389615309161274 0.17438404347295128 0.517382060704296
Ni 6.322512970530124 4.459662132376413 8.079420351336804 -1.9432461970577823 0.5170539879409161 -1.4995036162165079
Ni 8.82846116057959 1.3027657075243044 1.3378181889693552 3.0336345926988977 -2.1492355261408407 -2.1336654396167254
Ni 4.369224399950783 2.077885503780052 5.586117723566688 1.413133061940063 -0.5711790519200938 0.9842257463394081
Ni 3.6231870851345653 9.51140474857167 1.0519646756938883 1.6182585003609289 -2.12065025830398 1.2247118236477552
Ni 5.698344661402801 4.168772587497776 5.847978420834841 1.2366484271843412 -0.5405587559310755 -0.9553409449842578
Ni 1.1077235140354085 4.664016268253102 0.4431226955770195 1.1374069304824992 -1.3428748398444488 -0.005753871764641703
Ni 7.835994895721386 0.5875715432942271 3.1595383532932133 -1.1916109273287283 -0.76289644446517 2.065567201286907
Ni 4.082098470317262 5.293168824596929 11.49804523832683 -0.6249575311931301 -0.5576475930925622 -0.6764832098762478
Ni 8.466044431619947 8.0594722658165 1.908935243400784 0.7072073784329821 -0.393137099979581 -0.3418839582315596
Ni 4.612352095342876 2.0113610613393584 0.08069024635713809 0.369037635828216 0.9473407003876008 0.7589513437744929
Ni 6.279420963055335 2.3858638962581327 4.175445375608036 -0.6618250936434409 -0.540927966345036 -0.3362938657382918
P 5.618652189210154 1.9878176598305999 1.9773239237614173 1.8845180870889544 -0.5838797873162138 -0.5135536880971413
Ni 7.678699821226501 7.843818036992561 10.170824354199988 -0.5540313364962136 1.289827582310482 -1.2594970496477405
P 1.3598672410343524 7.775203724661458 12.267993993685604 0.5273944506349756 1.0691521119701588 -0.1587998158814491
Ni 3.7495502358090276 1.7666798343473145 2.855342995205248 -0.4331352376390734 0.3327537137955172 1.7091382553616372
P 4.176919381185607 4.517309251388824 8.825873790688721 1.5965067105061344 -0.8833238312160077 0.9824822812857401
P 2.628492242207386 2.742306926327495 4.711062383538238 -1.4054236091109473 -0.2837739414627048 -1.7930701182896023
P 4.955026026886496 7.688048752461912 14.189692238956924 0.46367531520945954 0.5230791110890733 -0.5267902413920734
Ni 0.8615692061869842 2.8708246773756962 3.0275390269629816 1.0339367404112902 0.5893312973490882 0.37536794892161807
Ni 6.245150795737402 0.700190562915089 11.721874002474314 0.40929905445142417 -1.1473630132539465 1.6619114611641896
Ni 1.318939081145207 5.2874817892756845 10.64232951727537 1.084512910696945 -0.5290111603027922 -0.5897928103665391
Ni 3.8775224013548666 2.502498980009102 8.029492804822237 -0.48044302158610164 1.3248807172598729 0.7959762577382744
Ni 3.570487224491041 0.3889950654154462 7.539404444703649 -1.208735245713841 -1.1099840583848561 -1.7892980528416795
Ni 8.044778446100311 3.9011490277707646 4.461640111002778 0.12704540628798763 1.260947666051338 0.5966468571738951
Ni 8.618087089753097 6.05202277511273 0.3689813246906208 -1.3680359124911083 1.2154052015348487 -1.6564686928820636
Ni 2.894136898586843 0.17925812748917103 10.03549603158415 0.9216600077920449 0.2249751261569416 0.21438115269117916
Ni 7.305463854338638 6.1167625056558625 6.1974314834256194 0.045789290419972754 -0.38560428193764557 0.1910082822931936
Ni 6.3129698478447205 5.005978164480077 10.156775989874731 -0.41524524473253005 1.0072119228219363 2.531641869966479
Ni 8.226171754818223 4.051369985158737 7.008538654249959 1.3197446815848883 -0.8089778122042649 -0.7760298965233344
Ni 1.6335014884992642 3.6519459141574395 7.734514142839449 -0.3509866918637762 0.7016946761448689 2.178541217083493
Ni 0.6712671335203151 9.118684906201105 10.45065793252565 -1.2303728785882746 -1.7832508182063354 -0.5085235818724017
Ni 7.148631140438976 2.236956042960594 13.36827257741673 -0.4357899016531011 0.6719452127965782 -0.6098633558641691
Ni 8.933250565880945 6.708593314753284 11.548988128708507 0.3806489948148992 0.13156232032173473 1.1020072108269667
Ni 3.380669705728166 3.794732113174225 1.4042714278783845 0.6236089875850357 1.639506611106428 0.16439787879451687
Ni 9.329512090410915 1.2498531610069774 4.908215715504923 -0.32875513415908547 0.25976960812830746 -0.024916817846337733
Ni 9.484680306167775 6.185571009436957 4.84040868477308 -1.5229163387134934 -0.47403531828754486 -0.18944839400524147
Ni 1.02402699908813 4.051860087389674 5.393836747552465 -0.3246351984534409 -1.0063971402301248 -0.8349847777909879
Ni 8.565396476321478 1.42212871878709 7.384397130433928 -1.8787318194244806 2.901159273644591 0.34747610760735637
Ni 6.061232998169572 1.8150612470314558 7.584568752366228 0.7295512933458209 -0.1998636758012945 -0.7171544623433649
Ni 2.789893078787852 3.0368861087560113 10.323422769768598 -0.06937273416686762 0.8076130706462542 0.418116395632738
Ni 1.7478432636979269 0.42438969370096197 2.820087075098299 -1.195435186170825 1.824211062668781 -1.3672404131730067
Ni 6.737537088014248 7.456775982731337 12.65139172173528 -0.15649559322830467 0.18799674916037942 1.1077646821360343
Ni 2.692353487619595 0.5136373099544884 4.956099628188604 0.393255113614684 -1.3819530367928328 0.14276667367798637
P 7.122868408073146 0.8941850472952094 5.665279405796019 0.7877261019143401 0.7510745121295774 0.25118675155530285
Ni 4.02488597026436 6.2342298384782335 1.9739810566579548 -0.05106699387914431 -0.7423204200860313 0.010331720943311237
P 6.108107115313286 4.5225616677505585 3.2878434184676126 1.6933131154039225 1.292247247495568 -0.17054718622536436
Ni 4.122268358830241 7.540685183552418 8.3938338785792 -0.5734012563823931 -0.08138004304038887 0.212319385066144
P 0.5056292244452251 3.4463618990974583 9.591302508868596 -0.37284955337513853 0.24496391057404265 1.06370420148171
P 6.971556279680448 0.6483229513429659 9.853649609482922 2.8597814820287524 1.3340986363137153 -1.5328819345666376
P 6.645425610233909 5.322685924995969 12.547746196546507 1.4267550235988717 0.7223082386301626 0.16949843324587582
Ni 6.622575749617986 6.417981186231782 1.856855870676049 -0.39327748221218717 -0.1819988797057317 -0.3498212108007653
