# total energy = -340890.7196447879 ev
CRYSTAL
PRIMVEC
9.09186679419638 0.00000000000000 0.00000000000000

0.00000000000000 9.09186679419638 0.00000000000000

0.00000000000000 0.00000000000000 13.30686607328260

PRIMCOORD
 96 1
Ni 6.4881833332371475 1.9090010553345769 11.442187814557997 -0.4714225632550462 -0.2784299035419721 0.6430151600257894
Ni 4.7906863716227965 0.33649725795729335 6.0004646941505495 0.26825939076687344 0.2788639057555971 -0.44505384345353033
Ni 2.6466332879621657 1.4309961665695492 5.0248455786444906 0.6842991063762408 0.4299714951991111 -0.1760776291252903
Ni 3.3578081886581095 4.259321317528963 5.342028075105018 0.4602151245750009 0.025382187518530483 -1.2461031448393378
Ni 5.143778104577216 4.605175924635414 2.4791620135815107 0.6141072187421874 0.34324921401020236 0.6006603492086623
Ni 7.485215613061218 6.025880098164886 2.7399103846011754 -1.795547119075185 0.6394909489226148 -2.062718933204835
Ni 5.5061253577743905 4.56003480675204 11.510652297941112 -1.7832181651961871 0.07828777726831034 0.9049776620403575
Ni 5.823395136154693 7.867819545139391 12.633937874718994 -1.5755342220195252 1.0835394910400822 -0.9896749423794375
Ni 2.0634900533354394 6.399583092799388 0.37305929047616504 -1.4537132973552704 0.22488308066376755 -0.2301214462445714
Ni 2.7768560938923894 1.5194873046075903 0.5285611224210777 0.8253076597125399 -1.1413651437992989 0.46119882864450895
Ni 0.16642843727668263 8.869306839618616 4.674195921070427 1.3282596610344348 1.4663682671151197 -0.7964259436811831
Ni 8.708953587632905 2.4286012339921395 1.0997130941321178 0.5016685066237812 0.1127151057082446 1.1202808123251737
Ni 7.117313229345063 0.6717498393711356 4.771243414806363 -1.7265417955500653 0.3326930357609109 -0.40237147409365537
Ni 0.670955210226522 7.185693158368397 2.436633898171386 -0.0024996264934021464 -0.3248077194755632 0.4667346708610736
Ni 7.545694709971631 3.8326309240980256 3.831964490273081 -0.19163023214790867 -0.7918570933635781 -0.07350989626369275
Ni 7.634540430808756 3.7847076950218397 12.577263723998751 0.8323542821466762 0.4844624271581398 -0.2627433460446507
Ni 7.6244211832349 9.091430233578073 6.984760177994193 0.7641848242592904 -1.1511895860888883 -0.4390922265534567
Ni 7.266892619358611 0.5968383133513436 0.2299869494191397 -1.2910694251373829 0.4398977531738876 0.16191110781692114
Ni 1.747565871218327 6.749474488695411 9.214925058192346 1.3446864391318907 -0.4642985506157552 -1.000881095507902
Ni 0.1702606590667817 4.94643913908706 1.1060237587691468 -0.4647554356475157 -0.3191937157228954 -0.12390377533521242
Ni 6.426376823796831 1.9999106298997031 7.084322482043632 -1.1199828214687808 0.601665393434409 0.301855481554764
Ni 3.5466462588368945 4.465670322862507 0.6738473330057166 0.406405534953713 -0.6540372221679058 -0.5031278647781271
Ni 5.776444736809327 5.626438029063551 4.737297112320732 0.31839410263973555 0.10316217191248686 0.4745312840873569
Ni 5.52919142344813 2.8808215889571174 9.419398411437403 -0.1928293946623324 0.004059771891670428 -0.3661176339679436
P 0.04403191015290595 5.769689479893447 12.361213696956938 1.9053751330436217 -0.4255733661314155 2.0115897186291876
P 4.100750071405314 6.195034277061194 12.773340738398835 0.03725657035861325 -0.5814686067715599 -0.29757716589438427
P 2.1789294841038576 8.416768269321128 1.4886258724739905 0.7036924233011881 0.527697069477059 -0.1904542095619365
P 6.262923245285797 7.6711261021809 5.737933408082158 0.15645214158487894 -0.15009945989397377 0.21163650006650647
P 4.61718628047105 1.0996521786256084 12.704504397670012 1.399340636141661 -1.037731174456716 0.33012373237183795
P 3.858497284697864 6.508912789183592 8.32883355352165 0.11303109428676662 -0.9123973515431965 -0.4766048787869341
P 4.73543509803221 0.9576008541926119 3.772430038306894 -0.1940990054033754 0.7959271496678937 0.7079421997164776
P 0.07395051571560833 5.406551234298316 3.777433292520634 2.462323128965998 -0.3089776944218421 -1.741193226914653
Ni 1.5659922024874404 1.1296098792148763 2.6897169164241883 -0.06195433021560943 0.27817356455679193 -0.2250990533293156
Ni 1.9311033831441402 6.272596991394137 4.956195621181854 -1.2683411303019316 0.0787865712815998 -0.3243636899596091
Ni 5.950844922758748 5.749314606746087 9.264372993304594 -0.17448174539308015 0.9677262060224883 -0.7193784665778772
Ni 8.477729235163629 2.358857524972329 10.04828009958596 0.06834866377772744 0.8317073925912967 2.189333422602991
Ni 2.3202534592054 5.128294655683886 7.32079920587267 -0.3769895436854411 1.013581573793706 0.12470595952153361
Ni 0.6703087785081921 0.000270937625966673 9.190267006669385 -0.6319550455568859 -0.32251763788980586 0.03199377929777716
Ni 1.8312019524689118 1.2153279979267488 11.351781020218239 -0.7968882280295825 -1.0552481002945568 0.2773585248546642
Ni 3.8992106635260106 6.97544374224493 1.9289495199363715 0.3255399696558974 -1.1627448950266557 -0.9540615640512021
Ni 5.569477484544047 7.993141834948942 8.046608375117472 -0.9099445191273297 -0.746310772192347 -0.6637644767579988
Ni 5.202156980293056 2.762300015396663 4.945935449675029 0.1698074798458624 -0.19030611401984646 0.007688112672877082
Ni 0.512555800382429 7.5544683612822965 7.0723730417145045 0.20581089452366488 -0.7780181305979569 -0.6378066192416564
Ni 5.002245016542881 4.692839702808926 7.181529083445821 0.2715203209063324 0.49930900525266914 0.06447272576208897
Ni 7.944982217340033 7.354556397532122 8.776676174697938 0.37408059756876216 0.26990309701788356 1.6447637457403093
Ni 4.651053483716884 0.34976592813634577 10.426648130995074 -0.29519606725671743 0.16109812499732257 0.7828734018077291
Ni 8.196054114691364 7.007992624827503 4.761263272792148 -1.2830925775794935 -0.08420028609800338 1.035387356814888
Ni 7.349001267013142 6.030125999887249 6.923988322977871 -0.9850914367738133 -0.30176986381949317 -0.29625330487663815
Ni 2.1249965311765315 5.126176250756026 2.586109640905201 0.05838872435153815 0.2774464565827802 1.1387752715849355
Ni 2.407735400046048 5.242924910321061 11.394323682614992 -0.31301561193664157 0.2828619711713967 1.062498096988751
Ni 0.9520366318069875 3.186608339767088 4.038008008887414 0.5385160144694338 0.4451379185269043 -0.5352787384790587
Ni 3.6559032202879522 2.9610845876830836 3.0680576722333748 -0.9417236113111395 -1.1693037791910958 -0.3808168878513312
Ni 1.3144111606040911 3.259552385845297 8.54135775467924 -1.776452307227263 -0.0934454588453552 -1.3131428599976547
Ni 3.551046722292192 2.9261445441733547 7.518511847081862 0.10175937802768925 -1.0367880938171563 -0.41924793813401984
Ni 3.990593015156582 7.0966565083317645 5.9218609610869635 0.5765719408008908 -0.6671305650167544 0.2962440489052576
Ni 0.7499017066625561 7.5086817208672585 11.208106797589435 0.28229787113781063 -0.2553509102353215 1.3155892646556182
P 0.21760928217111863 5.53325548783763 8.105025436673213 -0.4076610046273689 0.3742839718288199 -0.5541848313549425
P 8.590677494471818 1.5855306239036275 8.182910912271987 -0.693658950324586 -0.03306207266129144 -1.8047393270974146
P 2.2032320436410693 3.2246578016687835 10.368137423212909 -0.14358119915948175 -0.013796025342827855 1.4425464821051737
P 3.7967544183240496 5.974511051630937 3.8549587302003396 0.3276896690090486 -0.20320508146970165 0.1125562115328771
P 7.162481622828366 4.382579753610512 10.30538263208171 1.0437907503872346 -1.8530251586869957 -0.11908887044507233
P 6.357651403841056 7.826760675378803 10.2880971752197 -0.308311778703069 1.134211306363337 -0.5522457053507005
P 1.9639068379927227 8.371863539970477 5.630813944478913 1.4170766199688434 0.04501281726526442 0.919188406323101
P 7.131578368108207 4.052708648062767 1.5778880008033729 -0.2790863061790484 -0.45699790318928396 -0.19669684803753867
Ni 5.5062162764408225 2.9702310055261196 0.35008505265552126 -0.0973188257578324 -0.40278542170262244 0.268638371372847
Ni 1.0254079956174253 0.8860533188307952 6.758850021577855 0.10922868982154092 1.4057647945004499 1.0537458047174173
Ni 6.714670823185329 0.6117707951260974 9.193260958354983 0.8689079129009939 0.9677930547046816 0.36462356592092043
Ni 2.690056043049979 1.265351448197508 9.183892698965854 0.6562985073982568 0.7688207803694049 -0.4539879127183665
Ni 6.494729477220235 1.8220464427592327 2.5299682735702476 0.0405637803549753 0.35822331882153147 -0.08080437304257697
Ni 4.302862266883137 7.018821037999528 10.690004049368003 -0.35062030966329294 -0.9014321107809443 -0.5622604092742252
Ni 8.060594393574672 7.333881492785538 0.11887433798620993 1.1838852765496966 0.39768383880999897 1.1959923442258757
Ni 7.672862648709747 3.8544241284417207 8.199797236188362 0.5396598982658899 0.3535570236941137 -0.15461483126582404
Ni 3.257543083317154 8.24452285576614 12.678236176564544 -0.05920916337030448 1.3812051028832146 -0.07028804689228539
Ni 0.18957632975021113 5.2148765017268595 10.355150600899796 -0.6006220397715591 -1.5311652089858467 -1.2705486794762118
Ni 8.456717931351248 2.601464894478863 5.912187214978624 0.3805739186025897 -1.5035901275810557 0.19361280979557624
Ni 3.8862638454261265 2.7353699063995727 11.601524595853 0.6662368495578912 0.5854633297532498 -0.25180638741717276
Ni 1.6898234261675102 3.080779012040508 12.678462564043961 -1.9551630031000264 2.3406878379499885 0.07950982260086953
Ni 2.997170206389853 8.59088660740461 7.635106854100626 0.01655764724836503 -0.720613881646875 0.0744033546122396
Ni 5.688680948102741 7.958601833571512 3.431495040241066 0.308659648960791 -0.18913703341240976 1.3315000223486035
Ni 3.072841812461015 8.343096873911465 3.8118578271916954 0.19469678688837436 0.07469800303452297 -0.6966923378342711
Ni 3.786807916216414 4.529249746298244 9.663073166087846 0.22400299205165938 0.46919470236579197 -1.3501862859041973
Ni 7.243344684752781 6.326257188322166 11.455175546057776 0.25642331736389384 -1.0589738858855762 -0.6622986908457497
Ni 0.6555626799996235 9.261702712071491 -0.021504992171106428 0.4911023010721607 -1.1283900716958695 0.7338874588273295
Ni 4.465997630061661 0.20557801504220258 1.7954290939746678 0.18658572774546575 0.6117078652720755 -1.4058231585422112
Ni 6.061738420205577 5.713128977506243 0.4877140931532766 -0.04571010044260515 -0.07517828510505117 -0.17683764721976641
Ni 8.086297100574933 8.931340645725014 11.260429580934252 -0.7112383539692461 0.8320105256540123 -0.15005112315454158
Ni -0.027402886062535315 4.829763214455171 5.740940997567721 0.4747194888387631 0.2738715947473283 1.9706287028357932
Ni 8.357262002141535 9.032514937730287 2.269087161297593 -0.8571062922803754 -0.9400130563779359 -0.6528843395103853
P 8.617453041735972 1.591258499888829 3.470962833339097 -0.5235046286622661 1.2950890878197372 1.060344798091174
P 1.8937085356407533 3.2279581492602567 1.6450350727098921 -0.5319375899209677 -0.496965444721157 -0.06242741319728602
P 4.657145034367813 1.0547474492749576 8.164733543292284 0.33317151805922623 0.3882692303643184 0.04778652335565963
P 8.752449077653864 1.7792873939363716 12.304885037169134 -0.23689450330234685 0.3417500037568566 -0.9838776189713702
P 6.304818566777556 7.80408555997072 1.4007202506477698 0.912486568822893 -0.1509908613599916 0.7516496679067571
P 1.6177340155537605 3.2687988142214075 6.213388028253775 0.3887708525910853 -1.397587143785664 -0.21663472461204622
P 6.706751807339122 3.9633446908269803 5.971855317384465 0.5299395856543325 0.6055989241608603 0.559604716818933
P 2.545368077290461 8.377318659956384 10.383972727345332 0.23030913677534529 1.378524213616942 0.19358581321238272
