# total energy = -340888.6607376054 ev
CRYSTAL
PRIMVEC
9.10983181732508 0.00000000000000 0.00000000000000
0.00000000000000 9.10983181732508 0.00000000000000
0.00000000000000 0.00000000000000 13.33315970057031
PRIMCOORD
 96 1
Ni 6.405805891741047 2.080895081891656 11.531449953669206 1.0448266478509167 0.3451569725558766 -0.8865526225659506
Ni 4.996332734176892 0.4211784920044378 5.869696852275744 -1.0550395838281765 0.3246840494135053 -0.6706131242487161
Ni 2.6658373740787966 1.397593937053144 4.601220203559078 0.890372253422357 1.150570978668283 0.7977060959451875
Ni 3.834728986799934 4.499109011238622 4.847937220038726 0.6920718083431242 0.14606462770296783 -2.252650694604398
Ni 3.480748257201496 2.855914012086657 2.5097668267500426 1.1198146713220327 0.021138067530195852 -0.1725565033459093
Ni 4.6934035013144255 4.776658253039986 2.2466502912796558 1.8287994533704115 0.3949800667255907 -0.24010169738573484
Ni 5.54972767925542 4.435850340051151 11.726446811767554 -0.7004615750687162 0.41182104954232945 -0.5101048103165924
Ni 5.613842674620831 7.97058345978965 12.22845410732111 -0.16200058220693392 1.681695328659336 0.44754524241681637
Ni 2.0707740588949277 6.619385895483884 0.38902534108908954 -1.0461651641566823 1.1871595764255942 -1.9047423845556295
Ni 2.521929363026309 1.6276354066421437 13.470224373484033 1.0077132879383872 0.7566630619609485 -0.9118371081643523
Ni 8.1496098719694 9.053059209192188 7.021534860091503 0.10244277724795905 -0.4263200144894529 -0.7224609621579429
Ni 8.558167603164057 2.5232229591249005 1.3260617167336943 2.3126342742468817 1.474860620856847 0.43622750341115196
Ni 7.2990339978186265 0.7405655467803961 4.86161654328975 -1.2108258096942826 -0.4836404454774767 -0.4243238099950305
Ni 1.1669421087415692 7.587478598309538 2.462114208213962 -0.9146162135713861 1.2459198251839383 -0.21590067465949916
Ni 7.998687290523139 4.026800677945762 3.7746305162223326 -0.21131794038482318 0.5023789024272445 -1.1443005722785389
Ni 7.595641007495018 4.132246979644348 13.025217294753636 0.4026298699613647 -0.059504840233852364 -0.8263918939156543
Ni 8.435312413124564 7.499213439159854 9.068667994793083 -0.6274571576865323 -1.4293844908019189 0.37363399694964683
Ni 7.166121553604167 1.0106356167722972 0.49174598114895185 -1.5394454467167682 -1.794303219365755 -0.7215165959668025
Ni 2.0189664461294976 6.44669081632189 9.224933492519794 1.3780290191480784 0.4399946837630681 -0.5796199835985952
Ni 0.2516217498562809 5.100530988935287 1.3098243527468643 -0.6245420409222663 -0.8134157933709604 -0.3332669059865099
Ni 6.546388814230254 2.1213518443835278 6.795578239027916 0.49156381408961153 -0.09252988900962128 1.3102814792894595
Ni 3.4466137178956986 4.007834008387538 -0.16458459601709105 0.41450142458797 1.0231861867630057 0.820177023354194
Ni 6.237775046399327 5.901440060765482 4.4687286335682455 -0.2975463126564489 -0.21818792803177905 0.4276670154356505
Ni 5.996000113606201 2.92782702337034 9.115974439725315 -0.9253803940664256 -0.7441086223347056 0.048885412846793236
P 0.015131430420850968 5.758342824732535 12.544342986731863 1.4395105234923273 -1.1343398615214013 0.13133863434670284
P 4.11152211257184 6.372391029137988 12.431344634570372 0.24167366985854505 -0.8513097402032566 0.9708842920354956
P 2.4062891596775535 8.792545352632843 0.9835675739008496 0.04358354101790558 -0.766685479193957 1.7408145034189952
P 6.632558712093487 7.9797115111332335 5.722431868249094 0.19633252271958443 -1.3287049761019698 -0.661741532790699
P 4.714019050406771 1.1780925427181625 12.465983858551255 -0.7593210684090859 -0.99429444342932 -0.15154030610555838
P 4.197846877573636 6.367808783802835 8.108107300800638 -0.7228815946351292 0.15091090005167557 -0.624689365133408
P 4.710019834299152 1.3768963994756767 3.5776996408582726 0.36902786563620316 -0.7613836073650695 0.8307625121795241
P 0.579734201415557 5.757750685673319 3.382262777889769 -0.6924739288775493 -0.5383985150549632 1.6168626484546669
Ni 0.6662265873202694 -0.127628741839929 4.707845317477083 1.107918691215395 1.7199119489383736 -0.9465806822931248
Ni 2.2444165605516653 6.819310261538065 4.746631336838803 -0.7553091190362153 -1.0401102162118538 -0.45187960812611205
Ni 5.97966618540356 5.610636013869392 9.047228916916845 0.7585132277958098 1.3520282242089423 0.664840740541313
Ni 8.653975702944965 2.5153702842165475 9.973443723508513 0.0148846304213163 0.4098289588129651 0.6311726588649066
Ni 3.0045591356128614 5.035577889055294 6.767098172246033 -2.0744452205028274 0.9026155895660841 1.9473103398248268
Ni 0.6936635783747662 0.18961841347434474 8.761832466106137 0.61117693246927 0.684169522776912 0.6498303831754099
Ni 0.9888540092248832 0.8631283112229527 11.287146131601649 0.5991444267847681 0.7297387267662786 -0.46890905280457307
Ni 4.177285987471372 7.360470702670052 1.1923312096343517 -0.4771851767704363 0.2589507117714379 0.9116633015906492
Ni 5.951216181066223 8.02031403093199 7.809124447022043 -1.0894856813211882 0.13359066360567315 0.9322364977563107
Ni 5.632463170575208 2.9575159648161877 4.826483566431801 -0.3517991604627425 -0.3358446940160152 -0.7575536920960179
Ni 1.0924236855973424 7.616028810795357 6.971308714105759 -0.22743155811723412 -0.4824322841019885 -0.002691687899550203
Ni 5.3407390306794165 4.437289693456627 7.048775078781707 0.21664115236994946 -0.07486538185032268 -0.7919072298752232
Ni 0.5518071014166643 7.473715020286909 11.458011045579086 0.16439479347072333 0.2733344912969357 -0.38382687832224865
Ni 4.865670418387449 0.37802795228472386 10.089134941914677 -0.10758215535705343 0.7655495658173009 0.8575140692417554
Ni 8.590680592430772 7.2212906942596 4.828416672714344 -1.3278084324296293 -1.925132518176207 0.11392043887025542
Ni 7.381432425366246 6.231598580520137 6.9987083548503675 0.6017924059305765 0.6714765006902758 -1.2037925569965848
Ni 2.48404157306826 5.466718892985225 2.1818119752788343 0.0962980978028019 -1.1200722958587936 1.7692023105330692
Ni 2.3952207141860824 5.566562648200472 11.64296795818266 -1.2991866549278785 -0.6188532180676052 -2.2642129455207005
Ni 1.3977396943600278 3.4452563529753455 3.5273404913299977 -1.569635340036587 1.627342207829752 0.1704803375431709
Ni 1.6021187681058382 1.46677399883276 2.4192888894852325 -1.4334609748641376 -2.39394926837729 -0.7640372429378326
Ni 1.252182803773419 3.3588678191517873 8.16766646934277 0.013669527067292585 0.47069596950166676 -1.180446940292109
Ni 3.5788793640608616 2.49301475727328 7.032841983172997 0.45771781207444395 0.2605756489693706 -0.34939877855136603
Ni 4.417156965443333 7.087075544114869 5.8044312851691195 0.2204422712835945 -0.05222938961836166 0.8853048662017785
Ni 0.39613738668183984 0.3007018790166522 0.3005561217097686 -0.004105280417625188 -0.39512996203989376 0.26199695479692947
P 0.5538340389655141 5.634904605465508 7.8261379686680295 -0.6590272191833295 0.4809101910305073 -0.4051456944046829
P 8.574929693455667 1.980386308963752 7.810325122837497 0.13255913701736524 -0.703570295901027 -0.05705894979652109
P 2.2564324285378796 3.6133600769705065 10.082641453893014 -2.504261935291629 0.7171323508561778 0.7061673672042419
P 4.143215216987337 6.360274953003292 3.618966267386516 -0.10393478841245325 0.5038904539757644 -0.34721205531269234
P 7.227567368287274 4.319927731920309 10.189320315817932 0.37114799730299947 -0.6376232995862567 1.1518148783777131
P 6.4775184867277655 7.957164677724681 10.215747026539093 0.8517596832564814 -0.8406674299980618 -0.5641704818127444
P 2.7074966343524585 8.638625636563788 5.824644179701199 -0.15070161225434692 0.4669323886941765 0.08890951864821461
P 6.662101896232451 4.113061674125797 1.6331386559601666 1.0555751446166723 0.5614628530735943 1.023256892099941
Ni 5.423538290820966 2.729014056781146 0.4125533033696024 -0.35605999262162547 0.9623297175972652 0.7363089237846286
Ni 1.339546089586761 1.1976240218405614 6.631193148324621 0.45297386963155534 0.3788502510432637 1.0134491619808998
Ni 7.260718045771607 0.6484678814428422 9.194226982875266 -0.5210651659828381 0.4445303668498925 0.15298552319251718
Ni 2.6657736052570353 1.6024831613730472 9.223292811834186 0.12053460175266338 -0.18308208546758148 0.1394409517388631
Ni 6.710675518751402 2.036047380529917 2.655685377654356 -1.4736434606202944 0.1388439415848125 0.5137902295879796
Ni 4.233630296413553 7.092058622043952 10.337692144393731 -0.3414831232487151 0.0782569240303749 -0.4376426385911237
Ni 7.974691993877431 7.353820525543489 0.15124780243724406 1.115324753871479 0.9596475427794118 0.36277211453447844
Ni 7.887520014529374 4.211693821727576 7.941762685302928 0.6114767230978759 -1.3537860874403136 0.1675636781170082
Ni 2.963537563556815 8.769697894778842 12.173988245671392 1.2876750547438534 -0.8369843247195198 -0.16147633427234773
Ni 0.3502010604343137 4.960449107188492 9.974842993654596 -0.663980963644179 -0.1899191629940729 0.9695300920004464
Ni 8.716651344904902 2.4548263428697834 5.501928392429288 0.6434761588226079 1.4205722918269275 0.6934044111116188
Ni 3.7724723970972875 2.7205601329818987 11.123348625041729 1.431104301706503 -0.5993159193656259 0.8439844101864368
Ni 1.210368676361194 3.4298971767624886 12.181734335549086 -0.4569598508624969 0.5787530076126097 -0.3765797098415321
Ni 3.3863248518359805 8.62768472871584 8.193386257125544 -0.9545498165415303 -1.699304299990351 -0.4273875365220187
Ni 5.5679382327841855 8.168904495468112 3.6867516139358902 0.4191630917296975 0.36812849375038537 -0.5146536060295395
Ni 3.217346583999518 8.668168820702752 3.401408911132094 0.029310061818026943 -0.9577171585259183 -1.054152810347849
Ni 3.8750126624898815 4.316575313861987 8.978309396323283 -0.02041687309345516 -0.09169967979884207 0.4914306309458568
Ni 7.317053244882108 6.184218345951295 11.38993145146644 -0.07219657676890792 -0.057435873519965604 -0.8970584071932809
Ni 7.811370931514387 -0.2820075934256658 2.6400993666326618 0.9423532744753382 -0.07945325833132123 -0.29108461619150516
Ni 4.655707017821661 0.6336680488951513 1.5527261717188352 0.19430109411185248 -0.0010004162400563416 -0.8609125534003432
Ni 5.921445251135252 6.114036202686854 0.3135622283996234 0.8203498014866324 -2.7821231108143243 0.2652599418189174
Ni 7.78987172874906 0.0005037736919163507 11.669581420453264 0.051778932344504376 -0.2714920387715582 -0.5692664082784132
Ni 0.6078580737787425 4.917341383677676 5.666952993316533 -0.47766340195843543 0.15258725931283398 0.06906497311846171
Ni 7.6173315167256295 6.410178610947555 2.563166838093176 -0.21362499125144502 -0.5962743043258247 -0.38349983400013304
P 8.717380131439318 1.5689316512947844 3.4898608218312233 1.2015641818866984 0.6737377859206267 -0.718555970676582
P 1.7947734884792015 3.4216527790918865 1.1518862899236642 -0.30951634053413146 0.29948878109480037 0.36264895869305286
P 4.912859346491006 0.9662707364896095 8.001015763500606 0.9132033923842595 1.9976355704419404 0.2946535644896861
P 8.635355206990589 2.0698539658952253 12.362651948785649 -1.3843004539790869 -0.7903972209886001 0.2256119884099921
P 6.28351551126573 8.001438459690567 1.3289586432080054 -0.14353517641289473 0.8635505052438225 0.6840566513481315
P 2.104134262507906 3.2749389398818898 5.496981753826926 -0.0538278444537331 -0.08987265389243232 1.9026585054434069
P 7.0732650392876515 4.34197352458645 5.759724786198424 0.9497110003919901 -0.20233373460834184 0.1059119667434821
P 2.118382039255775 8.403018059818173 10.214200177119793 0.6341957619619465 0.2749496583028555 -1.1269278853280462
