# total energy = -340890.20547126775 ev
CRYSTAL
PRIMVEC
9.13007152381024 0.00000000000000 0.00000000000000
0.00000000000000 9.13007152381024 0.00000000000000
0.00000000000000 0.00000000000000 13.36278255686981
PRIMCOORD
 96 1
Ni 6.3437289936995045 2.0859383398240574 11.26220632644762 0.9109163961222956 -0.0799772491555913 1.3100837614563567
Ni 5.007077374054905 0.7169890917172708 5.7859245272158555 -0.2776891687212056 -1.1299090794435573 0.3229822362310502
Ni 2.994280038219707 1.9713102902571968 4.902457709030872 -0.6425595605456095 -1.4648996529893934 -1.02983711642062
Ni 3.5949383220073754 4.77630568302727 5.063372482842185 0.13610983048310107 0.24942606011045432 -1.0159415893854502
Ni 3.9529375614789934 2.9913492852200285 2.6439336248051926 -0.753449183009341 -0.13512304108979956 -0.7250035260741385
Ni 5.457034695186214 4.874682205056973 2.737205523775331 -1.3095214611949835 -1.477433780900662 -0.9595063892158572
Ni 5.400957795111371 4.554171039780617 11.359381331048171 -0.4027357994116096 0.32685868846732097 -0.35133276234928523
Ni 5.72813391269229 7.880420483197541 12.334744146405626 0.24064368593213392 0.9850662399628327 -0.36214116581869893
Ni 2.048413745342194 6.461835600565048 0.1593754437311089 0.4341179132673169 0.6551507669470588 -0.21120635450762337
Ni 2.596090223344399 1.6115398168854616 13.527010986961397 0.5568721483791184 -0.26783258764210005 -0.3780735207782392
Ni 7.855321916231447 0.105292551304645 6.760806187797349 0.8268680622211244 -0.47318505447210757 0.11036203209503574
Ni 0.021165332099235035 2.274510839684984 1.074282576650337 -0.41489454626133065 -0.042402633335926976 1.1688931740162385
Ni 7.054934185026443 0.908701423218663 4.430911420475764 0.3093808433975317 -0.5197410478547758 0.3117737691097404
Ni 0.9358871245639663 7.33019671520496 2.2372774944887586 0.4577859463082181 0.30426331966530823 0.8406280921196942
Ni 8.025415151072595 3.570195827835636 3.4883812557791933 -1.764514932359729 1.1425447659296968 -0.7759136826604442
Ni 7.909426720829871 3.8648962805571907 12.899134133570483 -0.7451041534787555 0.17150492215294336 -1.138075931525066
Ni 8.236027643896836 7.50871700617914 9.15791562959972 -0.09024726362303168 -0.6370424873821222 -0.4614356272456634
Ni 6.775955715686341 0.839345746935931 0.4367862797688913 0.2682493634645445 -1.1973740550647507 -0.902721261906013
Ni 2.02119700175328 6.482150009986495 9.337805431321414 0.2746318699521206 1.1593399831101647 -1.0195143943383733
Ni 0.35052353680452564 4.966740717504814 1.2469934030335652 -0.31281660855195803 -0.9621068029531817 -0.1362034186381719
Ni 6.749816320552138 2.2278287833380817 6.8018303387426915 -1.4767033304925408 0.5701189860866955 1.1010767285928973
Ni 3.8791209321880284 4.6670095953040605 0.4585943689122926 -1.126695457602266 0.2782540400857401 0.004785851424417564
Ni 5.889014905238499 5.965059272012086 4.7293962878962805 1.2710364177459077 -0.7632905945797952 1.5544437198978134
Ni 5.661603080578096 3.0516625385405125 9.275655207584931 -0.6366714771959486 0.6036364011178507 -0.879615272016169
P 0.519544901233953 5.469625063991686 12.215534626884752 -0.34972453732190095 0.28473142027996773 1.4368602303536737
P 4.0650548413420795 6.3895071729530475 12.441111307143487 0.09828581765679202 -1.3623668871307892 -0.1581971493004437
P 2.453524154528268 8.663935841993181 1.102464368812665 0.23550405071272346 -0.42116700953360364 0.419786070025677
P 6.4395764858821325 7.9524384883734385 5.6525907868522935 0.6005479920005141 0.23888068049444022 -0.07519705415812857
P 4.892650186064347 1.1018992173775246 12.569007176832255 -0.999846997816433 -0.025415354749311066 -0.5404127172715144
P 4.083114123065955 6.306049187999589 8.203211427364922 0.7431789114315847 -0.739128909731927 -0.39336335705777414
P 4.742560938208543 1.1900774493740787 3.5563847684505467 0.20879877350739523 -0.3921798782726343 0.7712239904942589
P 0.46937789653821205 5.460951495924102 3.3949623626554883 -0.13694980988589317 0.9463860497838151 1.3851836279149885
Ni 0.6711479149693416 0.25966015073568044 4.641562259600934 0.1746406395684476 -0.30323076463573584 0.08340221567674024
Ni 1.901857835214974 6.776284398265744 4.88007533838068 -0.07470571634400681 0.12501603456278468 -1.265132393556647
Ni 6.224818940528752 5.8502121007256225 9.15370666656903 -0.19867582614078041 0.5827392459538674 0.7054741977919592
Ni 8.699670942431627 2.554146674183893 10.197540454266322 -0.20606826195010966 -0.31896231643837974 0.4991693943510113
Ni 2.4568748908238502 5.703957482962856 6.927534078228275 -0.92075446525864 -0.8017075037950967 1.0297993212041492
Ni 0.2979927565585767 0.395668089085553 8.98953154417147 0.5310428460208403 0.7304025856025227 -0.5079180870779189
Ni 1.4098200138484074 1.0098315748580327 11.277961178087015 0.23854335175967953 0.9313798061829701 0.17149052397524014
Ni 4.326622264045463 7.281971676749193 1.2217697540858656 -0.4608432450773031 -0.23371353447120397 0.27438247294547585
Ni 5.809802403602332 7.933365768696404 7.814862916721245 0.22743284366881475 0.49461339954921274 0.47774104927390626
Ni 5.208505014799157 3.091980934947303 4.809840436198044 1.4963028498910231 -0.18245730739938898 -1.0617236807165715
Ni 0.9204025230454163 7.749513515878573 7.421930197102059 0.06340340395731016 0.6583990986810274 -1.1416798468262401
Ni 5.522406008200848 4.65354273962018 7.2620306872582345 -0.39645253750605913 0.5276988692492718 -1.2129513406777173
Ni 0.7146344462387129 7.526191963317409 11.414782605820909 0.7625940827334027 -0.5862027790224356 0.33688650501696815
Ni 4.672861971231767 0.40875969882461477 10.19268964719863 0.18494150727382344 0.020319428283642423 1.0454779082816703
Ni 8.253566511536654 7.253303251767915 4.548330532946056 0.5354234915870392 0.37377849294731114 0.6938450981934632
Ni 7.48805565403499 6.252072204404266 6.8912274353045335 -0.0069129250697493845 1.00172133202101 -0.8608377342983498
Ni 2.5589764820867895 5.033837614061315 2.5879964148265957 0.1568462916995041 1.6376736716627474 0.5761078566802789
Ni 2.5612407398560117 5.311053979572949 11.17752673790738 0.407223402869318 -0.7902810071257099 2.1186553393611383
Ni 1.0757050418134206 3.2869353548916416 3.8441116724457642 2.337165940839659 -0.07778692637249184 0.09164645796340345
Ni 1.93446132107744 1.1660471007910458 2.5230405200720414 -0.6353730700994994 0.834207276195015 0.025955800633813364
Ni 0.9992772120305304 3.6950678177938956 8.115324444654005 2.125405513600778 0.42252275223054975 -0.5269247100874086
Ni 4.067328229182952 2.903892328883831 6.83267172077669 -0.4736146858103585 -0.10614362313831399 1.4081415222627427
Ni 4.286742111077877 7.2922612674988425 6.029287500056128 -0.9779656243623092 0.08322609511019215 -0.39950829361324747
Ni 0.5880971312114771 9.14997520628564 0.05128452546571181 -0.1288032695193588 -0.11738628593166882 0.31498224874470915
P 0.25438753435775435 5.848669118616758 8.152152414668969 -0.01151982771414145 0.21389367153179936 -1.514552025909198
P 8.663935841993181 2.2320286162971223 7.9577238868516735 -1.3517163493954785 -2.4176556108552947 -0.7122868498384184
P 1.8499077275259705 3.0613678047045565 10.352989967187893 0.540655943630572 0.4575067245049024 -0.24643021070692397
P 4.193542339673774 6.519939376546211 3.4770225336393183 -1.5915100286224912 -0.1870485263144972 0.3993028624706607
P 7.3105944513722205 4.299186398736948 10.330874194629883 -0.783984632594037 -0.35291939011011475 0.5110846577313585
P 6.362947794522941 8.014842528101793 10.10911844935671 0.7009966216365798 0.04181539337388928 0.48100146519273285
P 2.4200076615007933 8.614934747447156 5.973097387092824 -0.04239080626138506 0.8584862033470375 -0.10538206238194109
P 7.136967878802489 4.10952742034966 1.548104992067812 -0.3993460570037703 -0.18397348693359927 -0.8517532554985782
Ni 5.447064656944318 3.095496012532587 13.554404853940321 0.8653785595914967 -0.8664514809407013 0.17326381382557904
Ni 1.4746435225640353 1.434352516372195 6.967207891576569 0.03446666631830193 -0.23702871488736602 -0.4652465163513213
Ni 6.846960282909079 0.9034981953852775 9.078233842280738 0.5060725492287478 -0.2841482940829881 -0.5202701808853685
Ni 2.929630000865431 1.6093759899043907 9.023753791737496 -0.6426220383524287 0.8457101346282919 0.20374578446452005
Ni 6.399632422412996 2.016768917002987 2.3727221074178204 0.49421693544174244 0.9594865917215152 0.36342028964143863
Ni 4.391719674910594 7.0121597993457785 10.262924549381266 -0.4132259003096561 -0.013693695437008675 0.696308215021975
Ni 8.636910829908919 7.100849315354738 0.3082996944443616 -1.310546302915072 -0.6012200783668743 -0.44931621827431006
Ni 7.7699831365180705 4.3439602701089814 8.13992542271517 0.1946091122705745 -1.6825239952082183 0.2686720528242599
Ni 3.2463430563353484 8.432278534015486 12.195998099567893 -0.529514582301772 0.7883184840827004 0.07790648266949164
Ni 0.407956252519407 4.88677954999334 10.098147755261964 -0.8979410669085504 -0.3709513079111611 0.9415642029151395
Ni 8.630382828679107 2.4569844516836516 5.550418894037649 1.5745312346763076 -0.07946508540586314 0.09901061163795852
Ni 3.6653403045012074 2.8756712774134074 11.655273258120063 -0.008011300340250719 -0.3558077674015033 -0.45280469104354276
Ni 1.0278452062236572 3.158420466344997 12.491609733440125 0.6643496598375074 1.1737350754895721 -0.8221444314932098
Ni 3.4295288139227234 8.45438243748035 8.2949741254913 -0.7828644029466646 0.032571763288434225 -0.9639952782251461
Ni 5.823187088641362 8.068792121482165 3.437549581867326 -0.6542750492103249 0.5435687464019929 -0.3309040621812882
Ni 3.1822408232800776 8.594976410820063 3.643001758194936 0.7026488125280221 -0.3377416539284119 0.11573203815769746
Ni 3.4559603713497293 4.311758507399119 9.163060424974546 0.3867736196553984 -0.21184115987814484 -0.5230122624068799
Ni 7.630201739555216 6.262170063649264 11.369176071914387 -0.14207761803076177 -0.19465230680368412 0.012775040277481222
Ni 7.958427815375896 8.626146475433465 2.3814349347935 0.2904783500660739 0.6929454691973291 -0.3648763053616748
Ni 4.540740704383338 0.7205187774171949 1.3867766260107492 -0.820599198493277 -0.8434984716889539 0.32670699338080506
Ni 6.120544392213092 5.651404790544947 0.011756793263818892 0.17335508798780466 -0.41788036836253195 0.8340165003404475
Ni 8.224688094907426 9.119873360055298 11.014460919215306 -1.3638632691706574 0.05498509798662789 0.44895060740477516
Ni 0.24126944741090725 5.078419753928697 5.687401011032586 -0.12398605063637357 -0.6383645486276553 -0.012029420360708315
Ni 7.403812482919624 6.093793282278333 2.706418009164068 1.2760009608400347 0.049872202240094754 -1.4032052613033899
P 8.774665350965453 1.514770187466174 3.1089847803884276 0.12113983943683009 -0.706077635703913 0.5915740706366779
P 2.069202918489445 3.3643492324127418 1.3870833964181921 0.13509244496218026 -0.9103803211131676 -0.5418378797538154
P 4.89713305124454 1.2710520548387132 7.980186602132387 0.245966383696628 -0.6176748814887878 0.8323841069433471
P 8.301471997484668 1.509702997700375 12.470536615064557 1.1175091631173075 1.5369545619741143 -0.3364669009810463
P 6.519994156976111 7.476159170674924 1.02349655309672 1.3315478448674034 1.5401046775673217 1.258562453648613
P 2.0999073494486926 3.4819354251942305 6.133891643958356 -1.1454907359318982 0.8123374727051171 -0.41477833239844053
P 7.080461865360091 4.019231011730286 5.458069132304169 -0.3588738079213368 1.346602168097365 1.0751504956454387
P 2.022429561426042 8.590046172129014 10.02378423467916 1.1249689618294627 -0.1693084287222568 -0.7807139322625651
