# total energy = -340861.69274582673 ev
CRYSTAL
PRIMVEC
9.36120980379193 0.00000000000000 0.00000000000000

0.00000000000000 9.36120980379193 0.00000000000000

0.00000000000000 0.00000000000000 13.70107679343996

PRIMCOORD
 96 1
Ni 2.0207014087907424 7.849954899996677 7.884120507785388 1.2780161914978505 0.38914006300504594 -0.8865510799040538
Ni 4.064993066541003 4.482137941098581 10.958477577990047 -0.5004873418314865 -1.814202272282527 -1.2309050969426607
Ni 0.46410163955989564 3.117020784344739 2.2366326931755145 0.1811031073643397 -1.2030752192145864 -0.8784472198499969
Ni 1.7698209833482457 7.424515993463649 12.332078799280401 0.8963032741948112 -0.25653593168235816 -1.9822480322422764
Ni 6.200294406983501 5.100904554580805 6.49666750419924 1.0223014701652071 1.0733314401588288 0.20752607744255874
Ni 9.061857134242409 6.4440883965282385 13.089008445865174 -0.9025027181373038 -0.948484841294373 0.26095797200945375
Ni 5.38049581080062 6.301283139434011 3.2037776693773297 1.411285210098047 1.2268772067301903 1.0692595840823005
Ni 4.443803786539364 4.546365202253841 4.003235292558569 -1.3199465131830492 -2.175394186814079 0.34441700906605843
Ni 1.7027104695423778 1.2890198814395861 8.316882688826762 0.11188978159347182 -0.07603574800934002 -0.08809550738735152
Ni 8.974872771809137 8.279802936394757 1.7334601718369118 -1.0763080062886496 0.5482283566611913 -0.24865601471364918
Ni 0.03530861151806004 3.179525582877558 8.569584805716689 0.7314654796493982 -0.851222836916405 -0.12434497663768909
Ni 8.069241242011246 2.8721315332411677 6.784594917839075 -1.4527833293418335 0.28266579600019065 -0.3988827442141066
Ni 6.11241136839939 0.322397260750446 4.270502515939017 -1.3457655311286822 0.11438066633612558 -1.361744680165758
Ni 8.932513296990955 7.6225898338344615 7.595725969771315 2.4876150707635674 1.2286656660891808 0.2720502252678734
Ni 4.1598034004544955 8.66892034849805 11.988579499163071 -0.10889881728594794 1.0315648977450043 -0.22472392937808394
Ni 6.118159151280796 2.9748333671042135 5.501160870349547 0.7487890585295105 0.3544183432531445 -3.3424037706543595
Ni 0.8796026856582313 2.545135110064606 6.042736819200661 0.9162138970758092 0.37117345122429624 -0.8550946611669853
Ni 5.0221299732338425 7.840930693648669 6.969806455801009 -0.7506813904562168 0.8013354651676586 0.9166137036173891
Ni 5.618439044155 1.5160573052551414 2.0001928701318086 -0.45963071282644063 -0.06954859762309958 -0.1032472754271254
Ni 4.348413057611788 6.3903363292561925 5.516766007260466 -0.7857327256333951 -2.245314823064617 -1.4177160533250552
Ni -0.1752568273494122 4.682514639105919 10.11243576596069 0.6361811678230914 1.5012064578402273 0.21287602890056243
Ni 2.60338991930075 5.547237681620835 6.911015249237333 -1.4015409862270896 0.32161749467303963 -0.01352683084184122
Ni 6.075472034115955 6.047931354576708 10.360795217575888 -1.330696809721018 1.998422842229926 0.7338105828428072
Ni 8.455709431711547 0.1458485864342031 10.0546171891061 1.155059867677572 0.5403273566465597 -1.1794598937884913
P 7.554430864519281 8.312117832985336 0.03644225403750356 1.555816946096256 -0.5647150414623049 0.22903155561450234
P 4.1389372635772075 0.46050693495654044 3.218341839746861 0.006728062752452928 0.16914413523025065 -1.3206785062530675
P 8.634405567579897 5.016541330920813 7.451604526564505 -1.281250382164432 0.9443340523507929 -0.18006001081180603
P 2.891996020658667 3.0566503416701623 4.175608867257373 -1.0467130662403523 -0.29829733188986046 0.2303890980836613
P 0.8125352334179244 1.258099805124789 11.064030836390023 -1.9462199349741258 -0.1708354068897445 -0.4998054852731134
P 5.131468904919228 6.05668408583748 0.6294112452647108 -0.2871289739778668 -0.277877887693244 0.26237105030689656
P 6.479529937226943 3.980096253916451 3.5057768537457163 0.6313932595161448 0.4907102078400645 -0.6144352915055676
P 3.208648306890678 6.633250365069899 3.4400667769415723 -2.0719003425937865 -2.469397519314276 2.4710779923404926
Ni 5.44691359507355 4.3075326539585275 12.965452644697717 -0.9304745207598814 0.9748746441418114 -0.31723684910684075
Ni 6.614013078716006 6.634195847270261 12.610594452482182 -1.0273470030089145 0.7932100078470468 1.3020182108394027
Ni 3.012296929142306 5.110527878362704 0.006325369532518471 0.9629732647185351 0.05476912532107987 0.04699359514071907
Ni 5.038072113701326 3.88426554812336 1.501679422962711 0.7835012651997152 0.775487136645987 0.8448513861724224
Ni 6.594195397348029 8.40635713309465 10.8220014349123 -1.5564502088048808 0.6136379924152529 1.298975310248021
Ni 8.25771048101997 6.858134710607403 10.36550858676284 1.5024740116987414 0.9774562888260586 -0.7048602183570442
Ni 8.431473259268612 6.454816343078876 5.454603829010154 -0.08680584204165051 -0.9717232429970232 1.1432865291917278
Ni 7.191627813457736 9.145302959331753 6.1980112078877765 1.54942646918888 0.34613090643337163 1.7399452134401647
Ni 1.7149549320975563 3.1242382771811634 10.495586342870812 0.6978940714518561 -0.03345776543781334 -0.5369085607729979
Ni 1.9383040392107105 4.74399906575914 2.2887371875043554 1.935689981977079 1.4131883406580306 0.4659941931506233
Ni 2.2468588788752677 0.8741422919208951 4.5082435471594575 -0.09937519406622884 2.4102896574085264 -0.07864978859341938
Ni 7.032852332266312 6.887556993337469 8.018815212618295 -1.6908883080125137 -3.0336898714168656 0.2910671326900084
Ni 6.078832708471696 8.661740300501245 1.5961621145295437 1.6929932701706585 -1.1432425633276697 2.1890228333411073
Ni 7.322038828638312 2.177979096397436 9.175350570883444 -0.7955983055735653 -0.8407787587649456 0.49175227595133375
Ni 2.271263553096484 5.772814756691277 9.48103526359126 -0.021209029977447343 -0.2933243041553013 -0.8156220569936599
Ni 4.178684960832015 0.33182587136632974 8.569695267993563 -2.2199084671763707 -0.04706995690460926 -0.5644278492391892
Ni 4.136447181742592 7.675153027448626 2.0215523427710678 -1.4007966518618973 2.5593257090349923 -3.4557050878833775
Ni 8.892166482302255 3.8869054093164492 4.325923686937047 -3.6319197568071644 -0.6479372799177552 -0.3184992607590321
Ni 6.246398365763512 8.876664318700286 8.469388967745097 2.7155364240330266 1.4101809212902745 0.6070806509127094
Ni 1.4264424428386853 7.229044569446306 0.8581477286779455 0.8147085440404549 -1.2515381998119801 1.5179422825376694
Ni 2.3340398267165354 0.8233624087935509 12.387102118857486 0.12327848304638771 -0.19467493251150345 2.088706872628164
Ni 8.972794583210323 8.472990225195383 12.115081273087497 -0.008971607370991 1.4308837010552649 -0.15949761327942208
Ni 3.7789893815365567 2.9341401876490445 8.849566424389524 0.11502704167087287 0.721439462871964 -1.0736062910867703
Ni 8.64276512802468 2.9851775040487647 11.640352788043932 -0.47927342675803264 -0.8215024270338367 0.5651899242161944
P 5.671872830290289 0.859858957848501 9.970822190887317 1.5666829422764823 0.7692691807607333 1.9224513717996181
P 7.75239237037124 5.1113048587847825 11.654793390442725 -0.1699612318149073 -0.9871393204417773 0.10699003029900929
P 3.2001670507171367 0.33517531227018516 6.627553132721977 -1.7714435411587621 -0.20562037577941364 0.42208257936933763
P 4.006747618514764 7.215695484122389 9.621718334400121 0.2918484909407232 0.7801593453106758 0.7108274916840726
P 2.9571313191746706 8.5399977656923 0.233710094235533 0.6110023545646187 0.7907954848682832 -0.8574495345524072
P 1.8986686764747578 3.47031284614324 7.7056640188905945 2.35926328695933 1.0901343706487807 -0.1550053818360234
P 6.2350057733096484 7.591548061790904 5.125162257806519 -0.8964521410678497 -1.3628775082186204 0.23751259650231996
P 1.0700330981419621 7.62686790676085 9.786556135125746 -1.8955378352382257 -0.3475720097552724 0.532373906127438
Ni 3.765116068457983 8.55881379760049 4.893285088470301 0.6631247862914709 -1.077966367827679 -0.06783495736610254
Ni 1.4555464444319957 4.598207582705355 4.702073014959539 2.699988191885782 1.1924789317559785 0.7518245029217245
Ni 4.073418155455117 6.447523960563214 11.922539907770286 0.30226505828835687 0.15829099456583062 0.2152257600796616
Ni 4.45110553026493 1.7141217844160495 13.528347812985501 -1.4566785506311817 1.7382074048134515 -0.18079894586035958
Ni 7.585304134784556 4.344743463329196 0.16450641389500312 1.084868751374467 -0.4481329965994863 0.20123535933784054
Ni 5.877707113671992 0.08598739357843482 13.257285555109739 1.0331782649787111 1.033706369568039 -1.8959386702210703
Ni 7.988500806584323 1.5469399367303203 4.7277348996709385 0.8699052438172566 0.8026608688473015 -0.14406893742917767
Ni 3.305733414810981 2.3345640544711914 2.0075095917932213 -0.6376071016363406 0.009481714238190123 1.0975381193120195
Ni 3.9199223966498695 3.6775325885908186 6.256048837054134 -0.5364732730077922 -0.2228987032438871 0.4160592559933931
Ni 4.594397570274194 5.657643791235342 8.297125855323165 -0.26165422674553 -0.051063651445034636 -0.22756037038561452
Ni 1.203140141775054 0.6989229094111011 1.5853106000081654 0.6813611067938394 0.8294893018940553 0.10744048757286657
Ni 5.948168940623696 2.7705904894062887 11.465143702865033 1.0877946667720106 -1.0788143176502711 -0.7391481930056366
Ni 0.2795669170740634 6.427771807664571 3.3255258209122154 0.5119158953834022 -0.3491241847337407 -0.5037220467187002
Ni 7.189755571476822 5.999805374457309 2.136175677447585 2.269520987997175 -1.1958907856510048 -1.5725874806863753
Ni 1.890505701437972 8.455643903242214 3.028445016227691 0.18385470196754786 -1.50988110279609 1.0501724855438623
Ni 3.964584729104577 1.672089951944527 10.827235287369945 -0.5368856779548625 0.4168331580449402 0.8958741570771926
Ni 0.7816760049675068 0.18618603991299856 6.272626603674139 -0.7728072758209787 -1.4037297663482922 -0.148784340626976
Ni 7.716098959571219 7.804524948329795 3.6515421254117686 -0.029673101584400507 1.341028016443697 -0.14581240248284566
Ni 2.5070069021232895 9.204503250768258 10.162307611727293 -0.5847390499927155 -0.7371491602977369 0.5513759011512375
Ni 9.296973282205608 1.2954884774836448 13.489627976578214 -0.18356236753810967 0.31962437550241085 -1.0307575713523605
Ni 7.605983047463753 2.59183818627851 2.302849211435496 -0.2553023163855732 0.4525714919868141 -0.4053123018895342
Ni 6.300889968618019 4.271828999382494 9.26957302081493 0.7439643834473574 -1.1932158099220032 0.28628822324412634
Ni 5.097777910472678 1.2512661218944523 6.38826375738332 -0.19435508727823947 -0.8594351975238682 1.1001066513701443
Ni 0.8193642360433088 4.3112584155005464 13.291072033897317 0.17405725626115182 -1.2860141221016625 -0.07582363199853392
P 1.1628026882962585 7.270308782705654 5.353722750473548 -0.2178408291050055 -0.3174880458856984 0.9479058288624513
P 1.9853160353514647 2.4712658027076384 0.2886089097208883 -0.23249046069738027 -0.019029248717309166 0.025646239813194544
P 0.0406941155761596 5.3668939728092795 1.3651901741910977 -0.8491587552985246 0.1071916047868541 0.48617195365007887
P 1.807761967091471 5.144378013377631 11.449634050295142 0.5540827585594392 -0.0894517643049298 1.5981758706784412
P 0.03362172149325639 0.2746373039383164 3.869307270816846 0.8581427039646898 -0.685553033388 -1.2163364550998665
P 7.2733979819741625 2.1357413173080126 13.425918390330676 -0.9242354818287051 0.28778049151893664 0.13380380805774375
P 5.839728685089148 3.26302757522633 7.572530763869769 -1.2517731986409215 -1.3570824988033983 -0.2280733054662911
P 8.557755980881272 0.8503236294397052 7.908000954251948 0.4653503889190373 -0.5031142379313722 -1.0292352211705629
