# total energy = -340857.2286128595 ev
CRYSTAL
PRIMVEC
9.38108169585097 0.00000000000000 0.00000000000000
0.00000000000000 9.38108169585097 0.00000000000000
0.00000000000000 0.00000000000000 13.73016131614907
PRIMCOORD
 96 1
Ni 0.49489051509889026 5.713191247342015 4.615064353693183 0.6199173976660614 -2.0288580187913317 -1.3096741847227638
Ni 9.166977142492968 0.32624305933452713 9.51972457157902 0.9346042266575388 -2.2961002811476003 -0.5059303672239287
Ni 0.5221753908367973 9.377582423674339 6.661050100232743 0.8441975546385073 0.7786256822749688 -0.5375659918513387
Ni 7.217382009055348 6.542197425426541 8.803696635023378 1.9558883113018248 -0.6346883853276489 -1.0439308755095247
Ni 6.225548398210686 3.5274086232895456 9.25768469638156 1.297595399181359 -0.24813382366159203 0.7015854042605143
Ni 0.686630441248824 9.098054336219493 13.412541331637573 -1.055922500653762 0.38330648704240433 0.42781973896343095
Ni 6.4357127685584015 9.272139066860147 6.642912717130915 1.6227116510362765 0.09705323080127157 0.8753266719431441
Ni 6.999065478825823 3.5398010320396835 5.828700504677703 -0.7171773451615003 -0.13011221813876947 1.519588302781525
Ni 5.7222815153805335 5.419253818600106 12.728751481887267 -0.5708103557267653 0.8704806567047524 0.0877419807026747
Ni 1.3242240929301088 1.1399515077075857 11.400688650379902 0.3049536608641135 0.8481151445253586 -0.6289237149297296
Ni 5.16039225383758 1.6643727294715465 7.623988103634428 -2.355239253401602 1.2231295667623 -0.33464141773653333
Ni 1.2809304014979475 1.642683668888414 1.0325287426827365 -2.6914264183587 0.34248251104750693 1.2046962997577768
Ni 1.8231287728315608 4.172189121559385 8.538059115044936 -0.1470413897939403 -0.24319576293002634 -1.1430201629042187
Ni 2.623072360221215 8.55132490248897 1.4354471340977895 -0.7974554133869621 1.097447359370426 0.5095525373575482
Ni 6.944636443573515 1.4030439402568735 4.6514901553100705 0.2814321807034056 0.27576649777719603 -0.194008245461782
Ni 2.2726045339559686 4.594797465075622 11.046985289082164 -1.0013179259350045 0.010222706169272717 -1.1810866307586367
Ni 4.151306833991023 7.822564962030462 13.422880221632674 0.331007677638688 0.09327139516133615 -3.1872631487920526
Ni 7.119837522920654 5.62373325351816 4.785468886035064 -0.261806178942362 -1.102073802398844 -0.7822889900591689
Ni 1.3387178639512765 6.4331986386984195 2.157131862838392 -1.3166058788455905 1.6431359803288992 0.7564056945345038
Ni 1.3161282195377024 7.151264146170434 11.086116594623002 0.7955566537023525 1.363522598001787 -0.8548694325300568
Ni 6.363572251307412 7.775500075808327 4.875388429072019 0.8619469082021285 0.7950648016675984 -1.7252894112002026
Ni 7.153271697625794 1.4832240444108675 8.488946338716705 3.15559847069892 0.4870271025615225 0.41197223040821307
Ni 2.77642490059858 6.018695549656156 4.029074155496195 0.6303231663804177 1.0604160176487416 0.5760870307446724
Ni 9.005312963847153 7.624755476106616 7.71578761541743 0.7874764477973792 -0.3071455263091097 1.23940927775893
P 0.26247140494954574 3.327807350786383 12.080056258279477 1.1016953360135027 0.4809425869303394 0.43752102541159493
P 3.43772548350808 6.607611707193921 8.994244225706133 -1.3520914733467102 0.9219613410825477 0.17475145411469903
P 8.43957745886169 2.022307896664204 6.6923829126668535 -0.8677961678940539 -1.1017572995996896 -1.4170974459044499
P 6.475010119242978 7.695385639225303 12.62381188915323 -1.7014210892230375 -0.7835822549492957 -0.19301168587646758
P 1.8630452748995663 4.468002766614713 2.9653439355212874 0.6834444716854293 -1.3609538088333466 -0.24969242639796352
P 2.3450171025724047 1.9144254586425669 9.33167610102574 0.6493891818729333 0.7552263295144219 0.9222835003086567
P 8.561437708418303 7.650562831497705 12.905170225621815 1.7366945677133512 -1.1986706623889873 0.18406553242677334
P 4.778319563772777 6.396424798955391 4.549571270840638 0.959776097937476 -1.2072481196453533 0.6721177338187005
Ni 1.7709418160737898 6.821312745292434 13.41414737280186 0.17139153650353062 0.6066852152465035 -0.8204827275200708
Ni 4.298908771367756 5.468288731951332 7.576371609816147 0.4504045662424824 -3.180367193003168 -0.330325821080315
Ni 7.095549902743435 8.248456684095183 10.064359209795608 0.5885666512689219 1.3600588078229028 1.6771100232814986
Ni 3.8010641536833867 8.320925539201022 3.8044216427762514 0.44884339240294957 0.026854658298998912 -0.7848582934482418
Ni 8.959692764186352 9.142999098007463 1.90668043770077 0.8187891418677318 0.9244028606445047 -0.8735443832317408
Ni 2.64944258050633 0.6929814334697498 5.18869685314183 0.25752297818597586 -0.2939053734697519 -0.724712477196281
Ni 8.484184501713244 3.4811036046743458 1.4020833175044025 -0.23598124745945806 -0.8441255637499915 1.7416339139964971
Ni 8.741967242095555 3.1705053750692693 4.321609112543822 0.5163934715387816 -0.06004477189772239 -1.2214056420926578
Ni 0.058749961422113355 5.505268955488836 11.72548889936941 0.4434327629103396 -0.32766627197028086 1.4430239359622246
Ni 8.682453660633879 9.305094806405364 4.565978782501494 -0.7974777819844653 1.577783165954702 1.016354765663469
Ni 6.56959018360247 8.900666998966166 2.794567912349349 -1.74837328960286 1.4399931195557005 -0.9783057813105475
Ni 2.468519041403261 5.942483643005044 6.551744552137377 -0.7388450599429212 0.30729105074803853 -1.0437552691636087
Ni 4.1529391421836985 1.330969090576853 10.378985675825597 0.16519286389198648 0.5834735530167307 -3.295022196046603
Ni 1.181059407134613 8.625763784723901 3.6747675906536914 2.114659330827868 -0.6497051704514553 -0.16231219991008175
Ni 5.909584189949229 4.207377558517573 1.3150925481326947 0.32273823854104416 0.04227356395723043 0.2605797627344286
Ni 8.072195542530963 4.9433515507011805 13.434084047348259 -1.9664041232314846 0.35892651553614313 0.008777489082313917
Ni 6.79836661977931 0.5244972085246543 13.708316514258478 -1.783088324486542 -2.3383666460159795 -0.6571292308296682
Ni 5.745424643606566 6.880638705122767 6.829341074897557 0.8116414750793569 1.1837389807798193 -0.3271065428120689
Ni 0.9944415515203153 4.738412442786338 0.22910289781537507 0.8670353784686293 -1.6491785869785534 0.30807472299159844
Ni 4.294668522499428 4.026257016701595 3.3125246308054224 0.9674963493998692 1.0711619433113357 0.5581620708351355
Ni 3.716456179029722 7.163928606286019 10.972870054161298 -0.06888139635274589 -0.0532863701279663 1.1204826439233349
Ni 5.8797992559736905 2.7588447537418372 13.268896334465843 0.5511738124427605 0.02015950566701044 0.9145015423703928
Ni 7.419450506010658 5.185608601089941 10.87136299917266 -1.0614735123789782 -0.6884234129572595 -0.03335697819389094
Ni 5.6991759114807685 6.048827583649677 2.563187287929483 -0.22342166562689264 2.0289577775939893 0.6385640662329712
P 4.752793640828701 8.083049453904097 1.5742317929096068 1.295874302725194 -0.5028545565120824 3.044867228189924
P 2.153005125057025 7.999220109020502 5.783171301508101 -0.33018749573023776 0.49129256270609584 -0.021670285884582034
P 9.077978821665901 7.58506411999622 9.798597859540482 0.960389820262075 -0.6855545760498968 0.19913759626854735
P 3.1364895733069686 3.535082348011433 6.200046866078685 0.9288686097253422 0.45012200200505703 0.4226088841864528
P 3.234512494601585 1.3113157246937805 0.8308157887188201 2.5330634329043535 0.10068002892058146 0.658786306817117
P 7.696004790608732 1.4253802954681358 1.593261316868467 0.02028343283938442 0.6626308773741878 0.5650521130867494
P 5.212635497084753 0.19846053298460337 4.912308613687494 -1.6862698354038959 1.2715614370114423 0.1049010089804645
P 0.9719550990039794 1.6680219702011478 3.86147081411025 -0.6830860599047461 -1.0586707528228607 0.5036351434318488
Ni 4.095433112177382 1.2640350735956025 12.472835576736811 -0.2356673157634651 -1.3998132049027052 2.839323728395032
Ni 4.044953512264823 3.6128608952842494 9.060217619934912 -1.556263032494739 -1.1261922927136023 0.11508514860231793
Ni 8.6604925486853 7.153384270604599 5.651718896049129 -1.3385183626479658 1.0202368743266943 -0.3757772685448948
Ni 0.04337812116626515 5.3765792785513735 9.468579852983353 0.22312393188081575 1.8500375368135815 -1.2879360217147235
Ni 1.987119459706016 8.356461076177194 8.959616777425659 0.008038811144076476 -0.08515159426767915 -0.38972550319487076
Ni 5.416317540069604 5.7274786345687065 9.666692347841819 -1.743312844360817 -0.3219633080482326 1.5352797453748528
Ni 8.365157338789894 2.048340398012903 13.181833330766068 1.0950364359360882 0.24826752102597888 -0.07689706756837078
Ni 0.90924350683608 3.1462365170551845 6.0679349705855445 0.6302354917626178 0.4435034682472749 0.29530662469265273
Ni 0.5028156528067754 1.9492292712565036 8.328510143648023 0.7245638674335586 -0.21580528673221544 -2.178034966871036
Ni 5.347676166243142 8.90330308288652 11.254695568491927 -0.43914673394047593 0.28938948787726937 0.5796960882521693
Ni 2.543792839897663 2.8714177325470236 13.12754407362911 -1.5541932944499042 -0.028777329243008503 -3.183965451877387
Ni 5.451524739190926 1.9311613081582713 1.8157862002889922 -0.43870758952052835 -0.36836734923406883 0.5747888807585392
Ni 3.1660681234880315 3.6604698842372763 1.3075632920669413 0.5642226752069186 0.5284144072590576 1.4132778150480434
Ni 4.865910722364779 2.4876752099632773 5.158352806704892 -1.4018832000578567 -0.40459367855595485 0.1720008879527554
Ni 7.835764143795371 1.2885290775672977 10.869893921799253 -0.39464762308683643 -0.1111978977327698 1.5157015661326092
Ni 2.9427983821910786 2.0072700229121443 3.2162906817656522 0.5891585192166499 0.09334570004269731 -1.2089301353334665
Ni 8.354622384190042 3.8236162737706927 8.015984101780907 -0.05215611317826501 0.863935142276751 -2.1591646123290946
Ni 8.292857343152262 7.554547461658448 3.3035863362882907 1.1528392058771693 -4.106687068164727 0.6884702070347949
Ni 7.554481794087478 7.282477334049447 1.1465360888595324 -0.8207316103060833 -0.483733005191283 -1.4034991383947246
Ni 4.47053565863783 3.5619591467011706 11.564777838610812 -0.583949978432517 0.8719122469449565 -1.005214175665617
Ni 3.3351152133271533 6.13172820145813 1.3126928674678309 2.635159625446171 -0.7487291518258524 -0.24550641334107398
Ni 9.12461217813595 3.153910241777072 9.963181430769977 -0.05322312099019866 0.060604243945618204 3.4976953162722344
Ni 4.0583684589057745 8.8145768134249 7.03516950934496 -0.7047566028996443 -0.16031548119502714 0.13148313034436712
Ni 2.654189407779282 1.644391025733626 7.214004819691192 0.5774317176980249 0.39033536886472775 0.8701294440129209
P 8.902383736892945 5.616115815285675 1.6760268471023534 -1.7761702572104703 0.1528366563194787 -0.007305275412161612
P 2.3988082242781497 8.764209786491145 12.2310888571853 1.7230191271087874 -0.361529500376629 -0.6971067996638703
P 3.3004802601814243 4.979853339078762 12.792872112506545 0.7130689794200816 1.1560366297685445 2.1591386441871654
P 5.7920955244028836 9.282261253871045 8.810960406480783 -1.9679598977543786 -0.1652450572861606 -0.25095818048426455
P 6.784698383936047 3.2234615805155427 3.3308411925651833 -1.316349025639778 0.9043294869333973 -0.1439108145847586
P 0.4482768589001327 5.4166364968428855 6.775477718863745 -1.3829961333453666 -0.09405455318426383 1.1086015762150327
P 6.592489403707758 5.045455242477484 7.536499198831507 -0.8273604284765105 -1.704519525642703 -1.2028960133242446
P 6.200754199628844 2.395327843016756 11.274590028171271 -0.6762741791892354 -0.0470856406338931 -1.0040474090510256
