# total energy = -340857.2169677477 ev
CRYSTAL
PRIMVEC
9.40897354841902 0.00000000000000 0.00000000000000

0.00000000000000 9.40897354841902 0.00000000000000

0.00000000000000 0.00000000000000 13.77098386173296

PRIMCOORD
 96 1
Ni 0.24573980470078893 5.152466763094941 9.676787636683722 0.8498578382480784 -1.9185276112651797 0.748240385114892
Ni 4.471379402737327 9.130119693573361 5.179514739041174 0.4383525201739547 -0.12385441015451572 -0.6087644663730355
Ni 8.110431606052178 5.45958506513029 1.9333219900228653 -0.8356764045413737 0.6803339510809057 -0.14327420944202424
Ni 1.1122723861648491 8.775702482058165 7.672118341967255 -1.2727480011203758 0.5106560548343722 -1.43005452028575
Ni 2.899337529456355 2.411322304075163 5.03011341338637 0.28374617354856296 0.91109277379916 0.45495901838238423
Ni 9.429579091229042 0.155772141570621 9.746000986201269 -0.9038224653899918 -0.8798790672005169 -0.5850234140023537
Ni 5.263210380476641 8.493809637813838 9.376084372739353 0.33837825907114627 -0.5537701124150268 0.5293639156565205
Ni 2.1035641918459342 3.7087632875273404 13.752379512590167 4.572900576415009 -1.242414897354473 0.634388851809359
Ni 7.135549050049399 1.7041250424232237 4.3230836314616505 -1.3553665445535559 0.8745851657914293 1.571762156571603
Ni 0.6027783562162021 5.225527441851857 0.28813852081339864 -1.8354799507143806 2.8313934178043625 0.10952333824382429
Ni 8.124921425148848 2.250579401836509 8.090811073739003 2.0051118242143273 0.28791727420711705 0.020658299680299905
Ni 3.9665315238730545 1.7403401811914618 0.5655715116474516 2.1016480061698646 0.505423088570207 0.6581417312545828
Ni 0.6783728715203475 2.8863249191896694 4.601051051987062 -2.0684272964435215 2.3040293061866897 -0.6226013722561277
Ni 7.7173717406213775 6.427975429459884 10.624837682232027 -0.22625990640663615 0.17459230282901544 0.9295034150958636
Ni 0.2494337676730961 3.1722071681723003 12.728713311098806 -2.0622666761587642 0.6035461553968896 -0.462762573587203
Ni 4.369197951185479 0.29467493466174755 7.633490742409155 -1.1988434405214254 0.8010665277769882 0.28293884715591916
Ni 5.012338921662005 7.199708839932646 3.48675761832743 -3.598799577214428 3.747507298967198 -0.4799354858220637
Ni 0.3655038049188385 2.5059859858489344 10.167310353486512 -3.3146785368249496 -0.9573294361691964 -0.5504803859201616
Ni 7.20635157518086 7.877456014719273 1.9215203146378297 -1.5147690270160106 0.1417893973663816 0.06686899390840742
Ni 8.351037874844431 5.227098740416237 7.482519059087314 -1.784703748602778 0.8113565968490866 4.12085667479689
Ni 1.5902764638065228 5.178576664389266 11.890927966184135 0.3832620069577141 -0.5245222712935032 -0.7208761341693263
Ni 1.338765194798008 9.269513635078026 2.3633214851767366 -3.023625288092012 0.10482953231258076 -0.3068411076948135
Ni 5.737112145698737 4.497555166845729 11.314997174779908 2.8317482300406196 2.1193945315200082 2.789820222348266
Ni 9.337888645062122 7.164547506189621 8.930194062343684 -0.9442900864867351 1.8162689250035688 -1.2169800022211363
P 4.816039508795869 7.318854670595727 0.7142841004464933 1.4533263463294972 -0.1598539681775763 0.19017190243482732
P 8.570144639327664 8.361726468671586 11.62181533056254 1.569953128387322 -1.0799736280656949 1.399808576917015
P 5.222469525484052 6.691915952381843 11.024884651338922 1.2115976548633005 -1.0099570896672414 -2.298709693745989
P 1.4419157706141146 6.86211487292709 1.4336697462918273 -0.07326127058799642 0.5277042685659106 0.582174888809965
P 3.770166248192844 1.981445125576004 8.942670361124323 0.5833894779433565 -1.3926107736169953 0.4739065060191645
P 4.0809164139758005 4.269754510904494 12.656002646153835 -0.9984560310061774 -0.1391074796588443 0.8215862449968948
P 6.079391781477113 4.7140180097924915 7.269496136829996 1.5020001573861164 0.19433503267358143 0.4996717879087265
P 1.8735053822792442 6.463052082441956 8.369287519727484 0.4265570702009235 -0.46654235234460945 -0.09405609584616059
Ni 1.4559257320653762 8.07761310669556 13.200850893801016 -1.0434631918444868 0.24365007685862558 -0.25674033438368044
Ni 2.604535573653176 3.5715522278606175 8.12251178705102 -1.184113847620735 -0.24079769501149498 1.1044343322112204
Ni 8.326499272114484 8.049781363261825 6.5744599733484765 0.7695417176958296 -0.4240091069680891 0.7090657717979595
Ni 6.30076610855924 1.2908264751242815 6.6287591590672355 0.06291026637097553 0.20723759966786245 -0.7551309415871382
Ni 0.48473996172693795 5.031806087708117 3.5459729926682737 0.08971195994485194 2.068739428367302 0.06062301299869558
Ni 3.8109071031854316 8.173669316538362 11.614819758810349 -0.1095775885205274 -0.7417180106153419 -1.232449558611645
Ni 0.42361268398320895 3.7709848288820713 6.698729930946653 2.556318289667236 -1.1127875892719221 0.9483606570116828
Ni 2.510060071348193 2.17476189386185 11.660346017694213 0.9144668324777153 2.658509098805389 3.290409894085572
Ni 4.995515677152364 1.237835136713599 10.959678583609216 -0.5487009254222357 0.23277662447923136 -0.15865557699410096
Ni 6.278165754357809 6.306731397719818 8.748554770993472 -0.5283478156871804 -0.19776565562168522 -0.27799667265929545
Ni 3.4649673767391307 0.5256652325989382 3.0075962369527103 1.0354794023080618 0.8510253761936183 -0.1463155673715093
Ni 4.494403160743531 3.4650991023672826 6.790430726984358 0.9020527750840788 -1.638719339318442 -0.29914502460213643
Ni 2.8051537053279936 7.580979261643882 6.698248191506556 1.2892249157294764 0.7208324254155843 -0.3597006746980063
Ni 5.411909796712867 0.05437822109564965 13.129586388073681 0.8095341989283671 0.031977838458177185 1.0390956589044105
Ni 1.2875051075001742 0.9017889458388237 4.33733634442765 0.3825498113820379 -1.011834252085296 -0.2258246186414304
Ni 6.782392640975082 3.263991704073616 1.5634194900211087 1.3363223834379114 -0.7415658013081938 -0.37021674373798175
Ni 3.01998879586974 4.567764926650508 2.609725563402347 -0.276464295175169 0.07929744947974732 -0.361945504868125
Ni 2.9456390877516268 8.478209559851319 1.0311171675580202 3.14527266329288 -0.8817444025440299 0.47541265825104584
Ni 4.615515466855446 3.7637775552274935 9.857449335693579 -3.2033142887176442 -0.7290841239014153 -3.1467919281508836
Ni 6.1188153801881855 2.2669227887007413 8.89240574321638 -1.7116641071072844 -0.6776314645480782 0.6023112545485241
Ni 4.8382164591925285 4.603622524428048 1.0292457227409242 0.2756595398856866 0.5815935623851984 -0.32148585419118186
Ni 2.1068855594700415 0.8561027344064888 10.155880332552334 0.8300402893015189 -0.6049754316442484 -1.6964172082505429
Ni 5.537340821633465 4.95969571526858 4.817117777152025 -0.7192571105086645 -1.7966141268871187 0.9143187369356253
Ni 1.1552619858094528 1.6450272802503725 7.9453615169287435 0.008326003367192112 0.4458747966929289 -0.20135722962768549
P 5.923118141622172 5.657653365003031 2.8622435925688774 2.7878492146648246 -3.3338180858678776 -3.3317673739864357
P 3.315515242627753 0.3033810577852214 12.725422052189705 -0.9814836648178968 2.484849335092972 0.9478952873394901
P 4.9615586920095796 2.1918485896277944 4.987615903052646 2.172290608188091 -0.7326746694661511 0.2675122281882038
P 8.245826733845096 3.7083116568022496 3.217576297199728 -0.37953647847701083 -2.04618648276745 0.7346942709993411
P 2.532999148593442 2.4426824125486726 2.0444814840305865 0.05301768984761192 0.2482202127278112 0.6864989422410371
P 2.734285317382457 0.42370206923088327 6.11961890651991 -2.1478615286114495 -0.045990350687185315 0.4474290285539262
P 7.240854280783128 0.11492026069144813 8.392698927439392 -0.0998261655607184 -0.042943336330745395 -0.4646474493147417
P 8.775100307758043 5.043868391657424 11.98286304566048 -0.14559463004508474 0.12529165682167454 -0.14245968396052883
Ni 4.946598424240939 2.645379927353597 2.8523839293017335 -0.8823514400004095 0.15063784889594703 0.3663508330246723
Ni 8.363956395376723 1.1487039313221934 2.676486934441587 1.6604739573867144 -0.878331777318055 -2.235179534402828
Ni 0.5398031560889757 3.3466307177918377 1.6236406836226238 -1.0317111935148813 -1.22588501802025 1.4753699563930978
Ni 3.2387568373091544 6.3090742321062265 10.390000995952812 -0.9168152781052339 -1.6196242703602042 -1.0350448858738046
Ni 7.5214298687459396 4.148915065022321 9.636810790334414 -0.32033528552650636 -0.24676702522105243 -0.404899896942464
Ni 1.8638894114241806 1.058415422197742 0.4177038486632678 -2.1589802642324303 1.2435312703471033 -1.320569491479029
Ni 6.421041016035049 7.323135753510653 12.573211207065896 -1.1444898054712096 0.32928606696189094 0.6134721562613499
Ni 3.2701357637295425 6.235110291899129 13.445589583727852 -0.3146989131763354 -0.2200499209411823 0.08451987422095121
Ni 0.16398052999915072 1.05922459391353 12.125200114056986 -0.11484346490515704 -2.428462471662811 -0.358674290316021
Ni 7.864819763390164 3.98640327577706 5.6224722724157825 -2.104622515417156 -1.8811733389864373 -1.7747132130489693
Ni 2.595079555346582 7.632982657843428 3.361249439824629 -0.27515483233512616 -1.2002377497657908 0.3901836737782119
Ni 7.131051560745368 4.816585229255355 13.43859307107832 0.6994331338042019 0.5121146416577697 -0.3307927334144045
Ni 8.869735762611496 1.1712384227095485 6.182097312849536 0.45289056588912974 -0.26149558968047865 -0.7968643167701825
Ni 2.540488691451202 8.347716507220325 9.302547599926402 1.6788537454454826 -1.5280415757552006 0.2722595130652021
Ni 2.9826163533684555 5.2452392412073925 6.702034362418569 -0.27497691199636515 0.9706909450777671 -1.6026133376245044
Ni 0.938344689445568 7.291295787391734 11.129997939014487 0.2501763080129175 0.331233677606565 -1.0172675072857256
Ni 6.020444562879293 8.147935774181613 6.792758507013265 -0.475902967623903 -0.4562707952152722 1.5655871381091424
Ni 1.0347518539976592 8.33827930686061 5.229572359533453 -0.6116644136286498 -1.2318556337813882 0.6400635335966331
Ni 7.219138370085 9.379090539753241 10.60460744843998 -2.688094268661674 0.9882191837695175 -0.5714464466488673
Ni 7.447522382379478 2.3257853265376074 11.223875030608726 -0.2048361893152214 0.22324117418497036 0.6563784687065728
Ni 5.665189952727989 2.8086538434474493 13.083040196468986 0.7327880551155638 -0.6770933326564209 -0.24708044269641316
Ni 8.30973248144548 7.425909970389183 13.643285288252395 2.4745947472445 0.11516382435905327 0.8367840357832557
Ni 6.726032890073094 6.986219232592734 4.8358049393000115 3.191866709002335 0.5677522856267319 0.3215483319980011
Ni 9.16851771417954 7.590877501702127 3.2613816548415278 0.21255052724034362 -0.640097215048046 -0.2518614090248243
P 1.8706638723005464 3.704745655868718 10.169431136099753 3.0383214566516057 2.6256568281620587 0.27880811281699724
P 2.2718813177033033 4.672213940801251 4.590984391304251 0.3338811425317411 -0.8564221217291574 1.882366330853274
P 8.764788072868464 5.858215042837212 5.664969782749506 1.050939188506558 2.5411343828379462 -3.064036087808891
P 4.615477830961688 6.741642377009055 5.687581427719065 -0.43174298527723703 0.9468239086521822 0.4183408529387182
P 9.28875498576159 0.30709195690971947 0.5048177701492667 -1.491821931301534 -1.3493859014900889 0.7505026987865074
P 8.198320826949583 9.023581887319072 4.649083861395182 -0.19439905314229744 0.7260653916797495 -0.8476559455007531
P 7.810699348166754 1.9617239172470284 13.502339807027573 -0.10971025744364975 0.8426024422372457 -0.37963469461777194
P 5.600964300030666 0.7184268714518597 1.853244098874847 0.08866372118599569 0.10854529060127112 -0.1572011039357615
