# total energy = -340855.4627148651 ev
CRYSTAL
PRIMVEC
9.44362267195038 0.00000000000000 0.00000000000000
0.00000000000000 9.44362267195038 0.00000000000000
0.00000000000000 0.00000000000000 13.82169635640940
PRIMCOORD
 96 1
Ni 8.53196340220756 7.949915180717959 3.8152716021632385 -2.198158991314421 0.418614418315079 -0.8307740821437499
Ni 1.0260684583393629 4.781419332168018 3.320219918720923 0.2740325458052248 0.4307492539054001 -1.4216367285357001
Ni 6.1033942540203 6.6070792970382675 13.032090276488699 -0.2630120263250051 1.7659696625283843 1.662870225533033
Ni 0.5722693505198053 1.1141585678577297 7.734938672238327 -1.6626455111167364 0.18525672452139708 -0.28498184572787694
Ni 0.7240274177313405 6.358882013766214 0.9108543766341768 -0.7823254997240591 -0.03216527187863493 -0.04184804638403761
Ni 3.2674555674224703 3.9898171301667777 4.866107848906741 1.6316845439588479 -2.6652723856711513 -0.8487635767426349
Ni 4.604398630739868 0.6778037192901367 1.7933788305041867 -0.862059779630909 -1.9551599177762329 1.6329508122657812
Ni 1.178356312766162 4.3179641204695445 7.817012249941282 -0.5553621394924951 1.2588049086767223 0.9569286011863519
Ni 1.9676637145301634 4.433591832834776 10.576721072362094 0.15198896360720276 -0.8584424945932957 0.0025042544790924615
Ni 9.000319853918903 4.01254792922453 11.470224681605824 0.7263839513614329 0.6892585072640451 -0.6955299420950537
Ni 2.9201757981870053 2.2947246882597514 0.6081381170263084 0.6321802741938144 -0.020892012957660792 -0.6771049026206468
Ni 2.9929105777228604 6.728713153234297 11.766907410878007 2.598444786523641 -1.0462245566397077 -1.1058882910489276
Ni 8.448935074282446 8.75276473696838 8.992035908371141 -0.01837901672781996 -1.4658180510386045 2.8238037783825627
Ni 7.540562481608541 1.7313748390735755 9.446493236670271 -1.388715552327647 -2.0475630514000027 2.8982261591581957
Ni 6.691968018571351 8.597587134094688 1.590186074024664 -0.30403886235932803 0.25653593168235816 0.9185569433866891
Ni 9.475730691544719 6.0600858018064026 8.959886984718336 0.026044246582561596 0.7362844983045965 0.7011238912430634
Ni 7.104304902351416 0.16656283400955663 13.373002211156384 -1.183186193600143 1.1183069764282547 -1.4159664176238
Ni 2.003757239249203 2.487195155894167 6.244172221495878 -0.6224908148201924 -0.1841958873570505 -2.1551117824159594
Ni 4.751029755363763 3.36277004805807 11.893472726678505 -0.2106345411645534 -0.1363314595756039 1.2226289729767976
Ni 4.510302377390704 7.457600259040054 0.9513250203242454 0.0872879238843916 0.8009174037936335 0.5063759394017795
Ni 3.04898680738839 5.817601910071508 0.031668243273894815 0.4622537522715846 0.16691524589973186 0.9643999698627327
Ni 3.352334845333178 2.044780334848236 10.451261604741765 -0.2454439355342547 -0.39249509552020795 0.6273499426847067
Ni 6.644816012050638 -0.18474747325575805 4.92858213273165 1.2485955722438882 1.6433380690373762 -0.505167006695343
Ni 1.0405833059304574 8.453307471442287 8.229492676781454 1.2207518105587427 -2.2528998345007265 -1.1646876205753232
P 7.64927746239493 7.676323996878271 6.939846107407113 1.2470878773501102 -0.9473185889004138 -0.2289179128547735
P 7.735252200501192 4.26148181504187 5.763246308402788 0.9757688738213066 -1.2140291471229285 -1.699016593546603
P 1.5615973960074097 2.079268443763446 4.084186304202594 -0.8053636124904453 0.836212993771134 -0.7176499139225446
P 6.605700528171449 2.2861593227652017 11.835255627820457 1.9692505915413443 -0.9876003192385959 -0.6481985039989417
P 8.305297577951576 5.365233511041834 2.3330742943642897 2.108290451187046 0.10690646944626751 0.36212728186162796
P 4.309927597828021 4.958203943036782 10.614233029161928 -0.44216443772087727 1.1639977935971504 -0.9607801137219583
P 2.5833878934106855 4.040623818546797 1.7197506842916117 -0.291800154201291 1.4898393536538663 0.6870594427301974
P 5.868588027276661 4.288046724784062 13.97511718583162 -0.04767056660308564 0.4876472526440247 -1.3307338336065404
Ni 0.38231466388621416 4.414345730433572 5.7237993533782205 0.47169124353540054 0.41252141804346376 -0.7481174863837826
Ni 9.064470380715457 8.891935399915655 0.6731262931275674 1.1401605819682363 -0.7187706577905493 -0.09109444211467538
Ni -0.08382064784241756 0.7174404911244515 2.8873799864014793 0.00671674989854327 -0.2495600145851573 0.34240229262887484
Ni 7.679289294304168 5.396463570237506 7.503840011639296 -0.44680450759604984 0.6898064093477153 1.4361989426205912
Ni 6.285731714845839 2.7387260378647604 7.192727427377399 0.7345448899056705 -1.3998695120619375 -0.20395327248963585
Ni 7.188428690472086 0.1957644031189792 7.547378888239154 -1.7117584665933034 2.333706778646465 -2.014233841120254
Ni 8.570710584814107 2.6969852269651917 13.30356231146733 -0.7511326190610225 -1.9130938418441181 0.12361221223672261
Ni 6.345453182748299 4.297641445117537 3.3904068089398773 0.5558105398838235 1.9649103122947773 2.8727766087368396
Ni 5.3458835287944995 1.9776267361362823 0.23978018264879858 1.4585482568500687 2.283572323883919 -0.3213650123426014
Ni 8.92107841856635 3.1537071359099564 3.756183801322172 -0.2565071353269518 -0.22864357614746428 0.6538958114940351
Ni 8.096971268348748 4.896480427190721 13.88071495911749 0.8811731034215922 2.5528460148479195 -1.3959005001118605
Ni 1.0231881535148453 7.82296456512454 2.6050440082421087 -0.20102298621671832 0.9493392188748682 0.7772033480061453
Ni 6.414996017921245 9.091998539939947 10.719195114416308 -0.2534287535119442 0.7970743758984595 -0.4420554229468387
Ni 3.0299862391689487 6.037288897392023 8.990875287181197 -1.4267308552291555 0.37980618719862974 0.14734786529076557
Ni 5.621675076647671 7.819744289894506 6.261836517149192 -0.764531923186064 1.3414327080812833 1.5396966434956258
Ni 1.7551822110821307 8.037060927998777 13.16551071777155 -0.42635780970592374 0.04010175311689223 0.69876978918859
Ni 0.9546180114465711 0.2876876789595484 5.127020025345125 -1.1668537749887067 0.9192650251973071 0.7932452319603565
Ni 2.7656498052572203 8.543881253645402 6.109079314690332 -0.24914298165239673 -1.3248773748257634 -0.6300208046486505
Ni 8.573996965400768 0.37577589975344 11.29081946552787 -0.593761822316616 0.3863591578257991 0.8378371596381183
Ni 6.444365683508952 6.322202984459896 2.0294948876713037 1.3632639450237618 0.9854048542491739 -0.11704664320406294
Ni 4.46502965172271 0.8292945319884463 6.21511891725775 0.9222040532209731 0.570319789243592 -0.1676816917521112
Ni 3.9439683435338804 6.418244624018406 6.337137128884462 0.44477539298116303 -0.9623567141804586 1.9579567637950792
Ni 3.3879845198005696 8.294106885436644 8.51748160729478 0.5401108697603795 0.5199860739860463 0.19009116979556293
Ni 7.12084068513086 6.431050175959542 5.226521808142007 0.665332592576067 -0.4681508344823099 -0.9958160222801687
P 8.407317030473758 1.3836134450969617 6.020413144207062 -0.6260674764278573 -0.5391677891208198 -0.13404497753427239
P 4.151019764116019 -0.01098387718490698 10.150571002133434 1.2361450051853615 1.0628002016102018 0.2672281212888817
P 3.1067251145920025 8.353393946709833 2.433116252361049 0.8360870097162312 0.7248376899202356 -0.8214816010982304
P 7.522562937360899 6.45097621917178 10.062263689300432 0.6156593937206558 -0.39207831969776347 -0.14049510403499033
P 8.366303378497099 8.079283363639496 12.508607623522797 0.08908512499413046 -0.41769987692060967 0.30835677300839154
P 5.18219722216051 6.983181001763661 8.279209571139344 -0.5914845962466652 -0.8167705687758062 0.059439534213555696
P 7.763545293138095 1.0874708910246569 1.4523696265260326 -0.03007187968471595 1.3437634130969889 0.24609545307532454
P 4.04201203103599 3.066910802657029 6.814924926262183 0.6364390494701685 0.10280530279370037 0.2618465452619942
Ni 1.9423831374310354 0.3248190577776515 1.1760539576310227 -0.31926287839793405 -0.8891021284606816 0.4686131188307091
Ni 4.806926556204158 0.8099228294096485 12.217798827368158 0.1702689928633132 0.8747769700872611 -1.593460981701275
Ni 2.320430228365775 2.568665286127331 8.43138693518435 1.5964953976522247 -0.17745882574353308 2.5871285901798737
Ni 4.691176076748045 4.7177598737349875 8.283287327281071 0.38164966816527174 -0.17404902873103573 -1.0748180520066843
Ni 6.945387625017037 1.976125200178583 3.4854030395014237 -0.7572194486850508 -1.643227511601441 -0.6352640553254607
Ni 4.687294747951728 5.063292572830991 1.746716947984761 -1.5408035034065592 -0.3867461088515726 -0.5604423822288799
Ni 4.702347882018224 2.9413578431751803 2.6600266664365595 -1.0961772344087508 0.26550625350176854 -2.12852811839016
Ni 1.0282121606185943 0.7129812126387555 10.264516805353594 1.2845066843182007 0.5069708926733011 -1.8338401011181127
Ni 2.8124523977500404 6.2921250471940295 2.531969258300737 0.426252137365995 -1.1584881766328305 0.36689410712265197
Ni 5.474807861464391 6.974700628870491 10.68929849470005 -0.7436388817871386 -0.8899207677072352 -0.8569880215349563
Ni 1.1474945548431321 0.7420231845300327 12.56642336842989 0.2988963989264401 1.2817599748109991 0.964254445423804
Ni 0.5826365591635942 2.5698646261690152 1.463344060088564 0.050227528696984464 0.1679693981958591 0.47888956105605274
Ni 1.2552085116577216 4.364606171381982 13.750431689187769 -0.5352548272196588 -1.7578753155560243 -1.7363333277191904
Ni 3.093012974902823 0.3265151323562856 3.961767682987163 -0.19605741468132687 0.45502201040983575 0.176862844030747
Ni 6.761473079254796 4.932668388133516 11.824046048060776 -0.14524881666989178 -1.3831203176280567 -1.8266523251204219
Ni 6.160093762762611 3.5996255408571862 9.565414884520065 0.44966357431139975 -0.09111141139553987 1.7539644105373924
Ni 5.296125082498158 7.6839166692681475 3.6964604446952363 -0.7125431888235986 0.09243938617834403 -0.5505217806810584
Ni 1.405947612014944 7.555738382765919 10.40918837833458 -1.0680203123585608 0.34127666366486387 -0.051047453495118536
Ni 8.46346880911829 2.770806023074226 7.906756882099831 1.1077983635874469 3.28835455421844 -3.155184265979637
Ni 2.384684635008461 5.879334869539943 4.960164439041929 -2.543333447371794 2.0361252418767064 -1.5962310882472446
Ni 0.6667716796311148 7.483589107817342 5.203191339063413 0.4391505905952179 -1.2099763172097935 1.1904778421655497
Ni 5.072405668423317 1.5917886567417812 8.665415951806489 -1.272960631351814 -1.2761809380613247 0.8819215515518424
Ni 7.343445751765395 3.5535689945320277 1.5611743217249885 0.15992518773514391 -3.583697945686299 0.5867409109140928
Ni 5.718727183800357 4.457455866577584 5.986923226176939 -2.738027406046691 2.130411708566118 -1.6723028317008426
P 0.9598497782425804 5.824174671244834 11.942042220917775 -0.16143082574639295 0.4335715538455436 0.6720611695491523
P 3.9675207377382975 8.599551407548786 12.985676761237746 -1.2985145685615187 -2.822091937897779 0.6880495745576085
P 1.6365986449133776 6.332666518051915 6.937026241765799 -0.24286306218095596 0.4030278767307317 1.078507842153446
P 2.6146557270958604 0.6942375109479263 7.443260118462906 0.4972662637910275 -0.9872995001687254 0.5902738637680157
P 4.599648488685008 5.688252614394721 4.215714243561401 0.3902608068730505 -0.3569961312826497 0.22709757181658308
P 9.7022831923322 2.7513332737360106 9.628828808771333 0.9691071455304148 0.30663721921412357 0.9034766520147989
P 2.5029376743940723 2.6938405007141606 12.36509667173176 -0.7078743225930196 -0.3026083005603885 -0.4619390492446432
P 4.750378145419855 1.6711717464299662 4.165665878058133 1.2790767715518812 -1.7726663578222697 1.593497234255849
