# total energy = -340888.90866651025 ev
CRYSTAL
PRIMVEC
9.05261006948706 0.00000000000000 0.00000000000000
0.00000000000000 9.05261006948706 0.00000000000000
0.00000000000000 0.00000000000000 13.24940988854245
PRIMCOORD
 96 1
Ni 6.660231610813884 1.9985809557182703 11.636149059220003 -1.4103105048896034 -0.13664230594780338 -1.0824879098471163
Ni 4.59870785664512 0.22051886774262527 6.301074734236257 -0.16476554654658074 -0.34891926781178617 -2.2315005428893437
Ni 2.7627208320313095 1.619702062643557 4.986388602579523 0.2799046883152857 -1.2315638135725822 -1.6531321723096626
Ni 3.5024367661295597 4.423702797009722 4.876948882558303 -0.5207010977752 0.3683370102167656 -0.5005657604779056
Ni 5.366043304345047 4.2650467513253645 2.6821046227631986 -1.1631583284149905 -0.11472262305657661 -0.4651012490227087
Ni 6.992869771185431 5.957070116546368 2.534254677828209 1.4318905450532242 0.7453440374037035 -0.11005555659821045
Ni 5.014503293957014 4.397522648423669 11.573544828389537 2.0870793643270704 0.5119372355396409 -1.2423886721022281
Ni 5.725522453844411 7.843914705045533 12.224793224426909 -0.6549749034908268 0.30758647050127025 0.869438074372851
Ni 1.6524815640370902 6.335052801215127 0.7708985550593557 1.8191243921744928 1.221998024261018 -1.4866702118972654
Ni 2.5713848636651915 1.7286502259330265 0.5001132588748992 0.5627697448104759 -0.998803387043267 0.18928924271955788
Ni 0.6503367981941436 8.741299950320576 4.755438412148202 0.6662288791380913 2.100061635519351 0.2452629298717002
Ni 8.804939799753477 2.228055570693324 1.5369584899875754 -0.5393138277803808 0.9943561499051908 -0.046405069627100726
Ni 6.840097922105822 0.7456906568046106 4.899009188260015 -1.0116388482450385 -0.002560561638324622 -0.35553343069419413
Ni 1.0633286421391277 7.332188757855908 2.832777171546436 -0.6465252300615768 0.7579974645016558 -0.9206814459288596
Ni 7.242848548175495 3.5322108009495903 4.021023686560323 2.2418147803311586 -0.27145115823129373 -0.8738464878531919
Ni 8.079418358387914 3.785910200715887 12.080732702105376 -1.535976000110929 1.1283803015038567 0.4806132286153787
Ni 7.991662355485703 8.703143198491318 6.714085588662581 0.5404047468517145 0.8168998952648189 0.7002039505319554
Ni 6.812170619758667 0.8893619168892127 0.3836604817618341 -0.0600375728088708 -1.6639930262835663 -0.24496648167720395
Ni 1.8301752488903513 6.53019086584893 9.50748481126902 -0.12244390296023427 1.499384059919508 -1.7646049209703738
Ni 8.988327576398104 4.867950588058117 1.1947299944113037 -0.839963719062818 -1.2540265134514725 1.1249162542146562
Ni 6.105750185833136 2.152520591508668 7.074508925401752 0.89620505805405 0.08557248385518165 0.18128539857847487
Ni 3.5434631953799025 4.268459585356119 0.8387514892612578 -1.2037154239017462 1.7658274805235656 -0.8252652365103788
Ni 5.98174753184567 5.484261340439537 4.676882576952769 0.2143839809046566 1.070204978714705 1.1468449359669473
Ni 5.399166804924704 2.757624212510581 9.719316794301003 -0.7106572846547954 0.7334025487711111 -1.3018680584147837
P 0.4060240499039451 5.651752733641179 12.372021255043826 -0.7461104832560828 -0.268770268965021 -1.1311766333020712
P 4.0310277260494125 5.928183237522131 12.502924713757139 0.5256592131114237 1.8961178761114121 1.3746865850384067
P 2.4352698172821032 8.428523216642597 1.3304394838591724 -1.4349658415444384 0.18049992656270206 0.7184690673897304
P 6.268570432191623 7.780664117849562 5.749647659923881 -0.44443600736387323 -0.9945926913960291 -0.137285338848441
P 4.6570247713032655 1.1892142390401137 12.542209420812476 1.016732717828178 -0.10249574197308153 1.375556903458502
P 3.8584397133270407 6.025933322042255 8.311023957794903 -0.24369327139173513 1.7142809759048412 0.0838632144735588
P 4.579561586154283 0.9873410324464139 3.799507221177938 0.7474595410848096 0.9830366111273134 -0.3497322506313848
P 0.03808976251406503 5.594277711728023 3.564448956255486 -0.11625345787880624 -0.8601389084591122 -0.41419417776019635
Ni 1.542266035325059 0.9981045859280243 2.712472508809801 -0.40509170123829585 0.2335726380179655 0.11171288969597536
Ni 1.704199125887754 6.551862814574728 5.005865293341242 -0.001489954281965176 -0.5373741875555068 -0.2965350977831151
Ni 5.955404436276716 5.8744288383852075 8.829287700042913 0.11921074073491726 -0.9449634584046758 0.776186990926489
Ni 8.725765671284037 2.153181432050432 10.265550386163925 0.1608782956770326 1.0153407225766578 -0.6405700409194065
Ni 2.2338492411964617 5.285094864284022 6.919663123334224 -0.46954180129256556 -0.3378293285462117 0.6401378384779943
Ni 0.11073424327426508 0.07773023714873549 9.176740456943186 1.9193490787252108 1.0196308653115795 0.015493467649908802
Ni 1.65342303549385 1.24056064387417 11.439010367740584 -0.30532081439554515 0.30451220245132077 0.8404774254744429
Ni 4.218226651571883 6.886872758808497 1.2740897013890466 0.1689746995319219 -0.38952032916260015 -0.041306829168586925
Ni 5.9025734033762305 8.187379787169819 7.964565177490325 -0.4753589221949749 -0.9380402489222813 -0.3208340795397958
Ni 5.244421486829964 2.85164462164431 4.796723746049153 -1.1516798954617458 -1.1261221015972993 0.5442354334517143
Ni 1.0447979491392485 7.788367889096703 7.281160099638508 -1.0303662494512125 -1.8936300766925516 0.019076299905160698
Ni 4.755200328500964 4.610141303278656 6.9699585201285705 1.2864095577678685 -0.8585250270047731 -0.6842633680422989
Ni 8.129959080917628 7.225304589683182 8.967809835467852 -0.8597370450350033 -0.8858365703355324 0.6568860044706106
Ni 4.676967671488284 0.7112635803617477 10.42386695896724 -1.3401219596896596 -1.9632534934176449 0.944308084208864
Ni 8.070917957446593 7.232410888659685 4.559586096572684 -1.0224148558146198 -0.6254504116691486 0.14594815672976155
Ni 7.678795095706113 6.200413330288306 6.772674081625559 -1.272382647361157 0.5626956970394309 -0.02948309706078148
Ni 2.3788086877069956 5.342397886604116 2.736731693519657 -0.23042997862392572 -0.9931420749924315 0.5026452687147537
Ni 2.3784465833005495 5.314733109951635 11.31976576565382 0.5784493603292619 -0.46657500535475777 0.6378433860168627
Ni 1.0173594877407954 3.464714539588037 3.7660786476358505 -0.3548675149754211 -0.6195692702980232 -0.6977639736318951
Ni 3.4463467935710588 2.9073634371862034 2.789980957009588 -0.41607751082583827 -1.0679984579816897 0.4398373322495973
Ni 0.7824741276724212 3.2549112464931684 8.178754460208273 1.3873286992824494 -0.7629535229553505 -1.2136051722116323
Ni 3.576577643349398 2.341855933029171 7.02045126382443 -0.21617501136680833 1.3292983867115944 0.39433497694242414
Ni 4.144149142623173 6.670252850262281 5.798246597574028 -0.034505747086353476 1.499941989305507 0.028677313330034482
Ni 1.0357272337577739 7.67617889136954 11.85713594690796 -0.039837700822228164 -0.32959177112776783 -0.5012558445663948
P 0.3726651814600983 5.715428793514725 8.02376291111715 -0.07636202100050721 -0.3122324539137139 -0.5677116621967836
P 8.178082756534314 1.6191408008135655 7.872282869507537 0.7490168582696004 0.12251640806938256 0.9445682798487861
P 1.9558797935881143 3.331460118015873 10.237474621010126 -0.34328469523382815 -1.5374286733970555 0.5027455417380439
P 4.23099988450927 6.132862753265787 3.4292255919732715 -0.031004933021946606 -0.512541187672227 0.7615304173555788
P 6.831552258113695 4.1972970168793 10.273247820583952 1.3475958994692017 0.49621236860521634 0.2031749995627146
P 6.165551728557709 7.614648300104187 10.12032298239262 0.9388663443680024 0.9609971148287708 0.2627556873398249
P 2.5986060624197767 8.396042451384382 5.920419719047926 -0.6698603052430916 0.4839744317781278 -0.486566103764704
P 7.0678615937604174 3.7426749345862236 1.4966798063365434 -0.03103295804640462 0.031243788505630067 -0.3854446164313297
Ni 5.3097994374138064 3.07865692665553 0.3597136121025375 1.6230158125402563 -1.618224047578568 0.2037666104001265
Ni 1.3065360667286494 1.0454044740200459 6.853442374744377 0.5356361218184775 0.0354475421743325 0.8920614681993217
Ni 6.792209614353325 0.768717781271534 9.365173253230623 0.35706529395768827 -0.008992433306597417 -0.12821448689542433
Ni 2.350917595800485 1.4066669877211564 9.089929546541798 0.6764238173932222 0.13230819734882374 0.05804265386602907
Ni 6.601081856020914 1.5344988958067902 2.520885783142219 -0.8813903616387208 0.95513294273851 1.4046926444821937
Ni 3.972158602171438 7.114238115616002 10.460647714052003 0.7067355810028861 -0.08257072091438038 -0.12595474432697015
Ni 8.34676909427723 7.109883810128488 0.2919892249649238 -0.46006342948848505 0.7057786164062555 0.8481711945742747
Ni 7.722428676682868 4.230655885323146 8.136144729440744 -0.9231491907430617 -0.6184089314413349 0.6996092543707499
Ni 3.2583059753036006 8.507371451146236 12.615094701002963 0.3768509612250478 -0.13107329650045813 -0.8349883773354135
Ni 0.35926731842159276 4.744771721595315 10.00901480363414 -1.9095462337021758 0.18076012220262416 1.2793135701530354
Ni 8.685499661287233 2.2029617353266095 5.834762111181069 -0.6160900535001712 0.9458936835284292 -0.40807752333949726
Ni 3.4825572342156685 2.862598279939305 11.828411109605605 -0.6312119967432742 -0.4221391436388859 -0.880015078557749
Ni 1.2279050948688792 3.6504016792135965 12.533941671952297 1.0315584699871008 -1.572344511437634 0.4871885678400512
Ni 3.153956537975996 8.193499351638758 8.110785652596308 1.4548474109597138 -0.06591819995936389 0.8501951669828389
Ni 5.4268044237467015 7.975956076856104 3.579036332269167 1.5210332627581675 -0.39982891017745975 0.005114181298113773
Ni 3.0569216096586027 8.362384846805218 3.6253304753722846 0.15764384790013494 -0.2825308130842231 0.7033466099259952
Ni 3.407438675098426 4.040858860684424 8.838138436997472 -0.3182969149402389 -0.655634905672329 0.8223357215684096
Ni 7.51137612338576 6.275450415914099 11.435472607689608 -0.0992846912349516 -0.9565658185302944 -1.1923364926408433
Ni 0.42155108685235376 0.17778058991080845 0.48472291633992387 1.2041638242930746 -1.2189175855634813 0.8361237764914374
Ni 4.397196754457868 0.2585262515042238 1.6834306276560382 0.8397732003185666 0.9731129242556983 -0.8145018273462875
Ni 6.259019928471608 5.679833930361075 0.22828962830495853 -0.585393909967895 -0.7933305925853111 -0.07797641667547861
Ni 7.91882505412907 8.770485565480131 11.351365711943355 -0.050492095212280784 -0.012287302007785291 -0.021008483930867045
Ni 8.935161596921656 4.649149000463062 5.535709134507399 0.7929019896883247 0.259842627458088 0.8484162207055453
Ni 8.089674965700501 8.518859213440738 2.5229660729572516 -0.36603201623267284 1.022753470100961 -0.21780663343296033
P 8.540594530437664 1.5439679260353558 3.7532800673900133 0.49644196811751923 -0.7553152896838025 -1.1781054366431258
P 1.6178553301706817 3.359405525583351 1.4691870292771236 0.7082180790856836 0.4418751886152325 1.4098968143909525
P 4.635551980001011 0.9964570108786945 8.293680061987152 -0.2432484705448327 0.5730523576834067 0.8592955866222104
P 8.705143825336934 1.5069427504762423 12.412047370871361 -1.0004357804403674 1.663010350655323 -0.8277805467330648
P 6.459652927473229 7.800634175865064 1.227513116848901 -0.7229019063501034 0.12054977126131496 0.23990680776610943
P 1.8265632574360517 3.3456455581383993 5.869899817521582 -0.8053345590247227 -0.01071610086592348 0.6906258199252171
P 6.82201080700384 4.023966690123713 6.147077161740828 -0.4471685758036879 0.47361031493498434 -0.3192469375583341
P 2.281628917627024 8.602948909227683 10.333731930114679 0.23857883298330526 -0.46823156712157427 -0.9722935136781966
