# total energy = -340865.2473514858 ev
CRYSTAL
PRIMVEC
9.30341624920452 0.00000000000000 0.00000000000000

0.00000000000000 9.30341624920452 0.00000000000000

0.00000000000000 0.00000000000000 13.61649008443246

PRIMCOORD
 96 1
Ni 7.5990769876267965 0.7740042352085291 12.11517670276854 0.6313863175376093 -0.487289869304606 0.8981092170552983
Ni 1.1670298497253235 3.299456606732137 1.531610268767471 2.05634696824022 0.7203495722418948 -0.25846811570806455
Ni 8.620582798884605 4.795027301262588 8.059463988189112 0.08150371310244674 2.868907869810053 -0.018233749399207307
Ni 7.571110918093914 0.5734886330677225 5.570587998025625 0.5036801377371712 -0.43041166806032327 0.1832260672446135
Ni 6.186334608815325 4.9598373218131595 11.472614855047828 0.07540222819039917 -0.12045489755466353 0.14315131071091475
Ni 3.080761198711688 7.476606814862038 9.400784039720497 -0.9068833637035028 -0.17579506488786498 1.1228478017214016
Ni 4.40903786052747 5.777086627217861 3.682348009824391 0.11919454278500118 -0.6859620959009606 1.397199164318626
Ni 6.952898901972807 7.303433023017368 11.25662953220866 0.23933705130556845 -0.006299974076098827 0.4054709389545855
Ni 2.4485661478241396 4.33593161488895 8.265196015874524 0.7781451430941243 0.27919557806340306 -1.9065629827041357
Ni 5.176755777311726 2.9146393964564807 3.149643693329606 1.4866406442109106 1.8787292483213194 0.16531499129214755
Ni 6.836503860081292 1.0796149497482894 3.383643221237478 -0.9975543451275143 -1.137420557329254 -1.0373961597148005
Ni 9.050056407615962 6.747414345162168 10.089560608134686 0.8325275744997468 0.6138894463044265 -1.2973992240101526
Ni 7.596760436956906 2.9051871254500248 4.520878880118139 -0.29219713252939356 1.643451711797105 0.11234589529428392
Ni 1.7639835594982478 8.242985039692622 12.327594165439425 0.984982936220407 -0.7157519255688835 1.4171534959533658
Ni 5.898728795927922 5.72971363118944 5.440495536249459 2.037210504521085 -0.5569451677088988 0.47673240550373386
Ni 7.997346937937232 4.54494216649432 1.677470160565038 3.2677335355339787 -0.2851847057673024 1.6939456067815988
Ni 4.831143163513637 6.546702440936484 7.883539176131244 -0.38933006752866495 -0.6230387169038625 -1.6224362858877026
Ni 6.6525008916111155 4.134084693869183 13.853280949020075 -2.9760588511669583 -0.8172133127401797 -3.4704053702080295
Ni 2.895595303198394 3.1347210135123262 3.654298209544404 -0.4300717682224013 1.4299563041449888 0.5790224592239125
Ni 6.727932991335869 0.44133732525442115 9.44411191032214 0.9492610573387652 2.2938204839744882 -0.5681412935350345
Ni 1.6781967573815777 1.2914165262571398 6.9367844545217405 0.2979306925790611 -0.10634159808173298 1.354637122586699
Ni 0.30558931668216693 6.596243132973277 2.1014733604855715 3.3541233730841333 -0.354975244197879 -0.9837709181901766
Ni 4.652638514103318 4.5609533460239575 9.4145503048861 -0.5389423033735751 -0.5218202989813078 0.6041791609951981
Ni 4.701434932832516 2.0219486879106787 9.380073704595032 -0.11801517776491932 -0.8474461434827922 0.9275714881804734
P 6.97555272077273 6.506762874567666 13.484546554579913 -1.2148092198220626 -2.02225671142473 -1.8473165383379928
P 4.1295911437745785 8.657256866116349 13.085025294771084 -0.01629976560128806 0.542959137842452 -0.4481877610968216
P 6.785437407763929 4.358176083369696 7.234713338185485 -1.2030469370798118 1.178759268177041 -0.7093406227259009
P 1.411365473192421 6.319252518135448 8.52565259918413 -0.7169310334786493 0.5080127036742541 0.8048684180215816
P 8.425946025532165 8.921036629744366 10.357097091282789 1.018188733548414 -0.8506299405274125 0.8250070977529855
P 4.57315012485217 4.38827263524557 12.89542911239433 -0.5607851102802793 0.17177874463962028 0.6021898984793114
P 8.51967794520741 0.8801394695548469 7.469775316239949 0.3773315004058921 0.17502090572600182 0.8854131096448686
P 5.896123839351339 8.675231066494769 2.499524680511901 -0.272275453904802 -0.4052847910857085 -0.5934170373826877
Ni 2.6996653549740066 8.736624310955012 4.6622861568530185 -0.28155893608925703 -0.9708189860151989 0.2645636870828411
Ni 7.795686085244363 7.935311757749187 8.414160457706398 0.35955206493528397 -0.03656031562253704 -0.6297680652078961
Ni 2.794736966602925 8.118486722164665 7.118673686798347 0.48431561716763044 0.24561774210795764 -0.4360812076412748
Ni 1.7545312884917912 5.3449987584935785 3.8949701476548646 1.2739803308655802 -2.311497075318645 -0.6547167647334337
Ni 1.6592363948705948 0.6491179652189896 2.620765871977494 -0.06833555115160489 -0.5265382732822673 -0.5410732336736488
Ni 8.691707416841654 2.010328720895852 2.3837706440065523 -0.7989371401388112 -0.24547607432377078 -1.0595577834135042
Ni 4.8701802984969955 8.813805452952614 8.65859004567858 -1.8596326367011842 -1.3913025963285328 2.053596916298908
Ni 5.485880392204969 9.11434301455948 11.193667731752658 -1.5092864066348846 0.2561317542654041 1.268047510320913
Ni 8.863913653386449 5.674544372263959 12.073674162453772 0.09520563606957151 -2.0456216114029155 0.9778062159663096
Ni 8.63314241095027 7.701079644432692 13.037230853982233 1.3165300313023327 1.9218142524362514 0.03513515314023626
Ni 5.067403421593328 1.347823139556497 1.2569324832329942 1.3537403218040427 -0.8360183612618247 -0.8524772781487964
Ni 2.3716548049005404 3.633272488604845 12.6225003691327 0.16820696812796193 0.3402934738159881 0.5060596937129413
Ni 7.554308948174956 7.037941430781882 1.7590601915685067 -3.1338690494416284 -0.9964251166190776 0.35088127663416346
Ni 7.084328264677741 2.7032936873485327 8.527490023912256 0.22978514595107521 -0.5962033418785732 0.4025761339052938
Ni 6.551903050673304 7.719593442959119 6.477609689109171 -1.0233944461190696 1.2992797288623172 0.5052315413846912
Ni 1.958666849932413 6.168360408436905 11.204301536634924 0.14921037242080107 -0.8183705662730745 0.2204013907433301
Ni 8.511156015835448 9.019550505420911 1.9260118585616819 -1.3776932330752143 0.9554551019646191 1.3220820714688133
Ni 3.729907074179712 1.5576430883838757 5.833304381165417 -0.48340647508979967 -0.0849721312670214 -0.005354065223061746
Ni 2.999579587685762 1.213202705045249 -0.32641687485357884 -2.0718502060821415 -2.1360707066241083 2.1665930435826817
Ni 0.7732543798511271 4.455741010579057 9.882753105519798 -1.4728320204625924 -0.2910910439494083 0.14142841448253707
Ni 4.481976644671782 2.223553720105478 12.347242980759933 2.4004225348064594 2.0770291791799194 -1.8073086304864874
Ni 0.5663417486315414 6.93751105133828 4.5800151157731 -1.0973455436852393 3.778321456134577 -0.5624085048163153
Ni 0.6883793125362611 8.698619855185942 6.150609490050763 -1.8710421640897066 -0.06351396139324546 -0.5129877882913423
Ni 0.3227383040307905 2.9454057943091896 7.870209241192217 0.36259213731318846 -2.3334303850566265 -0.1051717461433479
P 7.35453668900011 2.0316800614074837 0.47928409984215287 0.25973618378721075 -0.42768552737841187 0.29332584681719803
P 0.670113915226245 4.926903227952081 0.3155635093455746 -1.0992401896047908 0.6494177211180234 -1.2196282384772608
P 0.3493377017026017 3.5272507559379354 3.4197404766558357 -0.08295638638857325 1.8461937375874593 2.5952298791307693
P 5.694993281390133 1.9017671555667743 5.184601348315412 0.799704614432455 0.030151069662083564 -0.2639648771565777
P 8.22956951332322 3.9592176802497354 10.872671957603275 -1.974248816086884 0.061570721623945564 -0.3600385176533993
P 3.2447897322892834 2.3581369409513457 1.7556830514352944 -0.3248550277737308 -1.0053555863394879 -0.8620525805420572
P 2.936279142874806 6.583953319981615 2.489489085300617 -1.7560876275279822 0.08278309403550259 -0.3722435443600234
P 2.7134716248298942 4.065992989640585 10.49431038792937 2.3183305533007106 0.7720246320186834 0.9955910507535564
Ni 1.4997944455510532 6.027125244904406 6.392628562847972 0.859424656000907 -0.6447737945881089 0.8477773015699658
Ni 5.013741316115728 3.198868069210671 7.424377435501557 -0.2872030217489118 -0.32125856867172414 -0.48563099354494427
Ni 3.666374043960133 8.46096408465451 1.8465727774171627 0.49622676678291955 0.37820978924578735 -0.6016893046938089
Ni 8.304136395327896 5.419016738933902 3.7550467658270024 1.2646235722410286 -0.532837733137734 2.1408943532649967
Ni 2.5072614015443513 5.979435932720256 0.4632012840066591 -0.6204388173871702 0.5773640976848831 -0.9792005252106749
Ni 5.562875465875672 0.6585404652931425 7.090978346681101 1.447823928454029 2.0353688233266563 -1.53042781659919
Ni 4.605972577717111 5.600712460150534 1.3826318718110813 1.7745890287662793 -0.5492390573138928 -1.1306950656799624
Ni 9.137341059764166 2.9394888215138097 12.57062079822679 -0.6903463410115853 0.8020877699526509 0.25497398651187697
Ni 8.79450086403687 2.0315591169949996 10.084958208068846 0.20234299057972246 0.1488766432304662 -0.6421710668579392
Ni 3.147131770916473 0.42654954497414277 11.002873269350678 -0.06010005061569004 0.1284327735538175 -0.7272396144935088
Ni 5.269250342613096 8.878752602456625 4.691521212375351 0.2166357530533108 -1.2883209158579685 0.8503188370448967
Ni 6.713968563402117 5.789283406046075 9.181830927067292 1.2475069671654 -0.3035205279620128 -0.34072747602961323
Ni 4.046269746989317 4.404209387444448 5.746662595086646 -1.1800021394452065 0.8500761249064714 -0.44878399991992385
Ni 6.437554760377676 8.601045624560236 0.04001864540774929 -1.491887751542463 0.5439037611439085 0.5488233099327129
Ni 7.417995291888929 7.582740188525086 4.051695499401685 -0.3282342286586089 2.0311118478225145 -0.26173135984036855
Ni 6.456682584382867 2.448538237575105 11.179914491369937 0.1103221799960358 1.0418945618057862 -1.1664102596933847
Ni 4.2328404583706964 6.588846916979052 12.353274385576357 0.6053217592400737 0.05104308261974435 -0.7083206661018189
Ni 0.6567709555043353 0.7423521521197823 11.530947275530588 0.8051355556400392 -0.09427489672518603 0.12621493996689231
Ni 3.992989081581859 0.9915302037944198 3.520080612960892 -0.6337008246033989 0.11771333025378437 -1.3824685429766705
Ni 0.06909554285221742 4.100285382288025 5.732828414981725 0.8627508921606626 0.1579222983725022 -0.4249599009171327
Ni 0.9024797632239456 1.4511096678179947 0.3596291408633718 -1.287812608762982 -1.2161251104200088 -0.5954569506308519
Ni 2.1676494912887474 2.281867533755547 9.506270825947574 -1.1999744688020753 0.07710481270380269 0.5842878213879099
Ni 0.8425443641049538 8.75105390970601 8.662129995597827 -1.3513990752653757 -0.452685134746543 0.4142358296314092
Ni 1.2528445620910285 1.8599576025126245 4.659045776940077 -1.5721431940601054 -0.9893322143280383 -0.18657852865661417
P 5.086596369512935 6.810807824136574 10.080995883047537 -0.5722591723581499 0.4459794405915932 1.032536517629654
P 3.9942171325393905 6.926737695210842 5.7038929294657 0.3331553201093101 -0.009554733567970642 -0.38921873876178126
P 9.189133178556435 9.321837109300626 4.039822479462275 0.2857218092176951 -0.2799789931966469 0.2956277554774973
P 2.6503014278477677 0.44982390164427327 8.733236006722185 3.186050873651506 -1.0191482692482061 0.13571053816215337
P 2.3280496924918177 3.245794501254537 5.912497852118429 -1.495594768080405 0.7334231175964014 1.5210623162238903
P 6.4350986584626115 4.809345259017447 3.257118619629595 -2.5446560228379593 -0.4918834022125594 -0.4718210842450455
P 0.7606724395862334 8.66083868140915 0.7314476178218808 2.7051216564576057 -0.9449025232597534 -1.0299139924051424
P 8.165859718193088 6.629540060071809 5.805390410764066 1.1705322522815582 -1.3361161809643765 1.0599555330725552
