# total energy = -340871.33997298626 ev
CRYSTAL
PRIMVEC
9.27656421338585 0.00000000000000 0.00000000000000

0.00000000000000 9.27656421338585 0.00000000000000

0.00000000000000 0.00000000000000 13.57718941577406

PRIMCOORD
 96 1
Ni 0.8967070290917956 4.874815989597754 9.954551284711824 0.12350705411742602 -0.3876678493348937 1.2197189984188541
Ni 4.112857550643503 3.3349898039047146 5.328856501891354 1.5576074623377756 -0.8349382408237684 0.38755986300211964
Ni 8.771928484180007 6.429271317201124 8.791786825389549 0.928320450531356 -0.04287468787633906 -0.9002121223309141
Ni 2.4502653129267906 9.143742458122947 1.4589911319882565 -0.15701829850099408 0.4157358112157034 -0.14382031175348134
Ni 5.606106106956849 3.355713648563992 8.073499668217968 0.3922842650609825 2.3333622508228524 0.35832847694082803
Ni 7.651059772232259 1.969711452190627 1.632996286955316 -0.3282542832632669 -0.06794782879488298 -0.4923791109020553
Ni 9.388068608810533 2.026799428928854 13.096814899223835 -0.8009104618150981 0.9714453067452882 0.05586364393683928
Ni 4.443121793060524 0.868199219323475 4.105863948813321 -1.4897305959901441 0.3777549610965559 0.6633795826147543
Ni 6.986124919352939 9.069863899991125 5.587529786934376 -1.1288045335254688 -1.0724611217387336 -0.016072994302462645
Ni 1.398673983215162 5.092889463299773 2.0810710407438227 -0.7866796629276968 -1.103787699766157 -0.6623943358833496
Ni 6.8368371699788275 6.7204719473261925 6.534375718442883 0.19817703212749097 -0.22556776543561796 -0.342534704441681
Ni 5.192250743579777 5.357373588223981 4.167138439022779 0.493208548781886 0.1341380514687109 1.3110960047709548
Ni 8.897876397760589 3.964757201500542 0.953517636557277 -0.8693154327520577 0.23496874703454373 -1.2797072060470285
Ni 8.230826488219533 5.3065287392635945 11.636045449858146 -0.11282206359975408 0.7125290477562116 0.6773599560542464
Ni 6.19937022400914 6.061928647253605 8.903038805796797 -0.7291687131954216 0.5246839936823479 -0.5421878068940662
Ni 7.741376402314055 8.087837526009096 0.9905237068861904 -0.23912287841223334 0.36455440324588184 -0.9078472702786688
Ni 4.449244325502387 7.204652944705945 5.954860397348297 0.2869243141662285 0.7233878448475864 0.03992306144718286
Ni 7.601003431237871 0.44558306861595437 12.349852026469998 0.9058454093572914 -0.33358006635155457 0.47905102633458135
Ni 5.569120445069408 6.143284116215946 11.442610530952477 0.5995516895255157 1.677428582963182 1.1638283578988213
Ni 2.288927306519375 8.553159268155047 3.747874838655394 0.810057932642321 0.10649432160951337 0.9723616479119706
Ni 1.237039126749959 2.512362634390178 10.17592721530673 1.1350168329837678 0.474313511649596 0.6504618461118217
Ni 5.845515678562333 1.9787932086460582 12.040170624934808 -1.1473208471621015 0.8027395446040368 0.04252398940513966
Ni 6.682428757107885 0.8799628305197288 10.08137583361931 -1.0815877666303502 -0.23539580726963333 -0.024711900924383245
Ni 0.825166165165048 2.359549790579843 7.484493494182065 0.3810359458406728 0.6269539927978687 2.600748494956153
P 7.493552986883161 7.559203232475691 12.086821539172519 -0.4316571104316502 -0.9180977443620834 1.089169692742666
P 9.29354041853388 -0.11739677660344566 2.2672414821415794 -0.2782273006128628 2.1323986570891598 0.04672748596352598
P 4.56521065588987 2.124101311932958 9.597144742792306 0.459415511491841 -0.3063644251687111 0.38659312821347613
P 5.401576417141376 5.039966663934876 6.696731363954651 1.4584945207939979 -0.20755024581227483 -1.6075423994950053
P 7.826767176749443 4.721854720758524 9.60774878345033 0.005801437173125492 -1.2292716751042958 0.009228974797435719
P 3.628138512534012 0.020254450505401988 6.477867526973773 -1.0478188977100213 -0.19560078675988246 -0.3708957720828774
P 7.427336870867975 3.0439190456799277 13.021733170701543 -0.6944331094864492 0.6274535581421066 1.5008570449206085
P 3.7164514047257433 5.4093501780296815 12.464606837559137 -0.02200658617807823 -0.14541182461031732 0.25758211355868543
Ni 1.2104710465779926 5.0705422198869705 7.601977470489985 0.19377916017011143 0.8555482037646361 -0.781607390611112
Ni 5.148400424106004 3.875757843550177 13.757901833229088 0.5421806078052147 0.1449323138707375 -2.7616823264614694
Ni 1.266816898171751 4.750667729492506 12.65442946232411 0.2990236685329238 1.2409473116700114 -0.26805755916871254
Ni 8.01842099530839 2.9007723818762923 11.056217508546453 0.7556150803124084 -0.6148628659612895 -1.846762979827368
Ni 7.853641383543502 8.06256816483995 10.012783989485396 0.17322344750594681 0.9368503423792381 0.6343045196256689
Ni 8.167727297811112 7.775449223009457 3.451444081574685 -1.813242479472419 0.1219610497865448 0.8324527553977533
Ni 8.432220699299627 8.397656220696014 7.599559997831879 0.6476644858723426 0.24807263140635338 -1.1600159261312666
Ni 0.3961436191479046 8.65565602717043 5.002637769168118 -0.7676902663093875 1.1582194963524763 1.844110115585553
Ni 6.757466885777939 5.7917950946671315 13.762925092800709 1.2967734175006957 -0.6355124238908411 -1.3740710629415949
Ni 3.151991019843129 7.681718817263107 10.706333332622552 1.6180782660293231 1.4943341562004264 1.9173011950572463
Ni 3.0740307734167307 3.642739824751426 8.888551595320344 -0.6362207628117752 -1.1235057470203749 -0.8057127682997479
Ni 2.813517018015428 5.3263898634424285 5.387414814072059 -0.0692277239485711 0.1928841591596678 -0.7109105383161821
Ni 1.091378514019437 8.689413444679435 9.287870582430141 0.5944405935511956 -0.04688252348415151 -0.7115936804261358
Ni 7.793232396783781 5.215377218394272 4.866146112597502 0.7030617316957247 0.17375515163970076 0.7901915327356971
Ni 3.5938059480380455 5.551142463444663 7.528089635793857 -0.30753581976899297 0.5066875571049274 1.5560180063634685
Ni 2.0595642540571304 7.419154941150211 6.497377997021845 -0.6065890559882714 0.6015625493079576 0.36620273748258225
Ni 0.9101200134216301 7.120301145472813 11.130281597964393 -1.2085928065987057 -0.6422970509128423 0.7220465003283436
Ni 8.277088714412828 4.3127304051774376 7.511864924822918 -1.257326524358983 -0.10953953619374039 -0.1202173276225607
Ni 2.9337227382906863 4.008069480244575 3.2582809660031753 0.7493120209125159 -2.3115700946484257 1.6101291863855753
Ni 5.822853031963132 4.144351486461878 10.33353140458104 0.3705373603021941 -1.7041066064750006 0.5415931107328608
Ni 0.9200088309716706 7.25250146339554 2.3222969636403934 0.10339897051364128 1.4647628703012128 -2.2236399091943446
Ni 5.387522422218008 8.835899671633177 11.856592983260539 -0.4609702575734706 -0.4056159491728821 -0.19465616345842604
Ni 4.972618807074373 7.496502934332423 0.2931069640899212 -1.559551987658656 -2.447303001408082 -2.142548858149284
Ni 2.8742970673473844 3.6277303437045543 0.792719526192462 -0.5760152969664724 -0.4701308410268162 -0.42855507446755875
P 6.479318381631208 4.313880699151364 1.8944933581730392 0.21833885178734655 1.3318512350404352 -0.05747084052295909
P 2.4381037371218155 8.936262820858213 12.749876960123473 0.7935427085961172 -1.290505839324429 -0.01976998353807563
P 0.1527998566203075 6.2822656026462536 0.46066026858225917 -0.10398286804156931 -0.8410029589606096 -0.13354824040351196
P 6.064062257043951 1.9504161984344504 5.216464431730918 -0.21066153774774685 -0.84428702902852 -0.18618283588009224
P 2.891393775363074 1.9936078818425074 2.3208711557065835 1.3748408512280839 -1.08657005033629 0.21861421693592029
P 5.933680145725171 7.462216752657986 4.366573439721477 0.8082409340382403 0.5060303831369026 -1.2029836879420444
P 8.880993050723934 0.9880190345236098 6.6194640768819 -0.7078388413693939 -0.6730492444940345 -2.079832710066986
P 9.066978888492004 1.0997274218947057 9.773404102885687 -2.281721386718109 -0.13266609490887474 -1.1665560412426297
Ni 2.0646478112967386 1.6519891247151217 5.191836081155305 0.6811816437931817 -0.6141753529759615 0.4370643974901505
Ni 3.1552563704787895 0.89462258509227 10.895938885782765 0.5265907237867576 -0.16078033664658764 0.1745185121682865
Ni 8.123301831350377 1.2992848732422404 4.4841928538682625 1.7392695275293788 1.8643858351154536 -1.1659302347331728
Ni 0.8298090856001281 0.3813744011165542 11.542104466102055 -0.453374961724716 0.10683447855775151 -1.9128321035422993
Ni 6.301727834559935 0.43319421698548616 2.7989648715888347 0.2406444572630823 -1.334678162966269 0.03814900026589559
Ni 3.7347169598439702 1.2769098001365202 13.38371491413671 1.0047760596869342 0.7085163270523926 0.2837109494352533
Ni 0.9623507810893113 6.39571798410685 4.350457264552916 -1.1757289659911494 -0.6866544939822948 1.4945647841539937
Ni 6.798088960873274 3.3295815669144013 3.7959515608269134 0.8779695088826298 0.06053148172615382 -0.2181516754772049
Ni 9.641133283074236 3.4116513313282932 5.536044855036885 -0.4034240837278858 1.0148226452896587 -1.5750649956925906
Ni 3.8276495810600175 5.469786994482322 9.973681415623359 -0.32780536865130644 0.5705069655537336 0.9656855214433757
Ni 7.518785241795084 1.9211950208710098 8.21781146849842 1.313212022672693 -0.30180405949153827 -0.9024173575123492
Ni 6.067318331115306 8.600154342928505 7.7315989035356845 -0.43496894841370254 0.19382826824049199 1.2359598857577487
Ni 8.265038457379523 5.553730624885996 2.5770731640185254 -0.2985829814510793 -0.15309068131181378 -0.5370530567706622
Ni 6.134452826996773 6.7933300833843715 2.0707119013834756 1.9474136981719106 -0.2690456341135947 3.2762027493472545
Ni 4.280141834770972 7.857992092202949 2.614410407693158 -0.6012473320603839 0.7856311670585244 0.8229414734732085
Ni 0.7792072826245549 2.004248101101322 1.8654382311106734 0.2869662231477574 -0.253136419082506 1.0499133183452045
Ni 2.8471909464456786 6.593290250692932 0.7692173505235804 -0.8738691135610112 0.27439147180654033 -1.0179529633885243
Ni 3.759021558325308 3.2367509879057184 11.42597857880851 -0.028683998198253825 0.9206346518513241 0.1597462389551184
Ni 5.1627419925228555 1.4727473491974077 7.11197635666474 -0.5433342617936836 -1.3856214867833556 -0.803119553651275
Ni 5.163038842580642 2.64341265833898 2.1207710253471563 -1.345592752996244 -1.4464555873515927 0.7975891107513489
Ni 0.38252191212118836 9.096979297457136 0.03698473423100998 0.3907367180682045 -1.4687246831624383 2.143231486038606
Ni 4.42032927456104 5.267734147336512 1.9428956877516943 -0.2651920646954594 -0.034070973541780035 -0.7743612505716599
Ni 2.7810397663806325 1.2517517577390438 8.470441999552607 0.6932971961097931 -0.9130444982088921 -0.5979159536943058
Ni 3.7706729230934606 8.019487800203564 8.322504917941428 -0.5154161952271767 -0.07243980312796557 0.2951724131076336
P 5.594436189060085 8.064275052672228 9.801780185440865 -0.9380780441387522 0.010307038352962894 -0.04305260821510005
P 1.9550266508944598 2.74799664432318 12.476635758494538 0.7326299322711447 -1.0159441604886117 -0.29405963965942905
P 2.092755801143477 6.644589651304306 9.233615668430923 -1.1079554579906017 -0.7512298067605191 -1.4590496219665194
P 9.039984086361969 6.590024900057271 6.187423864496061 0.44877397261759483 -0.25807807935849747 0.9195036235706746
P 2.4487346798163245 3.5762917946285926 6.645776123879024 -0.19828424712931658 -1.110235769384346 0.04667760656219703
P 2.8788704135501706 6.203553954511081 3.334395176132709 0.6475511002229299 1.2217833371470508 -0.45935663322944764
P -0.1341678772119994 3.5850210416404016 3.3826073361430944 -0.14211464191628428 -0.12247115665374393 -0.1626032487879393
P 5.695096188342908 -0.0275755150555821 0.7474897816064089 1.0573867439041142 3.0866913633145616 0.5036451707341778
