# total energy = -340852.70980011293 ev
CRYSTAL
PRIMVEC
9.49101467483665 0.00000000000000 0.00000000000000
0.00000000000000 9.49101467483665 0.00000000000000
0.00000000000000 0.00000000000000 13.89105934308352
PRIMCOORD
 96 1
Ni 5.952650357001891 0.14510242497941242 4.565991319753415 0.43615062742662947 -1.5257162700561335 -0.5796348959969306
Ni 0.9797384373626269 2.389818450914817 12.276848303116871 0.22909866140701188 1.0346425082290633 0.10283564181100355
Ni 2.9016024219101375 2.030450680617044 7.185219927709183 -0.2427460769871174 -1.7894168378077313 -1.3882386126912285
Ni 6.193722123470395 3.2452340902864623 6.218290563418441 0.2584318631534904 0.032814218316543485 0.28389298353907233
Ni 7.0753804177351665 7.2682568129388265 1.0555649989313993 1.3690664106381518 0.045429850198024986 0.2450191892920103
Ni 8.868897414174269 2.628128332184804 5.303550389263803 -1.1512101549141787 1.1296810225931513 -0.029304919611704366
Ni 4.322948269588237 6.220534239229195 2.9182477630137775 -1.3326171666721824 -0.05673473368788293 -0.6168122763781765
Ni 6.493486323160995 2.018567930553321 3.2366722461710595 -0.8592745035762879 1.3609967462561399 -0.5669557578673655
Ni 3.4912032201997594 3.465311732840465 13.597555230207357 -0.7675575973862652 -0.14802895051819023 -0.6204673566322604
Ni 0.3204156979842538 8.319035493294239 4.948036919925198 -1.8825612204728999 0.36392062631662486 -1.0260411397132974
Ni 1.7069874178999938 9.218850098159571 3.3370492147604645 -2.618623318354045 0.46100548168678024 -0.7824013472673171
Ni 9.040722739376859 8.41789389957518 2.4069174625081105 -1.1775554776769268 -0.12014276563088343 0.39479777551145556
Ni 6.10077661917803 7.390387186596964 3.683089702598589 0.839935951148676 0.39478980509165557 -0.0074932230532516126
Ni 8.555276333418945 5.363562073491375 8.356319045271334 -1.31540517366927 0.8876108886271359 0.15182132768108692
Ni 9.434087323355348 3.575398009189606 2.866198090789765 0.7972042166081045 1.3522344266824777 0.9951889302191311
Ni 0.9431989809166783 4.357865711668459 0.5418486573985597 -0.2993787378794973 -1.086030375782736 -0.23467666971542164
Ni 2.6280429130549527 3.776303802599263 8.46259942483489 -0.1263434951249566 2.465146457347406 -0.13547991020858605
Ni 6.349004610525167 5.065373382195807 2.904717372845372 -0.1617396152360634 -1.6908232591025332 0.6323188566542077
Ni 1.3072638542548158 3.523140483749622 5.653618863625125 1.6463873973866614 1.3778140749237948 0.04319376177865464
Ni 3.394670112453651 7.6465876300635305 9.039370269820884 -0.3762488088646746 2.4280747493060892 0.6954497236764217
Ni 6.698615617991065 1.0213565356289414 6.582125754207424 -1.546285609567053 -0.8990975491104968 -0.12862406362901718
Ni 2.412084370762656 6.118951911807447 12.058425893479095 -0.24868815350316525 -0.10992880121235908 0.4714924972610331
Ni 2.937412019346581 8.15477450659068 13.259210056867369 1.0521776888993493 -1.2070971958897856 0.9330993599772381
Ni 8.257533719801486 6.065621901737112 3.1609386965436803 2.120584438063051 0.5163045113694011 0.9082897571327261
P 5.052683895905712 6.649347762095868 5.548060750259532 0.5832218420172408 0.6153405769286564 -0.22664557188082898
P 0.9675804478804948 0.9691749383043811 4.9878488781458845 0.0722881080414497 1.1220281340335836 0.2634928226161656
P 2.1141993919287794 8.077119026541652 10.876574405671581 0.3262069138159349 -1.4036603465629376 -0.014413604322168724
P 5.579131484192129 7.689249739916914 9.094490285212322 -0.02605350255394223 0.29113860935789215 1.4992328790536245
P 5.508765103223724 5.813103971868568 1.0136308498846358 -0.8548239240041019 -1.5284838054989416 -0.5312120246088529
P 4.241667222027754 4.45704681243995 6.6255215194760835 -0.9779360566759545 0.22751640452155653 1.2344907574113901
P 8.87705019556783 6.135371366767704 0.4895816409441483 0.4106154592700025 -0.09687633890377509 -1.219504311304887
P 4.5279826542740285 1.4693893627120989 5.190380482327039 -1.146647989464793 0.7717466957669483 0.9398598186295233
Ni 6.884962195268333 5.119367763276094 12.28826694257507 -0.29293915290174066 -0.17264520640497363 0.3355035086265125
Ni 7.404898947657214 6.186414042360917 5.806379588146405 0.6115032054604372 1.0329252684276404 -0.8813736494681724
Ni 4.147165191369215 1.6543122878251828 2.373843175429786 1.70330570784026 0.7849999612324287 -0.4859886339946791
Ni 0.15817345004950784 3.2354678364401592 7.985608563630785 0.22490287815810941 -0.2927550619153926 -0.5331398377591849
Ni 4.661302933942653 7.388403564581535 10.964685187214378 -0.34483635599166423 1.7147666572920084 -0.12709759968216175
Ni 6.382906514061604 1.8271341695427017 12.648684419068568 -1.376282725880933 0.3610944697217394 0.9322773782965751
Ni 4.792193513917738 7.82368995928803 1.105077722998836 -0.10391627646969198 1.5106056396669403 -0.12049989185998601
Ni 6.288157717027938 1.5931047357796952 8.88361038474039 1.6913071407174871 -0.7785272090238915 0.06327999100556844
Ni 1.8170072571481393 0.20334403501618306 12.165512060167577 -0.30504082126128107 1.9749504701395988 -0.15702112671447152
Ni 3.950748647783952 5.2108421603321355 10.409292852227212 -0.9698995595247233 0.16538492529813453 0.2126541426977434
Ni 6.080029261638654 5.351318664879393 7.515396184931083 -0.29505799901695634 0.4286913429351069 -1.4077753971725755
Ni 7.537137251681059 7.470738114743513 11.960201486961935 -0.5432267896815418 1.5284215848024387 0.8871375485351432
Ni 7.51879112079194 8.814656266718856 9.51734819652549 -0.4855158081233187 -0.06714435905698114 0.2210122848544516
Ni 4.366122894220727 0.04534142322637731 7.418339173188554 0.7155719483475934 -0.3209562069399569 0.3567724453076178
Ni 4.478942582725101 3.8594830530453246 2.109329552425827 -0.506642819909921 0.7779008882938022 -0.7608434185908831
Ni 7.98965932858861 4.165881471821022 1.0384166340630805 -0.7322437525763196 0.29508319582793696 -0.21610996245682781
Ni 5.65766962858295 9.307410753786248 13.137566572249382 -0.519789384594208 -3.0518225764618347 0.9775308508177359
Ni 2.8190021233441773 9.204082079709767 5.680387320717557 -0.7586340696443903 0.9962320267716649 -0.4536079036711285
Ni 1.0840067218674687 6.065545973621688 9.900518481906976 0.061143661388855984 0.5632505411016364 -0.0026016992889051965
Ni 0.5934778776834168 9.555363505714976 0.6699688102621416 0.9739050811396903 -0.49827336489930324 -0.6591927982269163
Ni 3.141165117084606 5.459924342977782 4.7247237905527255 -2.6689269517046035 2.039139860333314 1.1767908315967603
Ni 2.963967877715828 5.683845846375082 0.7039447437111161 1.254323218756285 1.1911843813142713 -0.48192063457289264
Ni 4.388872855804388 3.7542846491265496 4.61858292890126 1.389596926491336 -3.5229283798074102 -1.1857619247471192
Ni 7.773368600791336 9.547960514461218 0.36111601515539093 -0.5308422999742599 -0.02634352299053528 -0.32409372412767407
P 2.081037787517718 4.069614112478894 11.297626176939122 -2.2584063661412523 1.4511139120592105 0.3752987862465795
P 2.307559828868261 4.602487117532995 2.450924449105926 0.4173689759437521 -0.6048944418946679 0.6612170277457968
P 8.118120208870153 8.550825047652262 6.287496193322315 -0.01044819191651749 0.5874849881689689 -1.0845987855425323
P 6.26499015080945 9.324276286424615 2.281648410378668 0.3732827842578152 0.10154597646530253 0.040980041956787484
P 7.610398392049972 4.278482866993555 4.852591482432525 -0.5110712879949199 0.2580626527395298 -1.5620883809272645
P 5.987415942851267 3.67285174533522 11.023041638525726 -0.8562871388131897 -0.6148829205659475 0.0671423021744521
P 4.216848219298812 1.5683047150796086 8.938938253347798 -1.5224445412833973 0.4845292758403333 0.8675526844246799
P 0.7512925673875501 5.764225247564914 4.444985631304982 0.19732162610573115 0.2852032177100637 0.05965859220289725
Ni 2.5667879059373258 6.082069829740651 7.952534276552461 0.04487500613581949 -2.486257014073776 -1.056466031862058
Ni 8.882384145676305 1.7193921737572506 9.847288127488136 -1.0405017952233178 0.4452070812019429 -0.6934874577437282
Ni 9.328926883494283 8.279021376466238 8.005500780770207 0.9459384207234354 -0.6945390389366941 -0.2764774078012916
Ni 0.5020091752360325 7.73284196918423 12.77205052280522 -0.4170157063693915 -0.5083639163660857 0.3469657436298411
Ni 9.219989019890917 5.474075445489772 11.992998636418964 1.2700385726090127 0.14013746358525542 2.489986142098905
Ni 3.0179812408249718 0.7713195569318491 0.5686294528097477 -0.5989968454633103 0.7163103691755147 -0.8431647424986188
Ni 4.857036124489108 6.461008071788742 12.859314705861046 0.22395002732653693 -1.2640679568478745 2.1966541246341205
Ni 1.9089846779688586 2.108884423849159 9.733631331511221 -2.4434406902391985 -1.9639384352998113 -0.44447585946287327
Ni 3.810870077145652 9.19920369829383 3.2194612406075165 4.053530795856721 -1.2546209525023617 2.0807480227924033
Ni 2.1591108722015733 2.3613169345878515 3.3945581184834017 -0.585197991907005 0.5340021857594803 -0.10820796186651041
Ni 6.192782513042034 5.525526234703384 9.722408206950236 1.1807552155611472 1.1563870711294277 1.6341661727301213
Ni 8.840490807991582 1.0903941745774415 6.927068131676242 2.179012243182641 -0.8361638857007534 1.3589048967241177
Ni 8.211151132292368 0.8782804422298843 4.17131792488532 0.9047881717373708 -2.4943539321492976 -0.18524541166748743
Ni 0.9083090627782977 6.380590706541198 2.0011319879478373 0.8372630323022032 0.62126234172973 0.6314559944332803
Ni 1.6646859665948706 7.138419735565238 6.152419126883087 0.4448080459913114 -0.5510943653550767 0.5089277592893557
Ni 3.597977132513565 2.8250478995347454 10.830941608302268 3.24335536379993 0.27284701013755586 -0.20468706533186684
Ni 4.216174357274432 1.3505903351181514 12.261456725019157 -1.7545359667701461 -0.7717266411622903 1.5096964975891096
Ni 4.967245784025812 3.695440359673607 8.883137732221881 0.5195826679000407 -1.1153648630807953 -0.3789659506855215
Ni 6.366933136779458 7.954267335786994 7.262510003702737 -0.598080504296628 -0.24052412963513414 -1.8354794364937483
Ni 8.059845380282885 2.694954564771604 11.900747874382724 2.6193280577305535 1.7864875799760784 -1.1230516902020917
Ni 8.517065509332244 1.7392473759404048 1.9705443466496209 -0.37400192181202685 -1.4096384185232431 -0.9100921004487875
Ni 0.28207199969556257 9.21389578862821 10.152544777228156 1.1386392602277036 -1.0117931144347154 1.2404145790949928
Ni 5.6865792585303145 0.28053350625680096 10.797159291547622 0.01965479811645002 -0.6050281392590549 -0.33455400022904963
Ni 9.236664732240728 4.020896735420515 10.260602823794056 0.9367495551353158 -0.6695219480670662 -0.1695161738576887
P 7.9927628903065315 0.3866079308072711 11.623649166247375 -0.13880383237549643 -0.5393706491602452 -0.6697407489460916
P 7.3200018235997035 3.3506223144937954 8.295324091949032 0.8216019287261785 0.7429765656127914 -0.6910112282890938
P 8.19185589996046 6.282728856775185 10.37359240145669 0.5322150119520705 -0.021337585135511636 -1.341637882113554
P 1.0408226062205517 2.002120002549781 1.2623239009387386 0.7895477285041113 1.5929097371834953 0.06935885020979668
P 1.9549686428720041 9.067601292236654 7.848670309262246 0.7091382769071077 -0.6931020493798515 -0.6792098647787915
P 2.8130512572978876 8.34489850761025 1.6756091750999338 -1.9501874042623057 -1.3405078822741687 -1.759634721449292
P 5.285830665326925 2.5261284001282287 0.43003501642354225 -1.1641785421493887 -0.44765785673528063 1.0537113519350563
P 0.6951465733364586 5.321744663922075 6.989841701102331 0.5994149068373354 -0.8871519467128464 0.10645266973830053
