# total energy = -340866.7517471288 ev
CRYSTAL
PRIMVEC
9.29112363525735 0.00000000000000 0.00000000000000

0.00000000000000 9.29112363525735 0.00000000000000

0.00000000000000 0.00000000000000 13.59849860136724

PRIMCOORD
 96 1
Ni 2.5566477606850735 8.073047968759424 3.7464541777744955 0.5838340216799428 0.4076237236315302 0.46630941039819696
Ni 6.112453657715591 8.447229387826368 8.429151648718813 -0.8010359316493688 0.09335315624186503 1.719089195926762
Ni 4.480068286371798 3.1440976299112458 8.078949690443713 0.85674736627906 -0.09681360398663971 0.23415422155304835
Ni 3.249310313086427 7.0971083501863905 1.6151206055475962 3.04979397606758 -1.2618843189329947 2.516384943807408
Ni 1.4246358485782453 9.14647005570706 8.503603280016884 0.22023092660373683 0.40101701694829 0.6653917279487765
Ni 3.212275894582694 7.731032419451619 7.638044996654564 -0.8149417430971836 -0.895387190138445 0.20282275842961842
Ni 2.7840201364059345 0.15216351785278118 5.945249669046491 -0.7047216358966508 2.0842192691704557 -1.4963079920973454
Ni 6.598128559483185 2.254630498296126 0.381059637837218 0.3356256360266736 -0.4214639719487322 0.7150361304487814
Ni 7.699061663287207 6.55050226012289 9.347948070070695 -0.7827718432328583 2.2757050053206997 1.4168981854094502
Ni 7.740193467280188 8.609861214592385 3.449912174498506 0.07243131848753333 -1.0545811561345193 1.5152639643745582
Ni 2.979923476634537 8.46433434629736 13.395771918922117 1.0923447480365382 -0.9047642604779709 -1.494033337130556
Ni 1.431604191247036 6.719675037874012 0.7376808333788092 -2.2286211644590197 -0.886583475803886 -3.0622440289054746
Ni 9.1090175366432 1.1297913335763734 2.250660401199627 0.5713765126428806 -0.6825720963828051 0.713495525434539
Ni 5.132295869047049 0.6461121651491202 13.052559672899992 -1.800130110460177 -0.13760569830233718 0.07387627846417599
Ni 1.301370512329117 7.915981525004882 6.179130476820003 -0.12858215464748823 -0.937883925850075 0.41970482316578034
Ni 3.2293715619301273 4.945720816871067 11.702038187834649 0.2310835530475246 -0.27214535608484103 1.5745757147609978
Ni 4.240775399125526 0.4729386295937571 7.479745620803823 1.8415660090074606 1.5661725782989673 1.754437750629385
Ni 4.7746433587904775 7.917588889380483 5.816254496898906 -1.0737243047218734 0.8178139224386561 0.09039818737859914
Ni 1.8266534738261182 2.7567599798856253 11.426750558810827 0.644074197417923 1.0169129521597842 -0.5215737301881405
Ni 6.964143080942306 8.735867432291236 0.21126249658297303 0.5396645262515802 -1.9919830001418535 1.5174041506460125
Ni 8.691948291230739 3.0894379500172517 11.73845474662175 -1.1013094134289938 0.680600574478731 -0.022486096917658047
Ni 8.207927209456537 6.207566889582804 2.6286307404536813 0.5406911677438817 -0.22463548342933573 0.8132021346982576
Ni 5.93319071978006 6.657889066210734 2.221940609168295 -1.338409090763611 0.6170261921611954 -0.5379035776964156
Ni 6.113308441082962 0.7016925953877506 4.879998196156102 -0.5363791706320892 -0.23503739548895006 0.4110885422516791
P 1.2568009926195318 6.6789241699469235 8.159208273965776 0.28246370729171355 0.5681081263042538 0.254194170923059
P 8.554792725261821 3.817360316322686 5.868635993296382 -1.5162882918740144 -0.9375324560479272 -0.8350361998542134
P 6.258510120053443 8.06800288866722 11.456789690387449 0.7277376371758499 0.039817389107254006 0.5072462578218748
P 1.7607236610558 7.062842686503058 11.957472544038907 -0.46683725787720887 -0.18265862477691766 0.1703461259581518
P 6.550743829335408 4.834961332931529 3.1385610493828024 -0.6886740955154849 -0.6312598192620741 0.6797312844999004
P 3.1455656274334713 1.1546729624657353 12.292485373520757 0.5061082875626897 0.18607767776079565 -1.550627945696149
P 1.4581024756355574 4.511435119504915 13.06732791379605 -0.918924868249069 -0.6123593828131454 -0.6493053639098753
P 5.468430137142396 2.045533762614613 6.426582828775252 -0.3029759683124524 0.6636035257001023 0.043997745737188745
Ni 1.699197840852157 0.9148226078059595 0.25517141740755694 -2.577662302560651 0.7715852304884195 0.06442284636076001
Ni 6.693343993709541 4.253327707052907 7.630376103269471 0.2795550182853508 -0.5309348596880663 0.19165877139299897
Ni 4.434699730036192 1.7285577912966619 1.6920613288469597 -0.1242274772232183 -0.38504455277943367 -0.5587932766612311
Ni 2.5081109312160565 8.841776949733296 10.81203031282843 -0.5208754185695352 1.0153942015224127 0.8192761088064794
Ni 1.0940576723708146 3.0704468934639073 1.4349954513458476 -1.0796933778211146 -0.2973853615985524 0.2767072644239105
Ni 6.873415259394651 6.638071099660693 7.265405904098312 0.6814516096251167 0.0027230553581178906 -3.199298225579716
Ni 9.325872360495966 8.263413799347227 1.713818352883636 -0.0199828708798301 -0.8164864618764842 -0.33750305555504456
Ni 2.894129241696386 2.9858326312176713 13.604753444671507 1.4460467819489482 -0.29043875507739014 -0.3869672237234433
Ni 0.35422594388823875 0.9569021064018969 11.391285411076105 0.12964633424594446 -1.1825513882296215 -0.08479472514889268
Ni 4.675618563905182 3.440363686817551 3.4760481050682506 0.38362119006934575 0.15624645333197607 -1.3310253967050303
Ni 0.5508539917543955 9.277827960575545 4.415894495954015 -0.05450507302641581 -0.40669144162524795 -1.1624193933664368
Ni 7.825829753117847 2.0623506962552947 4.115177990863242 1.07271771783423 1.4907919473751228 0.5384455662428146
Ni 6.733128584786557 2.2015874739012915 9.317595827630154 0.7996195109178165 0.2159634095766345 0.3249020789615824
Ni 8.796826493957818 8.07993269131619 7.605395059358033 -1.6273046697235976 -1.8390859228980845 2.160613943181111
Ni 8.572185708563122 7.197582560346794 12.328221822063382 0.5322435511971608 0.5500181015717623 0.8037073078339448
Ni 3.9658975086506287 3.6009235930300476 5.762309304406551 -0.22035382533484632 0.24628057250293714 -0.422997120763807
Ni 5.153433175142381 0.8222207666365778 10.477724537849374 -0.7362474744190739 -1.401123953294329 -0.43563512124279163
Ni 5.717896804685103 4.6369117431609395 10.053030067332546 -0.29042127157589337 -1.58814831123911 -0.6328279350801423
Ni 1.4582232602418166 3.8557419477423855 6.145433429898443 0.12583853046408003 0.2503220895621624 1.5246083817039355
Ni 0.10544960682592003 4.169103671996123 3.8753815247201056 -0.47695686280971406 0.5203138896391103 -0.4307153153436711
Ni 0.37189487355922446 5.237146198403453 10.863215112511586 -1.0045024943105734 0.2901919291739067 1.422186430391583
Ni 7.136985852498991 0.8769826488897143 7.297974079507528 -1.3987084018743008 0.9742192699459995 0.65501321292793
Ni 2.0590616385156255 6.0327636909553 5.204662572218618 -0.31661541347275796 -0.791186806769431 -0.7677602003153745
Ni 0.2636291271827572 7.906894806164779 10.227906665836162 0.08737791249503661 -0.6047471176835263 -0.10910347709758629
P 3.6855936020176334 4.571409322074307 1.1041301794204625 0.8079221172462409 1.0778959196010598 1.273016424290414
P 4.966941743078425 5.789196886872169 6.149213988074351 -1.0413019225271098 -0.3430995758062156 0.300012000588122
P 1.6628323832446281 1.7411472637182772 7.444049124092498 0.830450380255744 1.2825806709400815 -0.36096000102640413
P 8.633720819890323 0.5658972499077808 9.44566653298368 -0.5359775643182964 0.013296202888273876 -0.440600435667867
P 4.022294628650042 8.198645377021707 9.574253824807053 1.7696928770162426 0.4588110451386227 -1.8042276775683186
P 7.323124221867728 6.430702512961041 0.6244684928198563 -0.3710204705861997 0.07054335743620108 -1.9735713304038849
P 9.070542993987916 9.143311073697209 13.281463225783275 -0.05472104569196382 0.5222558438568297 -0.40848838562467066
P 7.657502467610539 8.668739064581887 5.811848646107519 -0.6740414332039746 -1.4250706939179134 -1.4782346795354024
Ni 6.402290257119492 6.84622014073925 4.683486287334425 0.6878001775509639 -0.642462372846113 -0.9219101761296381
Ni 3.670198210281385 1.2454100751369486 3.9158369349180364 -1.1547945298313274 0.19212954038183042 0.3037377861791414
Ni 3.9858176775598118 5.758889241824709 3.9395934087444773 0.9128362388528279 0.5347534621032081 0.015327888606321989
Ni 5.024490962399078 8.68047375363613 3.2619945549683376 -0.1178611686855583 -0.6962079419986849 0.3572108183966171
Ni -0.07945490133426321 0.7047131396565824 6.614962217146272 2.3703030897132598 1.4870329945533227 -1.559621664554327
Ni -0.09405218555684595 5.573029606162724 6.897443963141352 -0.18153968068112605 -0.2850126989658124 1.7863525970601104
Ni 2.988573512667396 1.7001176620844376 9.277643996329088 -0.6795705905523199 0.3373035379497288 0.3216406346014912
Ni 6.263592364639881 4.32511092766501 5.239501498225504 1.1318487196684313 -0.8055533599037481 -0.2642610682407578
Ni 5.557420518584632 4.46006449735059 -0.01346097981139195 -0.15717616423509706 0.3641430267400761 0.0869480240464696
Ni 4.569067958937593 2.920023603053612 11.632971691751019 -1.7267755088274261 -0.5995604312762642 -0.9346039695472226
Ni 1.8747907849821244 5.039050153015071 2.3676886062040094 0.6948771390024032 0.7359541115483712 0.8634486895586354
Ni 2.8722021900985912 5.162975159036845 7.337859014718975 0.8026066185705983 0.8206400790335415 1.329365492504104
Ni 6.760072843105881 0.8994383654179813 2.3629835812340425 -1.9517843164357804 1.2253785106974768 -1.1714694193838469
Ni 4.954761080093379 6.778952406176525 13.301575720950117 0.7311276366940054 0.13823073348084583 -0.10559597816496008
Ni 8.789820986794794 2.7495314857572 7.724287063748229 0.04424174342719477 0.4403656939492416 0.7695080362444167
Ni 1.1725397930685146 4.070562015535865 8.973431241443294 0.34933192986917255 -0.32459894589886673 -0.6455831778632818
Ni 4.910535331955454 6.291809506886705 8.304630152564592 -0.49245084468025513 -0.7687541887975277 1.1343388330801367
Ni 4.806168141024086 6.638405580108795 10.8636229928358 -0.08890951864821461 0.21916571856401607 -0.10111685934768391
Ni 7.088142415952547 5.538271512930796 11.701589426566779 -0.24907973251462912 -0.7311320075693796 0.8419529815787048
Ni 7.19945007618203 0.6940850234181428 11.93968561709873 1.265376648356969 1.541796463447448 -1.7629200770687834
Ni 1.1975793710583693 2.2025351685042467 4.797101862655812 -0.6557328647027739 -3.1702028508756563 -0.9884354135453816
Ni 8.953279723557507 5.042004730306638 0.5946458444221437 0.03654514611388545 -1.0961402105232283 -0.44862819106834995
Ni 8.826353684626373 6.812911462782432 5.10765023469607 -0.8885593685833342 0.4592771861417639 -1.4801655780095282
Ni 2.3811848922849235 6.111245811652999 9.967277642450407 0.3489519208219345 1.708635861803922 -1.8854359709175332
P 8.14977406710459 2.8146250974072635 1.732326271011944 -0.5312248801246593 2.0616570675992234 0.44369630098437135
P 6.5059699049075395 3.140910774530719 12.09764586693959 2.382134020909917 0.8638706075874025 -1.3327112690478853
P 0.8771712586979495 6.829960674512073 3.355061881427994 0.3481173407357811 -0.011287399988361205 -0.1671607862516347
P 4.835119282032022 8.467818517631754 1.1650390690198282 0.03147750178299095 1.5645489266526151 -0.3350139705846037
P 3.344627949671925 4.094254380609754 9.598948702112892 -0.20459656250058958 -0.11588501879579396 1.0183447995103043
P 2.4372103673420007 3.6301813411154096 3.987107285509716 1.4506218029141404 1.1962965057298558 0.088068510804158
P 1.903937039584786 1.0921065364235532 2.3402881537179687 2.0607376411087475 -0.15716510849150353 2.0216039083320796
P 8.036636055534103 4.6242851062450905 9.37869425615011 0.7186089354017042 -3.5455553731783063 0.38891020638242696
