# total energy = -340888.26660832966 ev
CRYSTAL
PRIMVEC
9.10226500238976 0.00000000000000 0.00000000000000
0.00000000000000 9.10226500238976 0.00000000000000
0.00000000000000 0.00000000000000 13.32208490204641
PRIMCOORD
 96 1
Ni 6.531293823981749 2.069554680643831 11.707501603160033 -0.10609965727425599 -0.2560181115056752 -0.20460530425133797
Ni 4.83359397437471 0.7467753049172734 6.263790999528028 -0.24952453336153158 -1.005606011787397 -1.541444479424668
Ni 2.5876465007741323 1.994861494256346 4.889591108502886 -0.1892771585346998 -0.23679911537506315 2.004175685553303
Ni 3.742186892508835 4.990353181779691 5.21470398843841 -0.9867899075221587 0.03981893176915078 0.3679071217681986
Ni 3.455647591085727 2.971771184997658 2.966628405286601 2.008461714523167 1.0855709196478143 -1.3867669132417084
Ni 5.487072883747938 5.055598217122792 3.0083795845019017 -0.17755729899461034 -0.9943448370512811 -1.0019411613413003
Ni 5.4575451361679965 2.9545496996643505 0.47675388374488054 0.2746817493534495 -0.5600438612388807 0.33396547471543125
Ni 6.316007052785455 7.943983552681533 12.72785367394906 -3.07455189973855 1.8517640325863851 -1.3756800592999274
Ni 2.4865476436932408 5.284119681593204 11.779347601063238 0.4433240052466172 0.4505732306098627 -0.19265790208147465
Ni 0.7652738380266184 7.754865793289287 11.671757918828444 1.6764153112073192 0.07700402545988029 0.06575853445304805
Ni 0.44566327726867627 9.634019295179352 5.01228781991722 0.48661109807002645 1.1471051316068697 -0.5835871957764596
Ni 8.856813297996585 2.7159429256012833 1.4525467265737202 -0.18473839012408186 -0.570945595753049 -0.41855631138363397
Ni 1.433233540749084 1.4836509864473875 2.683068275189916 -0.17700065516019192 0.11017948377058444 -0.020501462387461464
Ni 1.9740628187877376 6.978797579228435 0.4804120840384621 -0.9555880279980575 -0.6098548712237368 0.45275455453189767
Ni 7.859032113666862 4.340096474207727 4.1550783749603655 -0.4442408606339317 0.6024845469015947 -1.900832507978262
Ni 7.452916357262961 4.139728315305984 12.741294988638115 1.172937005068309 0.05804393941760972 -0.2134766385990388
Ni 7.883125809056536 -0.20350479941223887 7.265025583189387 -1.0228583711099417 2.128634304950721 0.020906154025047863
Ni 6.990612319166402 0.9959425268047081 0.6404817852149662 -0.44445169109315713 -0.43596370822680397 0.11740351232284942
Ni 1.7049907638522706 7.102488257978074 9.491705382290206 1.1643487491786657 -0.021098729651828182 0.22297377945619665
Ni -0.04099569122234867 5.084798283163622 1.6141838377789746 0.5728255863845813 0.9191392982527203 -0.8378638991109958
Ni 6.372441095632445 2.4150675568420445 7.073999989058314 2.276197885796719 0.5269632766348279 0.48280046607468474
Ni 4.030492033337155 4.664646834167776 0.6383181768303325 -1.3017641858470677 -0.2036503965372364 1.0548701481298477
Ni 6.118324062051431 6.02813882067595 5.086038921879759 -0.42193088428282177 0.22486122628689661 -0.39651784352635583
Ni 5.777298602486051 3.0503419362646294 9.503509199510203 -0.31204990558926254 -0.8165875062307227 -0.5267681299048863
P 0.5047242337875447 5.829600217034247 12.72021960431426 -0.5655393371358131 -0.4041648185486523 -0.059937042675264514
P 4.272011532192325 6.231638158729203 12.644416851826282 -0.2809462422059226 3.206577018629316 1.9275305860947385
P 2.517995969182975 8.863794735232656 1.660411510909138 -1.4519603192199058 1.0561364164367812 -1.4892022342904996
P 6.24571026038105 8.038410449535514 5.931271606582085 1.135088823872284 0.9437997771138777 0.21135702115287472
P 4.864077459777061 0.9435589918717352 12.844022240923094 1.7219899145133246 1.1963098754662946 0.48452001986895266
P 4.0414693648973925 6.733218470194272 8.359221599043702 -0.6463617079005191 -1.5832578159160282 -0.665014547115016
P 4.601750183188307 1.5613479202767284 4.1410636175778635 0.29083907583960233 -1.4646975642809161 -0.14562265506954275
P 0.416880094963716 5.985549322856422 3.603637676413483 0.6098255606476981 -0.2514371770032121 0.5885180574191735
Ni 0.8719359994604261 7.9827409969464505 2.974955157286025 -0.15645779801183377 0.17694537644222427 -0.9087286444423576
Ni 2.0170619185311542 7.0241996769253365 4.992944596618165 -0.3121571205910882 -0.2634244312720754 -0.6548368352510658
Ni 6.068725820200906 5.8649170051384925 9.473400727424837 0.23336643554443035 0.6007338827590751 0.07826926532554908
Ni 8.741569521144044 2.5221466020117216 10.595639911441616 -0.44050659040248 1.1642050245119497 -1.19678835776461
Ni 2.1331886150863006 5.923335341750104 7.364568863185996 1.195215099740219 -0.15933023446362238 -0.17127866507475017
Ni 0.6471883340487828 0.4451835879044769 9.475266691744777 0.005834347293589952 0.05412249287601647 -0.441928153340355
Ni 1.4623425841401607 1.4368016286194099 11.773991828351758 1.2079790842741067 -1.5045072400786863 -1.5128898077154267
Ni 4.031502384749416 7.435066815646356 1.6824462739613955 1.9233841680265327 -1.729055048890222 0.840669743990907
Ni 5.626756242059216 8.289769496829006 8.201488449286362 -0.14838144876160253 0.2006010681879513 0.28808979522923933
Ni 7.173868219914541 0.979330893224747 5.164026217961812 -0.7693802524173008 0.1464037562099414 -0.31818532906303915
Ni 0.7799248437308953 8.010047791872413 7.200840051489413 0.32014193856877765 -0.47057949852846054 -0.016515738266836073
Ni 5.257559272395216 5.144645675376358 7.406039692640057 -0.21527126860561635 -0.719236027462742 -1.4682749972195295
Ni 8.213092016676901 7.557264722940041 9.479529282432718 0.75261511714382 0.9116594449359073 -0.45979860586287263
Ni 4.715765154269179 0.20883326532879185 10.7888373059958 0.6776381494162975 0.36254277213249175 -0.9874254842236285
Ni 8.466735732479199 7.677096041340144 4.974133855820166 -1.1333996090953191 -0.9018589139057178 0.5061229428507089
Ni 7.258719534014485 6.578407147494011 7.127767978494033 1.3902728695124378 -1.2297043917663402 0.8830579791491308
Ni 2.371249253250849 5.431940464792418 2.3629916784652374 0.5414054202020869 0.8691513963703675 0.41652308300368907
Ni 3.8691270798546626 4.30122070049813 9.128851781087507 -1.128924346932785 0.9650612575958153 0.3891395487844137
Ni 1.5122412007348711 3.827693569687001 3.8229321748784106 -2.241596236562449 0.39631318371471747 1.120861110308676
Ni 0.6208973518940654 0.27243170093785785 0.4969645528960835 0.5052299987227944 0.022805942150922017 0.5839816030014008
Ni 1.322813964333464 3.321525716674371 8.491603120391776 -0.432380618861236 2.134918595297536 0.8482984641807584
Ni 5.299001884827853 3.35948216162146 4.938483924817823 1.1846895176185468 0.26962104700109046 0.4268779438754519
Ni 4.080053866127779 7.478311676544106 6.035011030732317 0.37160616788634065 -0.12447224624417275 0.26278088415080547
Ni 8.15265297724077 7.663715711826422 0.5829108694725579 1.632846425477433 -0.7768552206381073 0.8098612432504826
P 0.18353260960338935 6.18929442206401 8.344381266227938 -0.5867877049916281 -2.1028296851827912 -1.5249076581119094
P 8.640288618763647 1.929124936604577 8.082854988957013 -0.10482001923088399 -0.11522578794524027 0.09047994845912805
P 2.348338852307965 3.5172335159087496 10.491221458324226 -1.5287663697363671 -0.19356730126962146 0.49338081269369216
P 4.015009080614134 6.530647563168501 3.7882416226044673 -0.3254155282628912 0.8684165750868721 -0.2096338678141809
P 7.087697077393177 4.293356343559453 10.548573009480728 1.7862045015180206 0.03524108259048125 0.5372780282972747
P 6.368854803232169 7.832599136178529 10.37148298302687 -0.7435082697465453 0.843616742434373 1.3989022630526617
P 2.2226547775287315 9.050846280475504 6.006301576773657 1.7410826694787176 -0.674536113452206 -1.0059631380164997
P 7.1148582360795345 4.149021727845787 1.5839160760565396 -2.1193855326589435 0.20494237587578254 1.1053452740612641
Ni 2.991978213242871 1.822027686904949 0.23421675166546976 -0.22788278672203977 -0.5446882047184167 1.3575072450456427
Ni 1.7970055604877915 1.5501521343570834 7.334540491032413 -0.7000555978795493 -0.7837992560561081 -1.3858374594489036
Ni 7.190898557683368 0.8341515873213706 9.535802215189648 -1.3262328604123934 0.2772747068916063 -1.5546895173600321
Ni 2.9406869501069366 1.5903113274282001 9.535069482859132 0.5397352315885157 0.7811990994290997 -0.49996463655879697
Ni 6.269348842521959 2.2894654024475884 2.945153431530326 1.3996090593116992 0.802871699306527 -0.7986841435877406
Ni 4.062140608656347 6.897332307699312 10.520649991215935 -0.15247567343563417 0.593547649423281 0.22272618222176482
Ni 7.798738710470334 6.5080375369698045 11.654013053259057 -0.35840123916029243 -1.5400776809841283 -0.31446262879581327
Ni 7.900001408320782 4.360148763948359 8.359741338373793 0.19109698535225797 -0.4386158011376704 -0.36699900813163244
Ni 3.502269392289322 8.372390756009995 12.806666545464376 0.008029040952063592 0.37168252965023085 -1.0509132203646288
Ni 0.5350466090998319 5.098915896140346 10.28014630513201 -0.7786040850084139 -0.7580648274044816 0.5377187153791191
Ni 8.943712621715976 2.8708998845411493 5.74808033191527 0.5665693210622242 -0.12950363802049308 1.4238393926139734
Ni 4.066427775459723 2.616892078139839 11.497745368162745 0.27725105274252254 0.32324603141539815 0.056696167140463646
Ni 1.0139286023959426 3.562926886084861 12.594432673940805 -0.3355330763128673 0.786848070184761 0.7756612003300062
Ni 3.0670354902293684 8.710603615698002 8.07787240910952 0.6947580969260357 -0.22757836810774354 0.1856788996604802
Ni 5.623370199488396 8.425602597055724 3.8548119477279754 -0.5099330606254185 -0.10957938829274033 0.767733203732181
Ni 3.0955983977219255 8.959505051448156 3.7029934497515997 0.3688543161728164 -0.6605444271588043 1.5230346094589124
Ni 4.024348004478814 2.9212263075897 6.973591993889049 -1.566184148263193 0.7565851575351615 0.5763379704132139
Ni 5.200679218564435 4.804594158163338 11.605454290068714 0.878095750047849 -1.7985776783713925 -0.7824437704694782
Ni 7.952794545177644 0.30302987487889727 2.8721614584667288 0.7528061501087036 0.13832560718749726 0.029548917301710397
Ni 4.6682786378929295 0.7107121310850513 2.021919797348483 0.11870243363993105 0.26227334838676764 -1.3226497710468252
Ni 6.21481717305481 6.052150595680847 0.7338773954472434 -0.2730874082831361 -0.5114672378817579 0.2917780427141039
Ni 8.147255334110405 9.20930761143087 11.480386438628308 -0.4484692968929824 -0.2947402106662214 1.1536773855077487
Ni 0.2549398783347833 5.467275457426615 5.759230606510038 -0.39856212764989424 -0.5419996021426601 0.8910813636742396
Ni 7.51413819148697 6.665124425913896 2.9620053649056355 -0.1371336437619251 -0.43704999931244726 -0.17052404629691276
P 8.496299889119042 2.3358505447618247 3.6222745639504526 0.49494841429112824 -1.5915341969922074 0.804355482940905
P 2.053907887151254 3.429396658896901 1.362835713203453 -0.6598689983583346 0.7801354340512757 0.2615408410961173
P 4.900613951387999 1.3206840343292388 8.327955318853473 -0.3403544089609106 0.06924803566354525 1.4042835819692332
P 8.611661995416261 1.8350166190247323 12.690964014457078 -0.2320474596226907 0.45438411971552073 0.2940956351036871
P 6.4423737974378374 8.196088985703001 1.891549876559954 -0.6280330847946604 -0.1834806064575808 -1.93601599785793
P 2.0447601108510565 4.076440266932576 6.253120414297459 -0.3473709494880598 -1.6823702432391736 -0.35764610616182274
P 7.077975858399534 4.339295474889899 6.139083597780646 -0.21520776235753258 0.3203435130566225 1.1638152452726989
P 2.552165871900331 8.795982861166513 10.492660526416824 -0.5777070828465986 0.04309194609346772 1.2424912591183634
