# total energy = -340890.3644672476 ev
CRYSTAL
PRIMVEC
9.09813969869897 0.00000000000000 0.00000000000000
0.00000000000000 9.09813969869897 0.00000000000000
0.00000000000000 0.00000000000000 13.31604710309902
PRIMCOORD
 96 1
Ni 6.690744501091897 1.8516624511749764 11.671927662570607 -0.8835688573472783 1.0951544495711911 -0.018067656134988237
Ni 4.788532786800446 0.2786268832319671 5.931432883696562 -0.7871028665080445 0.9495032552565583 0.25073860827429073
Ni 2.827601680112714 1.7567597579482028 4.855749841498883 -0.05064636140195794 -1.5583775077345807 -1.2064950435294124
Ni 3.533635502352584 4.214995170241863 4.928388477531214 -0.8822953899514933 0.9453334401495849 -0.8408409794614485
Ni 5.117921829613418 4.640005659302883 2.7636253827076693 -0.7318524306751718 -1.0347726060490243 -0.689577838276677
Ni 6.965662982659668 6.047433252632621 2.6975383169363494 1.674181279670478 -0.33471546550757836 0.24450573999070152
Ni 5.070229382303022 4.793172837950446 11.446979802446489 0.2588779495519735 0.19003949062202108 1.2887340921359869
Ni 5.484704225811687 7.838547585369847 12.731285913045841 -0.4396265017903719 0.2728930328841429 -0.7405497013388537
Ni 1.8792844027267435 6.802360476598182 0.27084797395108406 0.6819326630265934 -1.3668886862605427 0.02608975510851636
Ni 2.756809056586923 1.437524238828173 0.45249232926433625 0.5283832969108061 0.8581910407041221 -0.47692112447577223
Ni 0.32617648975205976 9.086339222860552 4.607911062368096 0.34890924050945715 0.012474478317926902 -0.5508560240920254
Ni 8.346578597457837 2.2205465176000105 1.2339997678077914 0.6820097961214319 0.7033625507655951 0.17600178158203236
Ni 7.00148235790977 0.6875600499652111 4.980720975991611 -0.6761677355183581 -0.25453124254750353 -1.2614264054599695
Ni 1.006827412573525 7.218263728009888 2.4028140954696844 -0.8292327057985589 1.1515814222106684 0.7440461445278863
Ni 7.810825554283473 3.991199134579685 4.005520515982069 -1.1049138429508005 0.1386379962215935 -0.8319729875478575
Ni 7.757628732569644 4.08654763664244 12.665970369504953 0.6764680403675963 0.38987154185443174 0.3674569216046575
Ni 8.440189354874217 9.028111129997802 6.785431568412289 -1.1457177643410397 0.26429834923659645 0.6404653970207422
Ni 7.147662165413803 0.29694871657681193 0.5193854901962248 -0.1360542946548173 0.09151970257755206 -0.4949404438713283
Ni 2.057671624095486 6.400350084217949 9.199577396641436 -0.21743922279121264 0.3373837563683608 -0.8213802996336758
Ni 0.11861699385907967 5.054935409787039 1.3797155701968247 -0.3551500792128464 -1.1872739905162715 -0.1709361941336669
Ni 6.343832441583041 1.8965253770978237 7.086374368233905 0.5097661960302512 -0.10287163725526154 0.43932105473481114
Ni 3.3050993360057976 4.073691965515085 0.29523553690711574 0.3838083663794874 0.4635277338880017 0.04875454369588377
Ni 5.7509703767056335 5.411782637640602 4.94395539423249 0.9871763443273 0.58868697889687 0.870111960511424
Ni 5.311921458380985 2.9972273931335143 9.617928047581279 2.9194871254195007 -2.6139678218599047 -0.6350182578632418
P 0.3118960499774702 5.854962111302703 12.480717692062113 -0.020599164307590328 -1.4988171316724446 -0.9391625354521825
P 3.8031132964934913 6.135803481691355 12.74710575802549 1.2058157580742006 -0.13386834274709203 0.9038633459302563
P 2.533568007434844 8.67778726817277 1.5120370915995232 0.05583459047111674 -0.40974925461496525 -0.6405124482085937
P 6.3511382476094145 7.865368900644753 6.140801089724092 0.7976166215551747 -0.3160114613401719 -0.3209515789542666
P 4.769799717549757 1.0233678302023501 12.669379442379277 0.25118340912119325 0.04774821391855647 -0.5217043422287339
P 4.176719297324114 6.074090801396349 8.140285562584621 -0.4626360753116678 0.6793440763638107 1.1748735599693896
P 4.854421513130452 1.0271617543779388 3.8283233312612097 -1.1249545636517593 -0.8142020367176817 0.2981520645612478
P 0.18607514925452714 5.5846472883268925 3.597156892782139 0.3266141765566826 0.5709965035956425 0.15741836215289018
Ni 1.405607965427778 1.2066316543483475 2.560036314896768 -0.798188949118877 -0.0447302530278391 -0.28583802308058515
Ni 1.9732226931654777 6.540015623832962 4.744281255852658 0.2699357500280319 0.09112632379387532 -0.053382529386198384
Ni 6.146111673755964 5.641701721192879 9.566247885723733 0.023987364053532884 0.48782157343835986 -1.3763562594313459
Ni 8.759151929808953 2.36739958742777 10.269161955925691 0.4770931312772623 0.1475178152097266 0.12774500345817352
Ni 2.616452058369165 5.128384690049693 7.042497680633921 -0.8352994808179292 0.4753820621234265 -0.24866167114060403
Ni 0.651959030063345 0.10380522273711751 8.981913507008866 0.587641311241175 -0.4710633801434145 0.38049267174269313
Ni 1.4077824207706213 0.9641753345515603 11.292553441290767 0.5718197708278862 -0.1713845945249952 0.04617881254890757
Ni 4.073209764121065 6.8625992582926 1.6562234967369582 0.035227455743726425 0.5441626712322499 -0.39493455819963597
Ni 5.381776973537265 7.911423682843384 8.182577354281998 0.45298672514736177 0.5002767684825771 0.30664107586886546
Ni 5.3361225094770655 2.833624648468205 5.0466888561353525 -0.018409098634807004 -0.404746144973419 0.0017457790465131224
Ni 0.7773823420897096 7.192934507614591 6.805817769611908 0.44533692191158786 0.007901000014631553 0.07533563661852187
Ni 5.167615867615972 4.413835009228646 7.269669126054236 -0.15892502860540372 -0.4119282645441551 0.3227228119220764
Ni 7.914680816787894 7.520795062989916 8.838393085683549 0.32681009461757266 -0.04880390887658047 0.8290054202791014
Ni 4.721352124660047 0.419276841541941 10.284382233511643 -0.03665878887361428 -0.5441765551893208 0.8531871597316273
Ni 7.931212136277209 6.9538626957154515 4.857014482890746 0.21911069695636456 0.34163996054155354 -0.16077365177836828
Ni 7.460447103621381 6.071434144659487 7.0421910733324395 -1.7159377947819738 -1.1002930563493374 -0.5710006173607005
Ni 2.368864387888848 5.233686556736173 2.4555587396498755 0.08803688623527418 -0.9849957917362132 0.736757324175957
Ni 2.3675815502179653 5.342509403412948 11.27279228227547 -0.8776725464675014 -0.14759649096646194 1.3673373437621872
Ni 1.0248781213609777 3.143389004358528 3.825593889408268 0.04757774977896322 1.1036830558674928 -0.4410007564300792
Ni 3.6465889043668103 2.7491757175381974 2.780843611729975 -0.5690337234423168 -0.2724608304427308 -0.7631846651295502
Ni 1.3243979721632606 3.3678128116468824 8.216706295211177 -1.1923200375806111 1.0691703668026038 0.922705932558056
Ni 3.521571369362583 2.63907003319054 6.8602273733223935 1.5108059286032045 0.070859088904407 1.9486012907221086
Ni 4.1277258160638155 7.115063531550173 6.145369265571964 -0.1830761719303105 -0.9973023770177082 -0.9074050405349277
Ni 0.624465362278666 7.638033688713261 11.19626510141665 -0.15348508853675502 -0.4767192928776113 0.0061667909323442184
P 0.08337898972365482 5.738833458599554 8.175186935558182 1.1237697993150388 -1.1511718454770756 1.5462329019522467
P 8.634443731548059 1.777066805334087 7.995899908191921 0.4756736252219163 0.454024936603889 -0.12347851487233572
P 1.9762250792037133 3.339180966609527 10.673037466905436 -1.3019935282490545 -0.07195772128522446 -0.15337478821113584
P 3.9917359248107642 6.1433367412054745 3.896568475724255 -1.0493769862257605 0.5803861723406585 -0.266458847223025
P 7.028822267136733 3.8563920014629085 10.656606226950728 -0.19260108070161025 0.41907233178810405 -0.16554767612824392
P 6.190637968516949 7.754953879553761 10.291080283818763 -0.21428010833694067 -0.3935687882003609 -0.25342952484289255
P 2.052576665969995 8.744858752639049 5.803932466420108 1.2732470522439814 -0.5819154645009914 -0.46564169490721097
P 7.057190266128304 4.005319447098902 1.6263424771449064 -0.06823476390768249 0.7292574162544859 0.06629126702806647
Ni 5.656258744408565 2.8911703808677203 0.336046151492296 -0.6460251504967067 0.08009629123195883 0.3208942433537699
Ni 1.460178606207587 1.4353406853458202 6.879388964943994 -0.6874497361900805 -0.9755531582660748 0.37519465656854734
Ni 7.187311857397532 0.7640808621263752 9.13567388435247 -1.4338088451218598 -0.04002513424268591 -0.1948070872139935
Ni 2.7873151183632987 1.7906867201802648 9.529309439313927 0.30349713092324504 -1.2145120002966179 -2.0116928198659547
Ni 6.216813315886657 2.346801399577571 2.901846137768525 1.7165486888930952 0.1279792309561667 -1.222303728426895
Ni 4.102287417994401 6.999216921171828 10.72337292374343 1.1634298369088223 -0.23177209447411698 -1.1173726375394435
Ni 8.250147416793416 7.098350249270661 0.428737087004236 -0.2169777097737618 0.9642999539497585 1.9419125658480236
Ni 7.487368498430894 3.72535149810319 8.419416482745431 0.8885385426477279 0.3510759091434728 -0.27998156429980814
Ni 3.0318003232707724 8.523191681622167 12.38765191320237 1.0200314431841078 0.4261909451107564 0.5541933159953746
Ni 9.055796768526138 4.871635193083002 10.38366659072634 0.37395872727891727 0.3338852562967992 -0.23764783652860363
Ni 8.617421112525214 2.538672063699844 5.729508775415955 0.10513729336098668 -0.8462924894943231 0.7963205284515704
Ni 3.9570811114179176 2.761476402155453 11.505663712098679 -0.6269413943923783 -1.0860077500749168 1.3342207637138763
Ni 1.1332824536203017 2.9055181468746825 12.728143415659154 -0.6048872428058163 0.9312383955090994 -0.29992946817664473
Ni 2.9883749033904743 8.629576226910313 7.755505226808055 -0.2186484126079654 0.40002379979708524 1.2729526609320143
Ni 5.448020527308154 7.836455013282593 3.5154628784957 -0.03962892724553175 0.8069309569775651 1.016745059123352
Ni 2.918028088700664 8.645889191051394 3.58381447119101 0.9775586187318778 -0.40380152167196265 1.3013980607569007
Ni 3.6490545001739676 4.194415178670685 9.378132023777159 -2.540572339686889 2.66418532325456 -0.7613980055427726
Ni 7.512797798360798 6.59230263159581 11.656334361264753 -1.2066691072134315 -1.2740050134559282 -1.3182071618944395
Ni 0.7762514433486409 8.921180696339066 0.209894078491196 -0.8302148672061702 0.22488693731850948 0.4725412502405217
Ni 4.825271074141037 0.7309718226362445 1.5260054651889263 -0.08183641385151713 -1.250908536647781 0.6373605328431733
Ni 5.982909247229086 5.544306137740418 0.5005714475038996 -0.7066648756659507 0.2986007220628922 -0.9044495574510294
Ni 7.648050740313555 8.96335057296701 11.203309790839093 1.3065760054134141 -0.8421599553831883 0.617519072637214
Ni 0.23313254642713935 4.946340016598009 5.736806393116769 -0.20815625482738992 0.21141050009862947 0.49243567517160364
Ni 7.885776027565244 8.35945246486421 2.893417621326642 -0.06408680317757995 0.8645756040742271 -0.8044835238783371
P 8.358105940216758 1.5934754481657365 3.4189752893663186 0.2867739046312932 -0.4127643872922052 0.36975343094831803
P 1.621843447157308 3.250574185923538 1.5484833286618502 1.0171777757853966 -0.12394208477231558 0.22636737851877786
P 4.641161123020628 1.2583818718801172 8.278959404993065 -0.02065727123903539 -0.3701959178023754 -0.4986083796412186
P 8.73453236429542 1.2919813010898262 12.454924466551818 -1.0023260554845448 1.02933703685575 0.4630106850422671
P 6.237002087458914 7.6384885956887505 1.4357364544144964 0.396560266728517 0.298456483175544 0.4616315453065533
P 1.7256896115222196 3.4208276705705147 5.9044814650266675 -0.04885327405727715 -0.45956977768151813 0.2636162355679073
P 6.892250094955054 3.8208182759795712 6.185889649506782 1.1011587467837423 1.3864434684640186 -0.7935694480689945
P 2.449737749991503 8.302689172462538 10.329670042549598 -0.47621638509926373 1.259923595662198 -1.8495140602099438
