# total energy = -340867.42767477466 ev
CRYSTAL
PRIMVEC
9.26532438981722 0.00000000000000 0.00000000000000
0.00000000000000 9.26532438981722 0.00000000000000
0.00000000000000 0.00000000000000 13.56073879784023
PRIMCOORD
 96 1
Ni 0.15446129957320917 0.9373636226311717 7.342652061572182 3.118442944694545 0.9695676301066013 -1.2262647699571718
Ni 9.091405174220977 6.078599579908706 0.10770661866777947 0.4303522755772975 -0.9809733008403815 1.0816219623023953
Ni 6.591463091493314 6.992753564462096 5.4776432152638455 -0.4268897709499938 -0.9366528816564513 -1.8167728612231806
Ni 1.9212206440145623 4.9492954932378845 7.12783643767216 -0.3911370388304167 -0.2155800580952868 0.16009513765410494
Ni 8.505595762202686 1.6787748956787094 9.371650667253807 1.7345034735993032 -1.8247417383612705 -0.4066405337826545
Ni 3.986878432937123 6.219432513554327 3.5470553280969326 0.6489078713611406 0.06661805423986591 -0.5447871921901263
Ni 4.538572919844678 1.7152802745315874 3.236541872719794 -1.110143723891172 -0.2739484707318508 -0.34438461316622626
Ni 6.065201920563208 4.969493900826532 2.1652294526073894 -0.8981387847416531 0.9254295021368063 0.9483570574672571
Ni 7.8182754540645645 1.470471868427338 2.1981686080286753 0.9423735861903124 0.3437534073401306 -0.5033204404049073
Ni 8.162250629169412 8.909461995405248 10.92013749519361 0.039265116148209794 -0.2651920646954594 -0.533969275639016
Ni 5.148703808890584 0.543034188020808 0.006924903592548485 0.9958959835884849 1.155127230580398 1.7965115398709832
Ni 5.097531421224482 5.967248909082846 11.989469915442852 0.2984708813532473 -0.5242070540459295 -0.25430087170425236
Ni 2.43417680884499 4.651897104806493 13.125045700323195 2.1630544343018037 1.9227686459297209 0.7914464881887208
Ni 3.2743101153131913 2.161109162765797 12.902487044670035 -0.8855010413729846 -0.44148540937598163 1.1440771434138233
Ni 7.161391737178145 3.084611859822373 0.4154275052159191 -0.9930911671498381 -1.9196365280586423 -0.48853299768308767
Ni 2.838098633995045 2.774510711389131 6.838192199383402 0.24469111652863018 -0.45689428773188406 0.25889029084714765
Ni 8.100154423821191 8.984131246211174 3.8458666785270705 -1.0877152196843267 -0.14956364199516178 0.2002521694889648
Ni 0.4117223019155978 7.393423260683887 7.2488119276737475 1.584663438014303 -0.31481127038448364 2.7327723282953387
Ni 8.964544350044934 8.235724653104265 13.156222591008994 -0.15266310685609194 1.273138294580259 0.5100855270428828
Ni 6.614172402043671 2.3720713381721876 4.050741535683121 0.5320085523682193 0.9977191528401528 -0.9937424275805918
Ni 0.8748977308321315 0.38625841036702807 4.642220399813106 -0.5365198099750115 0.9775994992721422 -0.05607293173416795
Ni 7.669131524268936 2.060024471576736 11.336276577337422 0.3046494993601334 -1.732827885669093 3.1851913538646888
Ni 3.6859962824629195 8.382200169420292 12.605479652936005 0.46730879819698873 3.118197661452959 -0.2394715200009037
Ni 3.9423122216979496 3.457837664632432 9.512044424514242 0.3629862874278136 0.17572641643345865 -0.17138639429720806
P 5.18971213549029 2.3044900606714536 1.3142334795993111 0.7205678589002881 -1.0623538581014027 -0.08914246059462712
P 6.718277589046447 7.319346990651207 10.026241216306191 0.06926860448883554 0.06433157219853437 0.1695331431385532
P 0.7380979929770329 4.105418995638575 0.5170236423219033 -0.31451739329314865 -1.8948719195194526 1.448216021686125
P 4.020928500775784 6.64093992476092 0.1491624604447927 -0.24149497818883572 -0.8652093810034841 1.44999291108089
P 7.034317810536718 4.945190954448081 6.437893116144888 0.540023709363212 0.17642781337585745 1.5130571865312263
P 0.6473793469302564 2.4806424116234633 11.544541616758007 0.1579107284082764 -0.22002600968178235 -0.9729064646718469
P 4.378903581323955 3.9349184926815544 3.58886325220806 -1.920949590443111 -1.1317088516564573 -1.3700951090129823
P 6.213224746084421 6.995792590924975 3.3078033371444784 -0.4711258579502338 0.008231643881172921 -0.7704868552179183
Ni 6.062283343319894 9.201032494674594 2.4540194279696914 -0.6688992268814028 -0.3557540313454325 -0.5655051414637681
Ni 2.2210002208635133 1.6348850531340184 9.293174294577158 0.6318162059861764 0.6974688109889795 -0.024408767861667638
Ni 2.840470557088024 8.418798201518989 7.800164524104229 -0.43556647278838534 -1.4896956289871506 2.7572338037718125
Ni 8.241969481872498 4.456769369110654 1.738893880761142 2.046562635159946 0.2346069928197508 0.48831728212785575
Ni 8.153578285360707 8.573501326063788 6.242591192346908 -0.33235082193014376 0.7089909526959661 -0.5060267835924769
Ni 7.604857967643958 6.38685692875014 11.753471906483576 -0.16296217478925484 -1.1201160046125354 -0.18450750506019836
Ni 1.709053976412518 7.539268734928342 3.872702764646227 2.1384908860298264 -0.03745917328772259 -0.1504290753192506
Ni 9.197993468211715 6.745100703711189 5.161420466879309 -0.18878196406583617 -0.609057572133422 -0.8476369193373595
Ni 0.9463973140985716 2.2944001222017114 2.010339168506036 0.06881043390549439 0.7472973044753324 0.7131242581380492
Ni 1.3142492306511004 0.47813429545409 12.193532203633065 1.4498381306705805 -0.23177697957012344 -1.033946510603303
Ni 6.224685952592292 3.7319059657664755 11.721441679403782 0.8670222658425069 3.653590042691747 -0.3587185132903951
Ni 8.381672045919121 4.875812203978449 3.9654180881404133 -0.32789201482784175 -0.4566842286036071 0.6382539911917201
Ni 4.762024752787537 4.564951298929487 7.118981566969191 -0.26034656367770004 1.8874915678949817 -0.31542962069477287
Ni 0.9710338121619733 8.918773646610108 9.577855098487365 -0.7856278246244147 -1.0615462745984428 -0.2850101278626511
Ni 8.276918286195608 4.069015535356098 9.934896234317677 0.32166788829500087 0.4230212891335231 -0.05170077080840128
Ni 4.937120856737203 1.9403164779779585 5.651858186845769 -0.05266544871451575 -0.3585295372080406 -1.3101138433633437
Ni 3.2045792825094455 3.4535478193509896 1.5340310685270482 -0.4693286568404949 -0.1663899695238812 1.832568947715173
Ni 4.7517124465278275 0.6209750249366189 9.47590502598235 -1.3860140942360841 1.0635010843319683 0.5981792346580214
Ni 5.046182992391322 1.968260696917116 11.40115052699531 -0.5782192465963267 -2.0595539052132916 -0.5039053663740999
Ni 7.816663287587305 2.9348749492534996 7.676734649620882 0.12892462558857148 2.1903587785437115 -0.5047749134632468
Ni 4.110283291044098 6.948669150101184 6.098359737644628 1.231239597463944 -0.27452645472250786 0.4121090130963935
Ni 5.955787702574976 4.715790783123611 4.607057566492153 0.7376677518053684 0.8186868119619125 1.0157438715523475
Ni 9.047061330771768 6.6589795117219746 10.035122956450449 0.32376179470955213 -0.03496854565538494 -1.3568153611849407
Ni 5.493021801004963 2.5868137660080137 7.7695982183083805 0.4203296012339729 0.9329304384995417 1.6170333697045762
P 2.1051743982645723 6.870970138156961 6.034392863263312 -1.2282630313341234 -0.11516896656537585 -0.02994075342349037
P 8.86400631300621 2.4234290323299295 4.064003921289722 0.5970512917011652 -0.15429909979761813 -0.5930185163926883
P 8.373500029637842 8.821469207850482 8.419754383015848 -1.4121061633374454 -1.0643909431360894 1.738110474224271
P 2.4611574340276245 0.4690413059093655 0.6060541462298488 -0.5026483540385472 0.03059895583277956 0.43410351508961365
P 6.3220923099223185 9.214810032327952 5.487434810282048 -0.34927999358531464 1.1713678608089764 -0.293661632890062
P 0.8536440027735993 6.929035927312034 11.89514149893895 0.18648314072933042 -0.462400562262094 -0.7490813929589487
P 4.148113611312195 1.0528558935451626 7.419880395027642 -1.3788232329145995 -1.542288572592518 1.0910003181935015
P 2.8499026575124478 9.072531708047546 10.468931012572037 1.9986550128453902 -0.2972182398930687 0.37060883697007785
Ni 1.8280670706676496 4.311757774078573 10.997285220325207 -0.7782837255545176 -0.33687519216305856 -2.0379563815481743
Ni 6.019597992970857 5.166715599877893 9.441637223016013 0.2716694448896869 0.10670823739253235 0.011553766275870425
Ni 1.8409366065119763 6.301717861166613 8.881809634190422 0.7429590821112947 0.5680047679571701 1.3597947555282388
Ni 4.768149132336204 7.633441493979269 9.14610857708526 0.02025335093239738 -1.1676734426765245 0.14138856238353711
Ni 3.0382945022372114 4.681759245934114 5.0727466779677695 0.2805310090453749 -0.32340981068677205 1.1341513996596788
Ni 2.4829309467952045 2.256504944661541 4.494015047397629 -0.1285181341787722 0.4487588031089433 -0.737265117050311
Ni 0.3494278186213236 3.681650845233986 5.752926200450582 0.31170486354501803 -0.9068350269640705 0.133022449807029
Ni 6.288449916365263 0.36978929592261417 7.724929161966347 1.4447897696133956 -0.7558480222588209 -0.6928781062945035
Ni 2.768349270542135 0.2662066732262601 6.019395082362512 0.03284172912036924 0.9127346802779571 -2.9526001059233855
Ni 3.046874192800096 6.90096199382873 11.206052440338132 -1.7485267844615886 -1.9600005336979858 -2.3273762084427463
Ni 1.9416970113406689 7.586114216014676 0.26489377673299797 -0.7677663709629616 -0.9917680774630404 0.41487243477414354
Ni 4.623100476005797 8.528064174313911 4.361092847880076 1.7423085714660187 -0.858612958732889 0.5036246019088875
Ni 6.511809096062301 7.531856475262782 13.381100357405014 -1.027885392010888 0.13908819638513467 1.9757487976711778
Ni 3.772321311592936 8.10817819490916 1.921814551320265 -0.09038816007627015 0.45333973761140633 -0.5252432086199276
Ni 8.752600050232857 5.242366975089505 7.933669512537987 0.330809702695269 -0.15320380985091034 -0.8959510330617151
Ni 5.783332216131164 8.85487996829299 11.621187161297263 0.31141535732905723 -0.4751653181269301 -2.5817305590927537
Ni 5.060025387316753 4.0542836692708 0.21767953572830362 -1.7842831161255919 1.2918782941919233 -1.4910675696340125
Ni 8.641907217452315 4.099887596863152 12.249062999982517 0.7920396416880294 0.4782187602412732 1.0784628478481235
Ni 7.789608539808015 1.635644809749738 5.892209045293643 -0.24820015812315316 -0.17497771119289218 -1.6144504394687487
Ni 0.5825850790637727 8.982037282855654 1.8289500561003091 0.7414588434166844 0.4199655330263348 0.3658615520930795
Ni 9.025204430082953 1.6916629621722001 13.512869950544571 0.03406583133545746 0.1953580746214571 0.32053763134529956
Ni 6.908105559081412 7.024617015699418 7.745527831576935 0.3955526513996091 -0.2524674180399394 1.5471258460801611
Ni 1.6307249223967233 4.846876595309023 3.262157715591508 -0.7696895561276035 -0.19548225890414722 -0.7364040546015962
Ni 7.880019577078671 7.703366898599237 1.8372907012889794 -0.1949441270124901 -1.1308601305029171 0.17593030491414863
P 0.24899818588020672 6.546415083375879 2.7937974110389154 -1.3442028146272529 -0.7718893919923997 -0.591896229862787
P 6.898756846578226 5.289147598903764 0.05941482041420446 0.0390699694182682 0.5176026613555343 -0.4361807093336166
P 2.9506352663673945 0.09433397569865286 3.638088995179496 -2.388816318026099 2.0669661385169626 -0.3109805837844838
P 3.9065388034870456 5.641998954958117 9.25007849034914 -1.0028852704221243 -0.24707221516629707 -0.3714444454974958
P 6.5039984274397185 2.690631727948749 9.695955558271175 -0.7687732149609211 0.5161692713431174 -0.7628501646082668
P 7.389754192149436 0.32689547577048256 13.013983181091834 -1.4949267954791028 0.9541358689325632 -0.217975812020973
P 1.007261231277393 2.881154597327361 8.017908917104606 -1.3627952329174593 1.4424701203412833 -0.4825605821497366
P 3.966809739892622 3.866355090775134 11.661991650756166 -0.14458830026775746 0.5587045736021669 -0.044841324684406644
