# total energy = -340862.2568901962 ev
CRYSTAL
PRIMVEC
9.32817854264155 0.00000000000000 0.00000000000000

0.00000000000000 9.32817854264155 0.00000000000000

0.00000000000000 0.00000000000000 13.65273220389308

PRIMCOORD
 96 1
Ni 5.083017835378123 0.1396372376812855 7.4932205117500255 -1.4041138891605884 0.5381794570656214 0.8151122072367768
Ni 7.442310111059741 1.720116145498754 2.8332561007422314 -1.94669250373517 -1.277530767221 -0.009318449187448468
Ni 8.718955314730099 4.944074614189382 0.2873051043737417 0.5760885734065692 -0.36490844415119084 1.1471290428662695
Ni 5.700692513742252 7.44068700797234 13.431367410271877 -1.1078649551593243 -0.23245806479754805 -0.8072515735417776
Ni 1.6943330596735988 4.511312421466369 10.867493251419866 -0.35864600818124687 0.429375513486325 0.04191592350749555
Ni 1.4899340088050053 7.061916313352074 7.708401071517576 -1.3148418449666324 2.653016194011618 0.3345797112606625
Ni 8.518324848041448 7.699198823266304 10.703127944920238 -0.11639949653836729 -2.2742621022265865 0.3075597310283929
Ni 2.828023925330028 0.07552839700040298 8.57959512395511 -1.3448000818916195 0.1591759682739452 -2.085603294002176
Ni 3.7692651369854553 7.409754767525084 7.2365491461063165 -0.138299124824936 -0.13938927256532124 -1.5203190102999624
Ni 5.323358358636125 0.8886927827918797 12.613063198036965 3.097531134242543 0.16891607837984457 -0.6770506523439436
Ni 4.158110264562004 3.4258109267841617 7.595642980654374 -0.6069724074696191 0.5972400106732038 -2.2445193237465153
Ni 1.0514163298467816 5.85437425721889 1.683013314865775 1.5833480616369893 -0.07595141582564983 0.4120555341506388
Ni 5.766166999779431 6.447142698552208 10.961233051624484 -1.044275403333137 0.003028759523994784 -0.30454871211621093
Ni 7.525657387415659 4.284469772734054 3.216106007891925 -1.0242693925248554 0.8420126311720467 -0.31913638012239876
Ni 7.96451088080576 7.284318749040693 6.747057634842897 -0.28475456020841927 1.9135116461078274 0.9216409816286514
Ni 9.00233605434022 0.4343349236456333 10.33087205027837 1.3442593788968011 2.558598858171297 -0.3613544082513454
Ni 5.590750600017479 6.547980309901675 1.8606488883317087 0.6146612914734447 -2.5408872998241465 0.9074541486053082
Ni 3.2473535407779974 0.7194077948652651 12.83681821963175 -3.9022733110989054 1.2201458015436277 -1.3430609877133257
Ni 5.915259279353762 8.06038590110639 5.382589494694006 0.4043856763102067 -0.46148782063983745 0.5062435275889733
Ni 5.193146312676162 3.5229452512043267 2.0321409233300427 0.7799773112068566 1.9379075584536887 1.6642629921155012
Ni 1.1599870013080615 7.782863257696772 3.4150126271636116 -0.038418708987514476 0.41057586428131876 0.4704532573632414
Ni 4.415157555805841 5.045126773648102 13.424909512183328 0.7620181556252748 0.4978061954548975 2.697174890806703
Ni 3.049027134219163 3.253388872373104 12.393827679004511 0.9665273006183808 -0.35416046160606746 1.2990817539188981
Ni 7.9693522055319725 8.432421650731806 3.6923403116391675 0.3014464190418034 0.9218824082154963 1.867775834633609
P 4.039567770109736 1.7878293944151065 9.04468971674273 0.6104038017486713 -1.0861352767917165 -0.952295730400031
P 5.732650853842463 1.2197526420033462 1.8402658851346951 -1.146756232907883 -0.32008228897543584 -0.8081262628372469
P -0.2470027084592766 2.841885598823581 2.8619952863857625 3.031345539554405 1.849576538016763 -0.2689733861147625
P 2.7392942898854282 5.447749621110234 7.467758315270886 1.5796274182522925 -2.194386411645866 -0.12020061545201235
P 3.294320920347337 8.225401381658846 13.567348001917178 0.14244862821693532 -3.1772577008399088 1.8425461135325427
P 5.218686865856073 3.255366446249708 4.27330487569204 -0.11703250213667586 -0.3965844350982331 0.9085152428799708
P 6.791464429369182 6.5767950537923765 3.839967134345505 -1.7431660343703075 0.5683786063568211 -1.709821911692223
P 2.447975270232901 0.901256906633378 4.077593157612508 0.0446106967308393 -0.4275428311529605 0.9218114457682446
Ni 4.085956802601956 1.961827911020249 0.8928260987575549 -2.3316216139826618 0.7244792781395523 -1.400210183230808
Ni 7.8396345530411615 9.306369381510725 0.6981572710525715 0.03039583868303797 0.10709570263893814 1.2175253332016451
Ni 8.975032475392961 3.1388761511033496 9.331656208230998 0.3425897260493326 -0.5153501178759319 -0.685431163098155
Ni 7.9691936264946985 5.205627415727558 7.743433979305185 -1.4291623474887838 -1.6603330609334759 0.20077796008544774
Ni 9.181922149964636 3.430101888969245 11.796480034765416 -0.4854183633135059 0.22785887546263983 0.32248421354870915
Ni 7.110628062331437 5.307313891335377 12.410852537882763 -1.752628465334788 -0.36677300816375547 -0.7494513747038577
Ni 1.8261402241849731 6.294822869160402 12.611083758524629 -0.5991194870841037 -0.9791208210126751 1.1049421250855744
Ni 0.8755036709799454 4.812463341429935 6.670752200559849 0.09310247368363965 1.2479021457212898 -0.23882848710026613
Ni 8.328804242140698 6.892964341403737 2.1327891726526453 -0.5114608101238546 -0.7396480154601907 -1.2751105878152813
Ni 2.5012018576852646 2.064680408960972 10.646550675692042 -2.010477459401615 -1.275215488824262 -0.9231430200954747
Ni 3.859403327408202 7.710551216699448 4.195784912547039 0.3705779837321424 0.31425925453575554 1.0088733696847592
Ni 0.12106110269133855 0.11485506542669471 6.251190313463165 1.4311230707595803 -0.7105228159594602 -0.18125274556832657
Ni 6.044948947308584 2.355710255074939 6.651351454576072 0.7485201211388399 0.2110250917347527 -0.44878811368498195
Ni 2.025996452044576 5.9827299956248705 4.7732682003227955 0.6805599510487828 1.7924286280508617 -0.5037084198719455
Ni 0.6143678390280162 4.387583459677347 4.2110896552797925 -0.9730730721566982 -1.098729054296327 -1.366739562277188
Ni 8.46609637570605 -0.237665201617388 8.219422951953584 -1.2055069685845303 -0.139882667261972 1.0295627797133107
Ni 1.4139373372357082 3.7907945733401793 0.29773867220855926 1.8155842402317184 0.8104284286078622 0.8085396962255817
Ni 8.91111579519254 2.535566867880587 0.6867134614685266 -1.0951570206743526 -0.6331986881559998 0.8195800132001434
Ni 3.318368964941132 7.63793134580624 11.44971338832081 0.8033409256334616 -0.6596306570952833 0.23670218478588267
Ni 6.424755069760468 4.692465651106205 5.604774583819772 -0.8384138580771947 -0.4275723988393152 -0.15128499556164268
Ni 5.772332925875824 6.339710064887842 7.405965661352083 0.7179635885082215 -0.40539252030816636 0.2161341308265439
Ni 5.116897780282957 0.7190495928045973 4.296145853966814 0.367118050208 1.0099156949063446 -0.3139206402494142
Ni 6.388766956477744 8.709272665277672 10.162124365442757 0.4485551717385694 1.3284062139146284 1.1365962616557457
Ni 4.06592920301201 0.3063942891901661 10.543090913320345 1.2770268310013877 0.060705802520489 0.7750757601401812
P 6.013550297928168 3.7405809875960374 8.54292418799424 1.1023535384227918 0.0510166002571831 -1.4153377829008658
P 6.997645162362452 8.739076196106677 12.438676629199431 1.3419351016389987 -0.1281880045328631 -1.6028097699060266
P 0.7402777289884992 1.422864404216415 8.29503157129049 -0.2698804713100642 -0.3239564272188614 0.4962787030667776
P 7.16376136799717 7.130478426526781 8.987102205765309 0.2538506715407112 -0.9858018325772764 -0.6635423334448637
P 6.6144249265198285 4.764283298634377 0.7010060968163205 -0.7978673041134 0.6529391040077207 2.1034272095574744
P 9.00496660072325 5.653053505309161 11.579769653697097 2.0511571965091644 0.014320530387730174 -0.8454283417218149
P 3.070248740678001 4.532869842357082 1.749038163444084 -1.0460731186635082 0.5712692976410548 -2.510448266607999
P 3.9335530196021797 4.9502591966431 11.470342655434532 -0.309023460058113 2.463360826201893 -1.2058155009638847
Ni 4.542748383561437 7.673033282115957 9.275802805667068 0.732738432824551 0.33496434829359084 0.38019108134187424
Ni 3.622262369431687 0.19819021515035098 2.327640832659428 -0.015348971652244534 1.0597961246765555 0.6762340699799193
Ni 8.388980322697165 1.3463826673566301 12.371655531139892 -1.071453763520142 -1.331328529767746 0.004036889073534983
Ni 6.402423410040706 2.6217032696568103 0.25050823800091665 1.3602781229225605 -0.030951196965875727 -0.8117350632344278
Ni 3.6689032627478135 1.7731561693778533 5.884982809866532 -0.017065954343351255 -0.4551202265505968 -0.4071149023159118
Ni 2.913992419890313 2.921688167287474 3.1211787305434786 0.6460549752933777 -0.11474267766123465 1.2449996273625137
Ni 0.379935784135302 5.680935431333541 9.106618562070016 -0.163314415922351 -0.545706361570286 1.833218922594346
Ni 8.74108175451927 7.179414051794061 13.22379118175059 -1.0932029822717753 0.11681678658144398 0.6412686096483279
Ni 8.081747430245176 1.4200752787961106 5.092318962323225 -2.3237203568577143 1.8150499649948033 1.820924164387393
Ni 1.3177265025032021 2.5183283937109464 5.450484643094292 -0.14210075795921331 -1.0450104817269485 0.005139378109094375
Ni 6.271605032467633 1.7139782039383513 9.602116487574685 0.002920258970588519 0.731134835782857 0.29779082456708716
Ni 7.048427767005051 4.397098201913837 10.21255809620335 0.38284934490032774 -0.16685713896828683 0.4775628718248291
Ni 8.310483699246124 5.985257932042605 4.993555005090594 1.9174423486208008 -1.3992958989466546 -0.3688933969408679
Ni 1.996519407468784 3.5703323988135116 8.527401165880766 -1.6634530946196966 -0.3090036625637711 -0.3026522664244465
Ni 1.506976591222718 1.524830725184131 1.8151852111628812 0.516468290640775 -0.27631080031644023 -1.6977824640291856
Ni 3.9524798941098642 5.343078128330182 3.4564894407717768 0.8699515236741598 0.07397475171525325 -0.14412601591935822
Ni 0.8955713817381421 8.546197445887165 12.343899535527463 1.957861632978112 2.012179015473754 -0.3651429287595002
Ni 3.207242372526128 4.176244243883314 5.403697297373152 0.31262891802118414 -2.009803573263042 0.8149479137447706
Ni 0.18694882704329815 0.8574797641668613 3.56359558818293 2.158642678387354 -1.2694490186541298 0.21285006075863344
Ni 3.9233386639659487 3.724751068404544 9.79206712251181 1.5737354782478896 1.374519206222607 1.314782966704239
Ni 5.991796985285527 8.636279667237933 2.506436831551067 -0.10124001518910952 -0.36318143415775517 0.44941546285633566
Ni 2.4368374249090103 8.679207945446095 5.868681817652545 -0.7543256720770235 1.2817010965486053 -0.765989738678513
Ni 2.9694391138645244 6.021740438794479 9.489413432965598 -0.3963430085113884 0.07042842912489161 1.017770672174389
Ni 3.255758229753563 7.361052346724385 2.097209633595371 -0.7125650432004695 -1.75282824005042 -2.555383950778425
P 6.683257556875768 2.7271116885512563 11.70998916219999 0.6708177840603544 -0.3098369570983438 -0.634978662874558
P 1.8298714956502633 8.181111189365852 9.962699099437394 -1.1855372103308226 -0.7484255045425046 0.8779101163996041
P 0.5654816531076511 8.636522199883176 1.5123673456721958 -0.7955833931752297 -0.38057211883037684 -0.22136966819387038
P 1.254350856665249 1.7877267844498113 12.92359453446427 -0.12102516823583673 0.16547054303340536 -0.535738965944929
P 4.317911293241717 5.973112643423085 5.6317656687818145 1.179831161084981 1.1943285833702075 0.0384089387955016
P 0.6216913920965144 7.226260165040778 5.7440321646294645 -0.2260593603600558 1.288066119534685 -0.5731662575534515
P 6.932627757079771 0.3058868362708866 6.679831316852765 2.0088044425745664 -0.3227387527616764 -1.0676457026279613
P 8.823216367648968 3.3234155095979365 6.437127033121503 -1.928661614375388 -1.1716663658860014 -0.184712679092469
