# total energy = -340892.61051419197 ev
CRYSTAL
PRIMVEC
9.06182834777680 0.00000000000000 0.00000000000000

0.00000000000000 9.06182834777680 0.00000000000000

0.00000000000000 0.00000000000000 13.26290177062149

PRIMCOORD
 96 1
Ni 6.319728207600686 2.1234129464196796 11.391254794392255 0.832895756472443 -0.21648740040090458 -0.2746318699521206
Ni 4.733400770287367 0.30477919407155446 5.966541632248947 -0.3293583149607231 0.09231057390996361 0.16531421996119916
Ni 2.6412692556015656 1.604858876448828 5.10134997033136 0.5725929015484847 -0.5456392557777764 -1.1008589561551363
Ni 3.5324728960220764 4.093155406355266 4.924647940714354 -1.0866836930960186 2.041731018099258 -1.2411406586277398
Ni 5.08987497699283 4.425235170932224 2.8344411583866838 -0.8995014694171348 -0.2186638392269331 -0.6812132683620656
Ni 7.1649974397190475 6.1033861157077025 2.7012023764594786 0.33319182977420037 0.3026224416277756 -0.8244450546019285
Ni 4.896785536846407 4.600590612844812 11.526748159232376 0.35408821360723536 0.5229119893835898 0.1667725496742805
Ni 5.6557046058731935 7.870116433368073 12.494966467097811 -0.8972556108057516 0.9462829485470476 -0.21109631129232032
Ni 1.9441065473124302 6.5155905672461145 0.4441193050794147 0.3084830141736106 -0.7268248955535934 -0.7856010851515373
Ni 2.669551222125734 1.7234600869160883 0.14025535567910052 1.1521362662728738 -0.21369852480185775 0.848467642768771
Ni 0.5441211126979546 9.169754804700899 4.91281772370144 0.16502342819365773 -0.5801336900102202 -0.2723111922387439
Ni 8.577754615320117 2.330077005551429 1.404740175990711 0.01967716671395321 0.9174169162449749 0.12788332880825073
Ni 7.176234106969918 0.649988641858018 4.88318826329001 -1.15329274847482 0.25853804971405153 -0.9184201606985085
Ni 0.6094858935156839 7.440368281992817 2.2906353973180282 0.2594515626672564 -0.4598081189445694 0.6001610409747407
Ni 7.674870278055757 3.7791630513208405 3.7702851780098094 0.4533453940383612 0.25674393392810624 0.4075103379821175
Ni 7.525984436981713 3.9603814962264234 12.553031945116688 0.006236467828015066 -0.29696524334199825 -0.6595771781495285
Ni 8.106457980601922 8.758175619324026 6.927372737579776 -0.7412251301393235 0.1188430729828534 0.6773177899624012
Ni 6.85274495574282 0.651309856442838 0.3224805697230479 0.011775138258057139 1.0771073622614935 -0.25849922605631614
Ni 1.6797911357209687 6.489284079319276 9.246192233674948 0.7250894009197254 -0.2729022888555236 -1.8431747482554772
Ni -0.14671372079982306 4.884651748581151 1.1401411291694494 0.6157678942740622 0.3183496225550453 1.8821547290631004
Ni 6.591410885704211 1.7504099646613231 6.9437257131611645 -0.6220676112398448 0.5813194827882053 1.3022439536969639
Ni 3.4668108872319046 4.414714388127175 0.37347419683661864 -0.10577595538625009 -0.7703089348791573 0.7534895493289733
Ni 5.962565301934687 5.410346539353363 4.751633169084749 0.30972434277987954 1.1733401540439987 1.2719553300157513
Ni 5.235154210352481 3.0976591825554998 9.10271449180681 0.45350454532404477 -1.1157685262771173 -0.14111011191116987
P 0.14833397572277127 5.662473791709 12.461981411619446 0.3170442734800604 0.1732422165590242 -0.8706922584949263
P 4.1430679573373626 6.248438803356651 12.752731082918583 -0.9939679133278365 0.4114407833847753 -0.9643958560976745
P 2.2964123129409555 8.416979655348378 1.3465025232316996 1.1274253937897551 1.0802824175553651 0.4377704224182396
P 6.291962765296921 7.72696672968903 5.9531989960713805 0.8299209901148352 -0.3400142520126725 -0.4171332057838622
P 4.70501912365049 0.9801998574130967 12.558363018780952 0.7595804927180596 0.3959236615857827 0.8708269843005777
P 3.8267648360537647 6.205168572612369 8.230121128429131 0.38387290106883565 -0.4810570010210167 0.15651307672980141
P 4.85990389514395 0.9557872916277361 3.873483998697791 -0.3319949812526218 0.7184197022090336 -0.4677862520540395
P 0.15124644737956966 5.789529688099698 3.5616728257660135 -0.24071773370317898 -1.788086806142398 -0.5292119634596885
Ni 1.6051035458163874 1.0356673092216313 2.9282102404123616 -1.2886610728062065 1.0082257087984312 -1.8853668082424946
Ni 1.7687782908851264 6.5236193472334305 4.7236094646707825 1.6434704808501823 0.07941289201168904 0.1585272789463528
Ni 5.804590446947237 5.656085202667175 9.263446861184937 -0.41843315554220845 1.1203543458755867 -0.581762740973211
Ni 8.704375543946266 2.3830433927138017 10.140867460566273 -0.2466243289956011 -0.4396833231702363 0.696234424361246
Ni 2.2960860871175433 5.159569499433516 6.972333905508746 0.36466701756434616 1.8007410045712988 0.24309626123768457
Ni 0.48123927286953067 8.91882371369777 9.10984977551111 1.332487068852221 0.6959626587570982 0.5765310602606264
Ni 1.3677198883133044 0.9698693730050376 11.50227850392792 0.3360280136714148 0.8340900338908603 -1.0879535609473778
Ni 4.391751714890313 6.6451656519398306 1.6831947584785714 -0.26738033059602984 1.0213599321875444 0.527003385844144
Ni 5.553170017208994 7.940046563347891 7.997039120880879 0.1372899668341313 0.33126684483734564 0.5454263684360219
Ni 5.244859428599 2.7358656825627303 5.126005393118594 1.8460191596828077 -0.7624961237029578 -0.7312361372474117
Ni 0.5166973013259292 7.043251774787229 6.703282782380748 1.5735506159305932 1.6402046656147173 0.7349500957638891
Ni 5.334254366042423 4.607876322901022 6.988262787519698 -0.5903785076666801 -0.054156945658377705 0.643626311247227
Ni 8.314127902689194 7.035648900736034 9.146322728751459 -1.067447470574226 0.07560585956077301 1.1755379330262659
Ni 4.659492497627605 0.3992116019381707 10.409852432346746 0.3114863197763087 -1.01177820203638 -0.9389601896333895
Ni 8.057895642055618 7.290766556472952 4.742734453568334 -0.08115070063840217 -0.030753222022456714 -0.07566088116842454
Ni 7.322627945226229 6.093771515745465 7.205137714924256 -1.028635897023667 -0.383161733934424 -1.053510805888476
Ni 2.447980455229724 5.092376041638991 2.634250869483985 0.19815440641967166 0.9065280372466128 -0.24154665736237757
Ni 2.3952043664643416 5.111568994249754 11.483113642985284 0.12232588932513128 -0.26931251462173617 0.6478591183816521
Ni 1.072422085326094 3.50229700735643 3.7100711404706246 -0.12016513422838662 -0.574334823940256 0.2855274338187018
Ni 3.578307624211517 2.353556203008693 2.603388094223487 0.20862625248527294 1.2088126359189957 0.3978815566431019
Ni 1.3383414405493328 3.3577336584426 8.235599003713931 -2.5628095538185347 0.3119794573626434 0.0926630721533759
Ni 3.6967185362817867 2.8548927989661124 6.952399695332563 0.1046392706786456 -0.7901403677827875 1.366235883167892
Ni 4.090908072905092 6.981586032333858 6.144264929929803 0.08910235138531106 -0.7843271035351203 -0.71888018678522
Ni 1.1159188617810794 7.305646078751928 11.250720334397567 -0.9483380313038634 0.29998114735018655 1.3789008802300704
P 0.20816651028513217 5.426612521381842 8.054785622539086 0.25128393925479947 -0.917993100463419 0.7201459408715211
P 8.55086817037388 1.5693093235253055 8.058380449876521 -0.23057653150411903 0.16146887807318 0.7095612233771393
P 1.7411487760077824 3.0905093999257116 10.61102411726821 1.4999090791850427 -0.21867618052210727 -0.627328602528468
P 4.094242825766641 6.270422799123275 3.936123887707184 -1.183590113906781 -1.0211632427957056 -0.6157974619604168
P 6.6910547510998395 4.1715855314006625 10.424893255171742 1.6345731783605526 -1.327771665654423 0.506876790297598
P 6.286860955891888 7.685744472169504 10.08764371747654 0.21212680943936368 0.903446827218128 0.5920957474681029
P 2.4081355956312716 8.430934871127684 5.904034045934605 -0.7512305780914674 0.6671030542129285 0.0014012512229008127
P 6.849392079224415 4.148903774845072 1.6110317939740648 0.22356024808728597 -1.3029219536005947 -0.13952708369476616
Ni 5.348544869473571 2.8822776444758973 0.3549472886153233 -0.07421514986083348 -0.12287687673259483 0.21322595604081343
Ni 1.347783865771436 1.03736187113769 7.062070473883909 0.8297919207361387 -0.40631811744622925 0.1989113391903542
Ni 7.032178220448063 0.6022962388408121 9.393980687326346 -0.728087821426417 -0.024456590380467557 -0.6708663779101026
Ni 2.7089520521312083 1.7012676690956177 8.968043034805117 0.9898310083413276 -1.4898437245292406 1.748077355628996
Ni 6.286117885960782 2.2060568216841516 2.6409620596178516 0.05691933889486327 -0.939567227089769 -0.11507357863809216
Ni 3.7100031767574135 6.8942390681151915 10.419972682335272 1.470885438259183 -0.15944156323050604 0.3458483421959463
Ni 8.15688705580442 7.392340591323771 0.25028407645335743 0.4687144202952637 -0.0786911833543161 0.6513090246034654
Ni 7.679582428838381 3.722454129017653 8.377167418332267 0.011939431750063307 0.47757984110569357 -0.46951557604032046
Ni 3.1253430684034127 8.433744037940404 12.369446550625678 0.42069958297888194 -0.30731136246301266 1.067205015546117
Ni 0.3415375949073884 4.7234236971880055 10.364135507926871 -1.555426909746689 0.7864456925400197 -0.2041327354902936
Ni 8.746902704759442 2.3607241092953375 6.011662288358252 0.3251501904166465 1.1703134514025328 -1.3139090487397176
Ni 3.8681864537987107 2.555698409754809 11.264314889405435 -1.481032553995514 0.06916164659732606 -0.23257942086676076
Ni 0.8271836349415148 3.3283461488502004 12.688949403527246 0.7802290222063466 0.2596629073471141 -0.35194545623261964
Ni 3.0752855281664666 8.334879489789593 8.115171834818405 -0.15967116274280888 0.3102807295039818 -0.07951830724130177
Ni 5.735693365408226 7.956820007768345 3.7030817522040143 -0.7290211318739639 -0.05864660599861513 -0.023013944396670042
Ni 2.8806827626725475 8.384366134835567 3.5537808793879617 1.944615566601483 -0.9155605797625264 0.30679559916885873
Ni 3.2537129299161887 4.3264521792372665 9.202676427380265 0.293261826348482 0.3553953624544331 0.7443742172912664
Ni 7.229889193092828 6.433173237692345 11.502689004755714 0.8661424343407148 -2.151343573622779 -1.1060119611109855
Ni 0.615347990325836 9.48646570826376 0.47067952420224013 -0.32034248461535797 -1.1248308935897016 0.4641442844260781
Ni 4.634055945229867 0.4682663592918313 1.640873301170713 -0.25918493926943104 -1.137730632370505 -0.5454153126924284
Ni 6.183039587590894 5.689795204419789 0.30047935648241064 -0.37723662669924063 0.5493089913198798 0.3281498964749187
Ni 8.16774312626131 8.743477333613612 11.452475601069803 -0.49108301779845104 -0.02125685249624726 -0.41058332048048646
Ni 0.04455338564970445 5.019872352385587 5.736841499070068 -0.0047084612192628585 -1.6060856124438212 -0.8033920905863713
Ni 8.069621648041608 9.04104965553628 2.472509918601807 -1.0838940461660236 -0.8167841956225611 -0.4583729291599396
P 8.619466211574764 1.6266797593037459 3.512135434480842 0.2216764008010118 2.0528831780613355 1.696789503988297
P 1.840837950545552 3.253332333122207 1.4922620334980414 -0.4545211595140172 0.15453384151624355 0.4645451194089225
P 4.698349617927391 1.079490311500029 8.138381895971353 0.6123478128489196 0.7476132930538544 0.002396011036002325
P 8.497638990187092 1.6306669638121194 12.305598719886817 -1.845851780867008 0.4956829784643076 0.5675553391245773
P 6.385852369640693 7.945030568983358 1.4789465828057589 -0.425602419597138 -1.0271983932461923 0.12184329326175788
P 1.775601847691502 3.389123832117615 6.047405764410136 -0.7947588403914054 -1.556412670698726 -1.4177065402433586
P 7.186881755372961 3.9815046182923757 6.043626075772767 -1.3138771670605178 -0.4888325312013775 -0.08407018827804232
P 2.5350283791102632 8.69248642504857 10.25889415111119 -1.0865525668347933 0.46598570851019105 -1.144696779275693
