# total energy = -340889.4424538599 ev
CRYSTAL
PRIMVEC
9.06057569614966 0.00000000000000 0.00000000000000

0.00000000000000 9.06057569614966 0.00000000000000

0.00000000000000 0.00000000000000 13.26106838834714

PRIMCOORD
 96 1
Ni 6.5835684537853885 2.202789083309909 11.37358051198247 0.49411100599149743 0.19993463824854601 -0.29522434939149156
Ni 4.543507313022909 0.6491830123145481 5.892105170251279 0.4953129967193986 0.5132724094112967 0.2054177728503043
Ni 2.706131254375463 1.7477941450635688 4.621057687914764 0.4139522369527193 -0.1224289905618988 -1.5074192715191586
Ni 3.54837520512053 4.40534259164731 4.320257441865565 -0.21923719523189983 0.8034347708988486 0.5633819244731781
Ni 3.8155353450956695 2.7843512058237905 2.588070138730612 -0.1725269356595545 -0.3014824144860614 -0.560726232017886
Ni 4.97841495457506 4.885408143313958 2.459835808503788 0.7394770370999652 -0.39387654924876686 -1.155719612748758
Ni 5.497151044036386 2.8960409245199017 0.531998054355908 -0.4487636882049498 0.6441724135586843 -0.7003044806655616
Ni 6.114910167133619 8.069258260206862 12.136583384379147 0.29955511555636155 -0.3620820304459893 1.569343005607149
Ni 1.6936481436903263 6.7484890556923105 0.40723845497356764 0.6701220435449105 0.19948546652626933 -1.501591094873156
Ni 0.6900253701442279 0.3658705837436791 0.17421494062992565 -0.4914496571092503 -0.0814566619145952 -0.22718447510343454
Ni 8.123195868335193 8.593186059639217 7.042051713740011 0.07163659050037985 1.4376914680057176 0.16647687281073265
Ni 8.767819598874137 2.817975002861291 1.1335958282815448 -0.3998620774082404 -0.4203236876967019 0.6543825213224667
Ni 7.052344527923412 0.7645159885662456 4.858311585130086 0.05993652845463226 0.8819408348255521 -0.7281076189207589
Ni 0.8340622507383672 7.780760464068069 2.4060087394010163 1.2295223576625212 -1.0806709112430355 0.23508059002205967
Ni 7.6801971325350005 4.058431262902546 3.6280557213984035 -0.273031101123904 1.286108738697998 0.669389279143944
Ni 7.859714322161516 3.9283123328956613 12.71928804550969 -0.3150758368997799 -0.2050799298949113 -2.7890941428155194
Ni 8.706180501259986 7.332180413534624 9.217888302022313 -0.010930016648942466 -1.5154927925559127 -0.7731734009111458
Ni 7.28979503963502 1.0086051842146302 0.08936174159034148 -1.6019911306594734 -0.5964223998679149 1.0107911555327624
Ni 2.0191221499369165 6.4802597677650216 9.124477389077603 1.915515306801417 1.1844496336935988 0.8351917515954713
Ni 8.863743915563983 5.2013866660533274 1.1623260082939972 1.2587354888913675 0.19853030170185165 0.24285329198894304
Ni 6.610967635203174 2.3137086530574384 6.986581056175208 -0.18228812881137638 -1.0645547224074634 -0.4906402738340775
Ni 3.6273200026381107 4.385264355528986 0.3790926821044511 0.23970111951320655 1.387861688967784 -0.30714475497816135
Ni 6.2103180309991215 5.981583793270287 4.528323599987219 0.04579006175092114 -0.0830026662454764 1.071647624698503
Ni 5.564788242873612 3.165076603699235 9.15979098351405 0.07518754107643182 -1.1187602619155894 0.14300295805850854
P 0.43730778809896603 5.6168956146770785 12.254314695062488 -0.10531161415532185 0.6952129250752672 -0.6001533276652566
P 4.540589807594164 6.419472364282242 12.753832397055143 -1.0199586809646435 -1.242570191985415 -2.1631544502147775
P 2.43682375792016 8.735618312247546 1.0613730719987042 1.4996116025492818 0.25183852620668884 0.3065192055790205
P 6.443655041267715 8.039403662729478 5.739867562441122 0.03232082361989272 -1.2357436559818846 -0.4666480246845383
P 5.02969781397475 1.178074195206118 12.65258408598663 -0.2624425269747803 -0.5722566012549887 -1.0716355405136446
P 4.152561585570989 6.2768407790048695 7.989714558624559 0.16298582893833866 2.0524831144094393 0.3839670034445387
P 4.9168483415678335 1.1448581240825724 3.658569928798806 -0.5454500225851058 -0.14118081724810522 0.5894477683222945
P 0.2200976968136775 5.8389522079929135 3.4120198807453055 1.0130120744434812 0.24281601099310443 0.2947846907509116
Ni 0.5268570836097268 0.34630155198900553 4.263910626614551 0.7762800648609275 -0.29258125534168966 1.432543862366507
Ni 1.988651433300669 6.6584269315875515 4.570135439434526 0.8282037503134123 1.1849972786669527 -0.028807925370627808
Ni 6.406860042677231 5.749053174253738 8.98705291675023 -0.12248838304492453 0.10542937068010874 0.7978305373381936
Ni 8.916947617047196 2.343771643779731 10.02005007725283 -0.4801673993272118 0.6571572558541263 -0.34617281541490064
Ni 2.6053957719009464 5.506574042936683 6.676099584813541 0.07990628670833981 -0.7852174765598735 0.28534591393551506
Ni 0.8436601187528712 0.22242898298391434 8.869678592755998 1.2226084041515073 0.7153037822878714 0.13437999227618794
Ni 1.7359247906795416 1.3920487548497757 11.063086355814592 0.19331327627728642 -0.8124639709806524 1.2794105007422159
Ni 4.484994114082414 7.210596545993201 1.420816989280864 -0.3232768846533336 0.16933696796734707 0.7244890483315652
Ni 5.820477693802813 7.80984491259687 7.764276558395657 -0.950172770519757 0.6916516900865701 1.4670030724856413
Ni 5.2605069235768225 2.8046559563387565 4.948447099899356 0.008170451625934315 0.8216664634155268 0.008014128553728133
Ni 1.2357357000152405 7.670293923113824 7.038604164623124 0.4578024013684503 -0.150537832982973 -0.8156817065870016
Ni 5.173978424059675 4.605454470216493 7.233051371161091 1.2019133376960012 -0.24519453852760997 -1.8074045326344033
Ni 1.2804587024881866 7.84698421307025 11.558559416740811 0.277178033412742 -0.20739546540196538 -1.409513977130237
Ni 5.155603576204098 0.42547014573046843 10.560001505103623 -1.6129350312654864 0.8803374948941742 -1.4220193086860993
Ni 8.378740350050544 7.407999312378549 4.810824200960525 0.12592414819935085 -0.18500552774253945 -0.36686736764977457
Ni 7.482142004687325 6.241006201456145 6.889390070979341 0.645195969727192 -1.347554504708305 -0.41155442614450416
Ni 2.3308965654746143 5.769584439165345 2.295995227240054 0.695878326573408 -1.5349431879710405 1.047206718047319
Ni 2.831611169539124 5.784815267195537 11.389295174763888 -0.32225332848482563 -0.7146610064975498 0.624261276457054
Ni 1.1606144655129722 3.7913073652308684 3.565344757659343 -0.026083070240297015 -0.42958248729080856 0.015305005788186542
Ni 1.1119229308108627 1.5410771066883124 2.2575774795120274 2.689496548325839 -0.9233929313227516 0.997533776302224
Ni 1.2822617570854549 3.5508759240594547 8.091598922118843 0.6990600667354993 -0.16453183326921988 -0.11256598172489
Ni 3.708810821973945 2.7903764887744607 7.179118293320691 0.885925530504913 1.2154262845807713 -1.243994326026451
Ni 4.3079232799396285 7.407084194216116 5.804263793291196 -0.6866766054694818 -1.6777294020330527 -0.5633125046878233
Ni 8.377036961787798 7.397217227098402 12.96644787031895 -0.22459280311685836 0.5466725821382972 1.303284479146336
P 0.5563945609318104 5.665985814717278 7.914497282018116 -1.722168349072718 -0.44626740414565724 -1.2377105499002683
P 8.662109860249368 1.673270908568435 7.784392848932617 0.7701130168182673 0.28904855959808284 0.2337922102279393
P 2.1808715502908536 3.4947275354198992 10.406636761655777 -1.0346049701229085 0.8340003023905315 -0.36205194853900224
P 4.292511240392124 6.414335017766408 3.676671147263241 -1.779897071242754 1.6782809036611483 0.08641529147145117
P 7.099396098393836 4.055858059356695 10.377940105774027 1.7536250249201024 0.41401214365637734 -0.819213373889344
P 6.786326020507347 7.940489356003963 9.95139809391865 -1.2354978585196659 -1.221660181305625 -0.0130617182799646
P 2.3823334546640216 8.758740901856736 5.346226313669165 0.02552668351619475 -0.379864551240391 1.1205343230968765
P 6.8015840302651345 4.13356155798068 1.6490538013946727 1.506908136210695 0.2649886904354017 -0.7215808735458347
Ni 2.9086985490042423 1.9991526407289804 0.13916682106634176 0.3064161043422529 -1.9949636800367319 0.7143108222469827
Ni 1.9520648279550943 1.4190130286260092 6.866860043031767 -1.4861089400771568 -1.3786334855012965 0.09955928505257693
Ni 7.0849354193122265 0.8695334991948779 9.102927715438694 -1.0249481637594349 0.5924492741527797 -1.2933715909079984
Ni 3.1663450843204286 1.9977663726215327 9.23636100409724 0.19312918529093837 -1.6025878837032077 -0.1395592224842822
Ni 6.55693036074032 1.9427505559651859 2.456904712211244 0.9036658852074695 0.7030229080379893 0.765223807046766
Ni 4.690941003509089 7.109154338601162 10.249068817063845 -0.7332166580125501 -0.3895907773892194 -0.7823144439804656
Ni 7.48918207213495 6.1353327051348385 11.201054462693905 0.21175682769445467 -0.2863249900193327 -0.4807153014108818
Ni 7.9373181544509785 3.926337127356945 8.111702527849591 0.025462405937162598 0.5475655262662118 -0.16861963018534828
Ni 3.572865941685435 8.35404122024073 12.296816950390758 -0.05946961612054274 0.4765681120117277 0.6328821853568455
Ni 0.22401730193316624 4.810993633729213 10.100836889843901 0.6886638111028398 0.13717992361882825 0.4486251057445564
Ni 8.982636792073302 2.3862476234379906 5.773233133066451 -0.1598015176730861 1.1340732381235759 -0.5305700201494798
Ni 4.02184465755697 2.803514323779682 11.37407159519439 0.251506853898883 -0.08780368717854554 0.45675879059528435
Ni 1.5362840620553733 3.69994957877732 12.586875883751205 -1.252870031249526 0.36761504444907656 -0.8703531299879528
Ni 3.409277244430767 8.816239316300276 7.986770777525804 -0.1661174325887849 -0.9633846412243408 -0.0949338704654236
Ni 5.94780596644307 8.257129300781525 3.15118764695475 -0.7072796264318142 -0.09416999571620556 1.4715649808247109
Ni 3.1793923135669933 8.75358543418917 3.110051726467022 -0.2664804444895798 -0.6342651817473012 1.2963928942328253
Ni 3.723135592417569 4.5819694575726775 9.191989551967882 -0.9556031975067091 -0.1655096238014569 0.7326404737941059
Ni 5.321810779883944 4.785334082877636 11.218108278588268 -1.0313275849232173 0.48344529874753506 0.7320329221170941
Ni 8.189338072154582 0.04381241459844629 2.3588919327843607 -0.18497056073954596 2.3002145604262902 1.0911101042984885
Ni 4.692725936954625 0.6879160680826999 1.5201689218206929 -0.2648825038748406 -0.7290638121864411 -1.4154393414757365
Ni 6.402809965265276 5.624361529190391 0.07986625808311953 -0.14174208906821395 0.9286138134020588 1.276835026705556
Ni 8.381413219930918 -0.009986566719141247 10.812199916151782 0.6365868879019423 0.6465303722678994 2.16114333332202
Ni 0.44425090738482875 5.102155239172511 5.551905916107802 -1.0588813261717698 -0.5003914396835706 0.8742691772129071
Ni 7.4910123084598155 6.480341312947813 2.483188536739965 -1.22224562149545 0.500318677464106 -0.21596289535600224
P 8.532181202335662 2.153599216935188 3.5439146836218605 0.15900524702403585 -1.9471208495218406 -0.061843001448725746
P 1.958389109909332 3.488439495769124 1.532515768552841 0.08313507805828264 0.33909636818409344 -0.24104914890066875
P 5.062814218763773 1.181336002517759 8.107499326705508 0.14511383375392428 0.28918122852120515 0.19634255002191348
P 8.785025632443045 1.8360803962986552 12.217369290912634 1.1301376505145955 1.2684879402924412 -1.2493573901105772
P 6.827678488758264 8.26025519945518 1.1843432076475748 -1.8314510320606459 -2.0602200780423807 -1.7947243660635737
P 2.136048881483385 3.4818343359630513 5.655620515926951 -0.9027418307313033 0.5119220660309893 1.6105094525431296
P 6.891084398666222 4.124211043687308 5.805881106083219 0.7077516809722262 0.9818965839855993 0.25835832960307764
P 2.90284541699502 8.673671155053961 10.090201585892776 -0.9825756123304948 0.23427480629131264 1.0406604322883688
