# total energy = -340891.88295485 ev
CRYSTAL
PRIMVEC
9.08012768894336 0.00000000000000 0.00000000000000

0.00000000000000 9.08012768894336 0.00000000000000

0.00000000000000 0.00000000000000 13.28968470614353

PRIMCOORD
 96 1
Ni 6.581131423616412 1.8449548685386605 11.366906361350543 -0.7990916634388044 0.7062753535370159 0.5938600384573772
Ni 4.528023702979772 0.2779572433817195 6.086011117216419 -0.16039030029702056 -0.7114563835173232 0.30116745434880393
Ni 2.7276704227112774 1.648197576961661 4.926752095576917 0.8331654651940619 -1.066753272720679 -0.7019538433435265
Ni 3.3454369247391127 4.012681043722187 4.583160963658299 -1.0027793409718795 1.7874854251129733 1.2899196278036558
Ni 5.29571219684977 4.610752748323722 3.021994596642055 -0.11814836090867394 -0.21126240455653938 -1.676448735548416
Ni 7.332666369943125 6.075404619810397 2.6324743617535376 -0.2081220591553448 0.41785697132376426 -0.782029308639879
Ni 4.843585388067938 4.6473456637815325 11.261200960355367 0.6885496541224786 0.4803437770040759 0.3403024726770526
Ni 5.677340892575911 8.07889852157322 12.426107821551879 1.4443981906019319 -1.4093252581581985 1.021721429292021
Ni 1.9776246173610121 6.6865880291069875 0.3540850357386148 0.6679726013020754 -1.8420015538829826 -0.07544079473781846
Ni 2.909000576977403 1.641396561160693 0.4582831355015342 0.035923967590118774 -0.3928149407534719 -1.1894118627948806
Ni 0.7788951877305523 9.186092997817305 4.735964988097561 -1.0856557660521367 -0.797259238215756 -0.480731756471114
Ni 8.332951420231806 2.307078898144079 1.688241849036225 1.3763079226919135 0.08794689762462918 -0.1056869952168696
Ni 7.144035792841247 0.6626314140072509 4.792141015408441 -1.0578194605661588 0.12346745912874219 0.6820277938435609
Ni 0.9199894792233153 7.481235422727419 2.5263421947468183 -0.43368571082590474 0.7207306097303975 -0.15219259497757662
Ni 7.4126350564039045 3.907496842068767 3.886116772903267 1.845783132412602 -0.6488608201732889 0.3701990031261689
Ni 7.673597932398319 3.619202781079809 12.836320759923476 0.278727637288049 0.5659113757632512 -0.4890009384584417
Ni 7.967421791281523 -0.02189672844330308 7.081980382711776 0.026785238513644193 -0.44936146968994867 -0.23976385443034193
Ni 6.751147738512704 0.8169391076276086 0.47061848926069955 0.22248089898017812 -0.11641003806132856 0.4935700458863629
Ni 1.9623064415850004 6.584481990813419 9.245129265418308 -0.49816794966969047 -1.8562840319439258 -0.13295303002167425
Ni 9.272081809079205 4.944656291780318 1.4442960407488783 0.52052112055391 -0.9285526211468201 0.08189143545916865
Ni 6.11766353508103 2.011774978412334 6.842659083566528 0.5373091386455262 0.1516639761676162 0.7729648844447656
Ni 3.1414246109658874 4.114605479457653 0.17917907196539248 0.6181819030321934 0.5968196353063335 -1.0829224262813737
Ni 6.162346844502342 5.926608563828474 4.869154120236089 -0.19787132796161405 -0.6701618956439104 0.6920679516883823
Ni 5.0923445721578116 2.8528853865234898 9.367552997912473 0.911824509758862 -1.3455498155734504 -0.2517631928840632
P 0.3031037496022808 5.547340701357677 12.609665331193142 -0.593755394558713 0.27479359234096545 -0.09447081478607601
P 4.161704102901739 6.024910028529779 12.742269703094577 -1.1349307010278649 1.4113831691284922 0.2876480797061304
P 2.517193057869575 8.542829496631766 1.50464529484497 2.7760810183853026 -0.7671678181470143 1.2205224681567561
P 6.3817136545632 7.858006250024296 5.998910898298923 0.17418683986048064 -0.3361190307233244 -0.2453022677500679
P 4.883174745734453 1.2098180818282462 12.678837745574683 -0.7060292989644809 -0.31033986487669135 0.3177377000026593
P 3.951617183559959 6.081887831134684 8.227271443594763 -0.6472641651101304 0.2837299755986468 0.5144636015059204
P 4.86864654108619 1.052768189580529 4.075454691968957 -0.32203041384074216 0.021159664796750653 -1.1478193840650748
P 0.3040844034160385 5.775288232288915 3.5354286130139747 -1.0985519052885144 -1.4658771864113143 0.41705761535092045
Ni 1.361746781937451 1.0135874376697462 2.365470476663817 -0.2617439582458589 1.3310084274241658 1.1635067128933445
Ni 1.9901007131027075 6.360057549509384 4.704043798446959 1.3223042147819486 0.6106508847624709 0.03024362937588985
Ni 5.646532018593688 5.110704590782054 8.967108461141253 0.751259374446874 0.9870904694817131 -0.04028687254450481
Ni 8.666310156014093 2.4035643372643523 10.28591077815123 0.3305284240094243 0.8910955047416266 0.22116449416159978
Ni 2.4543585727658397 5.2045113921703035 6.930052590615361 -1.1366170875913524 -0.8312111696811684 0.3017243552935384
Ni 0.8238790493855255 8.808695641694971 9.131076502839914 -0.525061945847057 1.2967055403772376 -0.9203487451797892
Ni 1.3367582699424394 1.0979963066761511 11.504680958081178 0.602457293208085 0.18522124329777132 -0.22731431581307945
Ni 4.167479064249424 6.917604643270171 1.7181036656779376 0.5820077671044815 0.4814640066514483 -0.18939080129442867
Ni 5.625602323772285 7.718154120028959 8.102295287146458 -0.15889931757379086 0.30884708238124875 0.4312462481464766
Ni 5.312238029637169 3.02923055056968 4.729307438317496 1.3089640460296166 -0.9746743552055471 1.0525764669996647
Ni 0.6613647361644805 7.325710991967769 6.840241045505383 0.09372802308278051 0.6283994669951436 0.14560182913393632
Ni 4.834532500546489 4.593854630292212 6.6104093880338235 0.3524177678833479 -0.4239132048201732 0.5124321728981884
Ni 8.10402323548681 7.358281410763593 9.110544517620758 -0.5700781055464311 -0.5935445640994874 0.12743158598281282
Ni 4.697422569178512 0.2774433081422872 10.620465366778626 -0.3727389959392032 0.5263737226799451 -0.5061062306801607
Ni 8.155616522243951 7.2562752538769795 4.6095941240030225 0.4150056179178982 1.0032267129219432 0.5513553323259472
Ni 7.232676001451458 6.018835422961224 7.18764673915696 0.3062186436194662 -0.2642253299068159 -0.39304839692051663
Ni 2.988478936531304 4.870635089097422 2.35914525956508 -1.3261814383491675 0.931731275985118 0.28663223684710637
Ni 2.452379104882514 5.3711680597416835 11.43141522203999 0.027172960870366105 -0.34620186888062315 0.25725018414056344
Ni 1.0227220463423412 3.614962361348097 3.808664189885009 -0.4631073585211314 0.00640153265096962 -0.7801606308622564
Ni 3.6188849766031277 2.5306861279366486 2.7824217779538354 -0.05842986200211872 -0.5776284070898633 -0.31498944783356075
Ni 0.976604076712013 3.4566049306820363 8.088381807157374 0.05594283391420688 0.09278237134005955 0.315197964299941
Ni 3.5443189662459207 2.5509438932930695 7.284940309660793 -0.6151541719494632 1.1146220713774997 -0.710440540658299
Ni 4.045623747762122 6.828519508392606 6.173949431939561 0.4740988245356286 1.2851880266559415 -1.0193454728606768
Ni 0.7699085851428115 7.219646017907548 11.30210602855534 -1.0750209120461098 0.2752661611020098 0.5438453971021472
P 0.1369564772063797 5.686711584574039 8.167388908072997 0.18125634511275235 -1.1355696201634442 0.0871799375516176
P 8.61775871210518 1.6026970560288838 8.282184425114034 0.31246153920538444 0.07191838340685677 -0.5199009704714078
P 1.7785972938077215 3.1091265960072185 10.513575917104617 -0.8687073668544136 -0.3420621356806367 -0.05581453586645871
P 4.068805314304006 6.102654083653794 3.892628132624061 -0.21499333235388135 1.159614834038106 0.46824005176200656
P 6.734885229434555 3.9588086448608486 10.522985653652738 1.5468291407753487 -0.3204610124710932 -0.025060542513053615
P 6.414111550928825 7.891866046982653 10.362126647748804 0.17538471682332377 -0.5911871196109044 -0.04733349497864106
P 2.377940216315979 8.402714042927181 5.997794042566587 0.4674602361731885 -0.19772914595679494 0.06109506753910769
P 6.989119730651243 3.933629450179829 1.626311744671844 -0.657182709775423 1.7826589502586074 -0.0677951052671026
Ni 5.380992758135072 3.2595389147562606 0.1445501881734684 -0.49835461175919976 -0.8916655183124838 0.069785396224254
Ni 1.3871075791765741 1.0781471470754624 6.908377417292944 -0.40791040163401365 0.2620463199776261 1.247033112852775
Ni 6.6825382920612855 0.7362794234332459 9.24930158419073 -0.15177170539007412 0.47789454413263494 -1.5765420944587494
Ni 2.8521680564189813 1.2713904291531637 9.439051741063317 -1.353874790499378 1.1664763370446298 0.26556641731574265
Ni 5.901538330682315 2.2304970993919255 2.4508699876246753 1.1444502104825256 -0.6229021913259981 -0.08641503436113504
Ni 4.368649297988332 6.9623696738426295 10.42088052337196 -0.45308494128812293 -0.2672384057015268 -0.0358288367731512
Ni 8.161182640649818 7.7468110036976565 -0.1724443410981323 -0.6353810405192993 -0.6108411463964061 0.4823865184657177
Ni 7.554820779270869 3.654706081189 8.38141932696399 0.1877769198400895 -0.1737458956683201 -0.29809395762980273
Ni 3.442249248463972 8.49011935414229 12.601252592689008 -1.3505624382966934 -0.1489812871291305 -0.0660207869754992
Ni 0.253049544525064 4.960719038044554 10.39916539748676 -0.21778246506324428 -0.952272076250947 -0.8971702501807969
Ni 8.626457474638329 2.63316445147433 5.971414454976506 -0.2635028499184946 -0.24010606826110906 0.3057185640545961
Ni 3.7630229269697018 2.670274934222735 11.381100417291895 -0.7970633201548659 -1.140234115518649 0.7298544264085366
Ni 0.9840679418500579 3.3893121027768656 12.572692866388897 0.22277143363740345 0.0068789865080204115 0.35285974051677294
Ni 3.0758206868510767 8.289039921682432 8.254076889183597 1.3854777621166396 0.5755188169460282 -1.4911675855469866
Ni 5.386640597692084 8.040271657464654 3.919646053205876 1.0085740932767855 -0.4465229717998891 -0.44375646479834546
Ni 3.0559715272503887 8.52416075365875 3.8435899938594313 -0.07734032575337647 -0.1565156478329627 -0.6450288480217085
Ni 3.1560436168932013 4.106197281017471 9.329185825461993 0.06935447933442249 1.2310130832754347 -1.041538206907632
Ni 7.32854399187418 5.918245766027818 11.59364169520644 -0.2579140429768075 0.06543380412377764 -0.4722247474413674
Ni 1.1202607802996132 8.827101060958737 0.13088822772735859 -2.3848365074427442 1.4371047422643122 -1.3822258308382454
Ni 4.541852737779337 0.3682019105927733 1.6638290171504007 0.5368607382541979 -0.7667381868087634 0.46553190880222406
Ni 5.996561869209858 5.589962821744517 0.437265363439451 0.7539955424311143 0.9340128729304431 0.2871996793148021
Ni 8.246744685900179 9.085394379349035 10.911695033119326 -0.07452831022587811 -0.4720697099207418 0.9302824593537333
Ni 0.27591875466701016 5.194459690579287 5.763524018574984 -1.303794328903219 -1.399396943300893 0.3375017700034639
Ni 8.069518749447186 9.152678127126299 2.6842501590815733 -0.3551914739737431 -1.1766285949872834 -0.9468593898758079
P 8.772220767899926 1.7950958862114048 3.876866846606277 -0.24792916384995364 0.2620902858416841 -0.5225836595098935
P 1.8957400239122428 3.1080823812981246 1.5977919709345143 -1.8943607842109893 0.321100445827305 0.38036617346715784
P 4.579898473701975 0.9703115480737343 8.223577647562943 1.5702616607666764 -0.7392973169889913 0.376733461810577
P 8.447070467743908 1.5054670464203874 12.573995864743287 1.0353181941398493 -0.08303994724131505 0.23470906561525384
P 6.564278706224428 7.803298479395682 1.3775026198784917 -0.5801023225516526 0.10365762349166664 0.35630964673858634
P 1.771705476727702 3.188241750444913 5.899689616640824 -0.659102038285323 1.4201786559329348 1.737770317276033
P 6.8997621919365235 4.042354901716263 6.159450283700594 -0.19320760393735756 0.4405695824299316 -0.19795668858656873
P 2.340566409858324 8.367356024864472 10.539039319789069 2.3472675480500347 0.908351720718913 0.25518687385363154
