# total energy = -381164.3706815149 ev
CRYSTAL
PRIMVEC
9.30599991853378 0.00000000000000 0.00000000000000

0.00000000000000 9.30599991853378 0.00000000000000

0.00000000000000 0.00000000000000 13.62027154566102

PRIMCOORD
 96 1
Ni 6.55309893076231 3.4817839847072247 5.684569970541846 -1.2249383378362646 0.41443791833988625 -0.10464595554686494
Ni 6.52230537746359 5.287948259574352 10.484680970426012 -0.0028305274702596413 -0.49702355165260215 -1.1365494675782102
Ni 3.7519185465552867 5.034434213347781 2.7271325438933594 -0.11455832956457043 -0.8754678255066988 2.2028473979290255
Ni 6.3422528935640345 0.3572275526646406 5.7183889043716665 0.809074228572813 1.9169546103511053 0.513717210258199
Ni 1.152985455742364 4.75879980562497 3.0003418080713993 0.07306252431362902 -0.004733915140559589 -0.6764189322972157
Ni 7.660773473536567 8.822608935077383 3.5910522424187925 0.6651389885080222 0.9659215487135816 0.42796886294678554
Ni 4.224495827792999 3.7283464490921085 0.9394323032057392 0.7822265122523495 1.1759968749405554 -1.9357162072293241
Ni 5.9802029718092165 5.172265376208869 7.973988300203536 3.5334508766052886 0.16668641771837744 -1.1175631562836945
Ni 5.614933174127726 1.6530619663538186 11.733822530178553 0.6641969363097271 2.675184502578541 -0.9363471774905744
Ni 4.127462168002805 4.312204875795547 6.540808496842207 0.3225852579029477 -0.8330608212953975 -2.279770176529009
Ni 5.348223220201674 5.739363697293995 4.236108784928529 0.02021838392940389 -0.25017116580659493 0.8392918898067739
Ni 5.813858225597486 7.394789387593984 9.116497061384491 -0.2715923117948484 0.019170402280863755 0.9865860190414685
Ni 7.82937027169701 4.706546616814964 0.5478265261240147 0.14832848403648002 -0.4147181685844664 0.2008725766817831
Ni 8.098425337569656 4.322860245552886 4.107588274855405 1.6357607709107507 -0.2551241389364961 0.6001746678214954
Ni 0.8905785961183144 6.28844560278942 7.082609388103448 -0.13527936416200573 -0.5240139641985169 0.9131118611117177
Ni 1.3784512186076958 3.569958332699177 5.040766946203561 0.7477094523120864 1.165348908308406 -1.8792434689535764
Ni 7.954275400852469 3.517063029903794 12.104988609325765 -0.5974037899445775 -0.27853660432316546 -1.4501088678334637
Ni 3.5043789521926563 0.2719715662062268 3.772474569487152 -0.9446009328589345 0.8859206454089065 -0.5358484949395997
Ni 1.366753576874093 5.854813930664777 9.457031511629294 -1.9098018013564078 -2.0956871606007392 -0.11803960324495157
Ni 3.070765892067589 6.064664225885729 5.31160597223558 -0.6883596495988596 0.1638304363268211 -0.39575371166682166
Ni 2.9453954629227255 3.336014804026915 10.273811668228266 1.2586850952694066 0.52182081320194 0.6465725383597445
Ni 8.874247927901378 8.89004020954173 5.993450993107511 -1.0053275613150299 1.11961695348893 -0.061387144858229756
Ni 3.0704774060741586 3.6946959538584516 12.523975429583924 0.9364947588120324 -4.339553167033971 1.6735025084358983
Ni 4.562908510086121 2.1384815272990654 8.385605699229522 -0.5354985677993487 0.38158050549023315 -0.5658219013732384
P 0.677731768965604 -0.3684738534085218 7.990236575833504 -1.502798999138328 0.7368491125588149 0.027882585342881013
Ni 5.9704316720317445 6.1586734357448005 1.6605291005837652 -0.3967165898007232 0.08766587604910063 0.5031780012897721
P 5.173168058188311 3.342780265872841 10.015162571318639 0.25305722910513834 0.5347503767794145 1.283989121251834
Ni 4.057387989598647 4.783730579057206 8.61858047332385 -3.2715364542198366 -0.6593362657833161 3.7763764165930636
P 2.1669671926503438 7.185767326354169 3.540085142779497 1.3230557482359924 -0.7310474182753732 0.44377960472679695
P 4.628311076596669 3.5026387302322872 4.064656906033107 0.6689483349517835 0.31242811486428773 0.49952472080790095
P 9.09609365684915 4.180022454805817 10.176617014641737 -0.8424101237207815 0.2752072828396164 -0.27846564187591394
Ni 1.3326098636516686 3.1620763619881203 8.869125905618025 -1.5108825474774108 4.129483240123636 -1.4428920383700505
Ni 3.066178034172071 7.001313104554857 9.923129955814552 0.6053533838089574 2.0266057324220452 -0.23796253955554503
Ni 8.335216502177067 1.9063433625856883 4.550669259164853 0.30979427678586646 -0.12669727891994953 0.7654536636693849
Ni 3.7644258102704513 8.470265171101522 5.807547827141197 1.1542237449295218 -0.05459557585769307 -0.516875810491839
Ni 0.7096224996393371 4.373931572389807 13.210954570538933 -0.3058201226294669 0.07334791676453174 -0.7122017463237799
Ni 7.611870444650266 1.943902377730334 1.865105685724819 0.7635253362984206 -0.4822980725169694 1.3975076966979803
Ni 4.960609717029031 8.896628857391685 11.668350168669596 -0.3805158116711447 -1.56847757228306 -1.4774402086585652
Ni 2.74915053939193 2.637069077944429 3.1875524670079374 0.04038868822969173 0.035172948356707166 0.2773317853817869
Ni 9.130014026076662 8.45929339735139 12.864754627623153 -1.7886190244967843 0.8780551266179006 2.119884840892865
Ni 3.2034787550452384 1.1903211268920961 11.232951287185196 -0.1790806776176722 0.07544953648856682 0.6387710400374547
Ni 6.24796450371132 1.727993876647349 3.761850840129093 0.11162444374722712 -0.4149128010937757 2.7322835615843784
Ni 7.656064637643804 8.24108631432075 1.3017055689554708 0.10247131649304934 -1.5769904948500777 0.39081050872893336
Ni 2.5284587544178776 5.479233085218107 11.857127027370465 -0.671109090048528 3.6977482252661993 -0.9543819235050982
Ni 0.33154671564948585 0.4679447545432107 1.5801010668154014 -1.1499544281302065 1.6762916411452615 -0.1377926175021627
Ni 8.057162534509358 1.3268866737820062 11.304920167146207 -0.41669508980517916 -0.6810700579159819 0.38288302635174065
Ni 2.4012643493145527 5.110110603624357 1.0265271552222754 -0.7035813516446205 1.6325926575954144 -1.880570672405432
Ni 4.876390418947008 8.119354531093022 0.23851928876805578 -0.011035431878555189 -0.27253822064788547 0.8920810085833475
Ni 2.485502259396152 7.88569948841419 7.762437798821304 -0.7075542202494395 1.1140510293653783 0.4432229608923786
Ni 8.976893105563777 1.6944829714105132 8.683495405445502 -1.4251712240515197 -2.209044527878673 0.399467413072983
Ni 8.513175136124307 8.397836574750983 10.050656585110312 -1.3842742287268417 -1.0008193890320312 0.2314738465074078
Ni 6.30955161030876 7.514669276863886 6.075499201438977 -0.7454358257865613 -1.7352706907826307 1.0956730410788227
Ni 8.491464238618743 5.682364448592073 11.699077649369821 1.1555221520259713 1.2932175818286373 -0.06100893558320461
Ni 4.238724701468956 1.2096683004514912 0.038234630729259596 -0.5539066379928913 0.4636588601492273 -0.2710575223373009
Ni 2.030457481759162 1.2420438737141828 9.173620079883595 1.2579327904844142 -3.355788676601698 -0.28773549721361413
Ni 0.7591797403107401 0.2279076572097209 10.969562644583508 2.7320956139432884 1.821829706920798 0.9029251503867031
P 0.4906579082259503 2.5975278848449244 3.035004796081998 -0.3139100987264529 0.03912293414339069 -1.0349389564235596
Ni 6.456632936959188 4.065809919406849 2.6379336053247404 -0.7992299887888816 -0.2925609436267155 -0.5238373294113366
P 1.8035027589277395 0.9388637066186883 13.210982488538296 -0.6908973284190489 0.2899636152131845 -0.456898144386626
Ni 1.9958670805469103 2.6679649972408175 0.8539352913528145 -0.4711335712597176 -0.3681251513162757 0.47082658154226015
P 5.934249944855733 0.20713108208287845 2.1724195779261737 0.10959352936012738 -0.8060616669987344 -0.4929313838610995
P 0.49065697762597155 6.326395469925164 0.6142713646108262 -0.7799230609301535 -0.015060236767232128 -0.01516770887937388
P 7.028812333928601 8.418514506280072 11.733850448177918 0.9848394686640071 -0.1609878246717034 0.3899988114609154
Ni 0.4934655283620107 7.750297191497789 2.4675165536057513 -0.13543594434452805 -0.5031744017453463 0.23182300231671044
Ni 6.587847533970959 6.290706960737921 13.035607200132224 -0.3980605054231273 1.3424871174877266 -1.1460016141300458
Ni 8.746569610809074 4.275334504635219 6.625430744715054 0.4358300108624171 -0.9235821645154224 -0.2760380062710278
Ni 2.222793885378969 0.8868664328028536 6.675254136980395 0.8627292948941078 -0.7325633406992673 -0.24475410855608173
Ni 4.268187496797982 6.712575849130445 7.431710011153168 1.1389465070554772 -0.12480263300039797 -1.0787564678291421
Ni 8.05706016851169 6.118620412656952 8.988344138302997 1.0956894961390549 -0.33496923338959733 0.04528175465593492
Ni 4.907816780231316 9.22481424591772 7.711402765383555 1.0426831191453527 -0.21494422428350077 -1.1387698722682968
Ni 6.649034482577512 0.45571667082168826 13.635662719466795 0.3678886098254374 0.683107657171301 -1.2288240460439162
Ni 5.307509471128872 8.301435722946376 3.9330300532307247 0.9788035468825724 -1.050497730093765 -0.331805490949635
Ni 4.377049082318811 1.9976538325062194 5.6178720088607985 -0.4243263810981918 -0.7098890390302033 0.10690466967405458
Ni 4.903973402318845 2.1797443303593624 2.2140434537782476 -1.5031743801998756 -1.3592885053157815 -1.4585433717540621
Ni 6.348366935424796 2.7973370062945504 0.2037604489596399 -0.22362298300442132 0.2583112784152261 -0.22492833207940618
Ni 4.674412999546762 6.454548393006661 11.219766546685463 0.9738454315463485 -0.24981146847433106 2.0242876258118296
Ni 5.483281195125916 4.1971268824162875 12.142240526477405 -1.199330150349857 -0.4637264801623691 0.5472937606620639
Ni 7.637796960059824 8.323704980439226 7.973034435225259 0.12913082806210666 0.27555386754575767 -1.2214359811099609
Ni 0.9883250954922742 7.260271160657448 11.55270078690335 1.0451819743078063 -1.7294057473614217 -1.9401732145594135
Ni 2.7121498842345684 8.450099069560776 12.584490485005777 0.44306278116543046 -0.6531162530155332 0.190175244868937
Ni 8.984970713379822 2.1757985864492215 0.06852286823948722 0.5917938999569679 -0.18336567814627128 -0.9988581515406023
Ni 2.534591408278215 9.389288486172047 1.50070879082345 1.345183176262651 -0.5675666519784871 0.12379424634054163
Ni 0.5040771599203455 2.3249644570521766 6.520731732899427 -0.7860996220545107 -2.540262007535322 1.5547561089319093
Ni 1.489211228085291 8.053682090588621 5.321099953219369 1.4677929153767884 0.9089096501049121 0.48228495989084685
Ni 3.8180842050484562 7.196571592108117 2.179065922974812 -0.2760182087766859 1.3026375895909565 -0.02867011424118288
Ni 6.566713608452255 0.8689700646104185 9.468295493772773 -0.5046700124542663 -1.2145629081392115 -0.02782062175669402
Ni 1.2100777644421663 0.9753432257879181 4.300232707068196 0.24752910019805754 -0.46836217916216755 0.006965889794871874
Ni 8.371519207350325 5.93483622284238 2.44174730959261 -0.01624294422142364 -0.10934798900822458 -1.4622966681489074
P 3.794260845591 9.062117451622912 9.395072165040332 -0.5058720031821675 -0.13216987199874655 1.9635553409287796
Ni 0.4007042530745194 6.11929975064148 4.887225394500256 -0.5277276656046782 -0.9459553900043 -1.42569521487579
P 7.53797150033321 2.01634958608045 6.8240552123916585 0.729263586902073 -0.567582335707771 0.8122557116245881
Ni 7.45932649612424 6.61468603735975 4.301989679828184 0.1127690988746316 0.41503312872172393 0.9246304032742785
P 7.754987415390975 5.957784818319759 6.821358333653076 -1.3613317609980555 3.002104640411417 -0.40599904354391364
P 1.989753038686149 4.091075708831455 6.9951264758957485 -0.16255645471040392 1.099982209977138 0.7512825143753256
P 4.309776009850861 6.023057100833273 13.463474735988138 -0.13684722286975787 -0.5244124851885161 0.03418718740467015
Ni 7.082079876715507 3.0788528058834204 8.9732256110473 0.41621686461717994 1.1290439032297845 -0.25470684889341944
