# total energy = -340870.526506489 ev
CRYSTAL
PRIMVEC
9.27717519697638 0.00000000000000 0.00000000000000

0.00000000000000 9.27717519697638 0.00000000000000

0.00000000000000 0.00000000000000 13.57808365201809

PRIMCOORD
 96 1
Ni 1.156706007576572 8.53062215165556 8.215663916643383 -0.7600574323544781 -1.5073945889288105 -0.5640311280214028
Ni 4.317829163368912 7.573709384369717 1.274419442264022 -1.0666681692060405 0.26989126994334167 -0.8195769278763497
Ni 4.66909083949855 1.1140681113852555 8.044796907928921 0.007498622369890311 -0.40506059089004437 0.9559513248747471
Ni 0.08581201309626635 0.9987528264291926 1.8750385937130518 1.223013610009726 0.2446402086860367 1.4169822604828242
Ni 0.8627076939884698 9.062788739824073 5.875603216370666 0.3798990040227522 0.8174575675405019 -0.2284671984706001
Ni -0.04292827176807641 6.749849860594724 6.800773201757421 -1.1010921552118649 0.617961302380955 0.3310920098223782
Ni 7.323272045883079 3.263478227306438 5.427676160139927 0.5289504822681859 -0.21924362298980307 -0.7778119281244217
Ni 1.2217111726358747 6.704169051011164 0.871286297689103 0.15746309934789654 -0.011331108742103066 -0.14389513085547476
Ni 2.3502887856841457 7.958443107814036 2.7514765066665237 -0.49124191197381856 -0.07382434218031803 0.17178491528720738
Ni 6.402809299079325 8.694262241063443 9.333221173537245 0.026183086153271036 0.5560702213031133 -0.1856598734970867
Ni 5.716372568229043 8.728745500450547 6.630640017583588 0.8516825501616428 -0.11382582227392009 0.3864136652128184
Ni 6.153577993339613 6.613800089566513 5.353648014698623 -0.2713382868025133 -1.3067521259799624 0.8668677425425135
Ni 5.304002140530169 4.380338768359576 10.991947589196673 0.6439338151853168 0.1004080062061174 0.4771908331973911
Ni 8.119531974103422 5.742088897263494 13.443700837597188 -0.33607866440369216 0.18765504955024453 0.537992537865796
Ni 3.417497886263844 3.134488386435231 8.17302880360456 -1.6199909096710037 -0.45931703824076375 -1.3543764127261448
Ni 3.2129640095601983 5.38267258432964 11.738184989944525 0.6719832651233654 0.7111851321338075 -1.7745653746171952
Ni 3.291244812010661 1.111952915490647 2.4940089249828046 0.40705473850193774 0.546660240843123 -0.5848208110732445
Ni 8.5718777487754 2.9681857478091342 9.663657447279967 1.798244206291374 0.08088844811595101 -0.5444951148710042
Ni 1.2138255739059751 6.112860472368402 9.195485739815831 -0.656067108113741 0.24444043397040485 0.43706953969647305
Ni 7.828404946170502 0.2703554331608677 11.718550776824571 0.8394471844377155 0.07387910667765342 -1.0305045748012895
Ni 9.083523225896222 1.9502013376539633 6.747696628282712 1.2413296347100944 0.3363555722141627 0.13218324173518525
Ni 9.08889471020753 7.953507650726616 13.124385113498619 0.7924260784931707 -0.772102022223838 -1.0498495549868048
Ni 0.7847228334197521 1.45501356894119 11.527643214726194 0.449999874604896 0.808158401626763 -0.4289754498344289
Ni 6.9498471987349335 2.0740887322881756 7.713423639513588 -0.29299211762686317 0.37470974651232886 -0.32266393365968304
P 8.04995316178078 5.18723033910282 2.0862186385697568 -0.5115582549336674 -0.04728670090110566 0.1467390280621731
P 4.453665559372667 -0.004838046750167885 10.023911489114184 0.6601605614568243 -0.565541136908026 -0.4359012304199848
P 8.59379971324452 5.55842866425664 10.548853941128614 1.364548211052824 -0.001749121480622794 0.8492225186569247
P 8.721045445220172 0.5650411854147176 9.64721458235188 -0.26044118027403534 -0.39655949539756863 -0.5317185319316262
P 1.0150621000376203 3.2181406731970026 8.08653584586503 0.1414950060544144 0.4659322295644363 0.27904028343246134
P 6.874859793401075 6.682339858291806 7.4209115293566965 0.31877025503223166 0.6302362630935662 0.6362670426686784
P 2.2257334344516355 7.473441677225298 12.475447651620252 -1.9841233948881183 -0.37834888592681293 -0.7372507188726077
P 9.380986564337991 2.0190843618533814 13.51611289915761 -0.0854765817072657 -0.35171868493379427 -0.04809531284533007
Ni 6.424879698348069 6.642772707017662 3.084424111675345 2.1885574636689147 0.2430127003849428 -0.42629738878163353
Ni 5.575860476037207 0.3701407272065163 12.25047244757371 -0.2625309729235285 -0.5268588898464798 -1.6169068714290413
Ni 5.184920322533708 6.561727306424245 9.104022999441469 1.745328589239265 1.9801541258277253 1.0215062279574214
Ni 8.614942395015628 4.516156610013378 7.166865369804257 -0.26475317738582793 -0.7358389261267456 0.7490045169744262
Ni 7.826521679650303 0.1555466819585136 0.43830755349775996 -0.22909326209037317 2.3857001409946204 1.2566351547189132
Ni 1.5692619787749724 4.951729252328109 3.2707431830304197 -0.7353450172094625 -0.014894914833961447 0.35220899430665153
Ni 1.9373246187867859 9.18028416089958 0.2994792685641314 -0.8581905264834897 -1.4523251587584924 0.07710918357917688
Ni 3.0736022870654294 3.9367970327401576 5.4519535993355435 -1.5150731885199908 -0.6041359664620887 0.3595253254624066
Ni 8.06513062004209 9.002394330728018 7.29684879611543 0.15706817790232303 0.33411562714005033 0.6339911021503081
Ni 4.720829644341669 5.602625125843984 7.16841373030781 -0.7658390720332617 -0.7095920766150747 -1.442585048652593
Ni 4.2133774503101575 2.306602568720501 10.361339969636584 0.7307995639306253 1.7404787173461316 -1.1659076090253533
Ni 4.2964638293983715 6.550010234429112 3.5126232553188705 -1.7895243099198728 -0.22358338801573752 0.1935531602022344
Ni 3.857727670416704 4.220706418541477 3.077200903238756 -0.40038529690156205 -0.9645786615324421 -1.9129604015900472
Ni 4.253844487557008 7.496105815692527 12.056726997650065 2.402405369564443 0.34642735462786794 1.0095454560511194
Ni 3.4000567973083013 4.298384204618476 0.12079345677959911 0.11653010857896061 0.9138109440612714 1.9799767197095963
Ni 5.251029471415197 3.3510918677831123 6.441971965524501 -0.4138933586903259 -0.0936506328776258 0.6477472753941361
Ni 1.8862816020668938 5.155010710409948 7.11154835857276 0.2560026848867075 0.1041330204661884 0.3526257701290959
Ni 2.3881767682875696 2.1754233145548754 0.5889967066386553 -1.2457879275917643 0.623851442613145 -1.3158162930647597
Ni 7.1812292198201435 3.467010169112638 0.5192982187588159 0.4944971856863226 -0.05097751948913156 0.7688395494224823
Ni 7.112160652121199 7.162637761167533 11.50244269662043 1.1039162549242216 0.6270182703769007 -1.8660750498924183
Ni 3.547832917506622 5.099050790952588 9.335597985766187 -0.9101813177284841 0.05278809033530908 0.2722600272858343
Ni 1.07809122682696 5.481660041327323 12.358689765955369 -1.1163627082176903 1.1901268865840342 -1.0874303414540563
Ni 2.3598071672098837 0.6620201340300196 9.352122489834066 0.8316711400367225 1.387661914252152 0.621906145961316
Ni 4.337107132969773 1.3434740942005028 5.58873905033938 -1.53453078302397 -1.0070640843901624 2.098509974761515
P 0.3614637854511337 8.269386181496445 3.637432801145733 0.3694348712666347 0.5910297680974338 0.9997454392415622
P 6.105327406287603 8.520398704831619 2.1252551354352534 0.7462544650331148 0.5507495804211483 -0.39514204622475174
P 1.3883848982610258 2.9048411970705987 2.3533400485338682 0.7903314007476712 -1.0271631691328826 1.739548235112062
P 2.658188945974312 3.2453320730526922 11.94261681772343 -0.02469673141573166 -1.1284816029684113 -0.860774228050266
P 6.91923252131297 1.0851511569839645 5.640458373115047 -0.25454744049741973 -0.23485381872323421 0.004798192719591736
P 6.699122267824028 2.3181062656911786 12.328587188592099 -0.17057495413950624 -0.4494062068849551 -1.04959218756036
P 4.808638105492846 4.784248412480015 4.853133292114428 2.4704257034684742 1.324782758229428 0.7021749582153971
P 2.5183819190806784 0.9349536941168156 7.214239263821002 -0.16697952347876402 0.33775862320927635 -0.9214090681235034
Ni 6.752679398962512 1.7515120811854192 10.077476969710148 -1.5683683003987055 0.0792758522131925 0.863385697531184
Ni 5.761877111488053 5.387060688093454 1.236452603673299 -0.5352926224361297 -0.5613396972321688 -0.9973247456152114
Ni 8.31556795852873 7.285838644853496 9.0781573078899 -0.22445319221520055 -0.7827438182084004 0.4369985772492216
Ni 8.781950098939928 3.742560820260263 12.215956718074192 -0.6162638600738741 -0.9013902017994153 -1.4118670507434459
Ni 7.861876993485181 8.111599989498641 4.901919172162574 0.6728826370091832 0.6373353360321926 -0.0831499904566181
Ni 1.45875227045666 6.8856398707235975 5.1132615675813655 0.6498141852254938 -0.5827269046586931 -1.1534354447002715
Ni 3.9633668618724314 7.497682935438507 5.619520716910917 -1.837392337245745 0.6122876490349456 0.7496550060742315
Ni 5.282729578309393 2.4763099305629197 3.993680958825161 1.1009584578474783 0.9865713637534492 -1.370148845069053
Ni 5.615084371837225 9.009120282585874 4.13599282296241 -1.023507060437534 -0.8638423254526284 1.141573660265679
Ni 4.5356850633386 2.491274013799776 13.05959054031128 0.39960599553337633 0.7884706933898485 -2.087648606566979
Ni 6.398300592040818 7.785989702178617 0.1535205469436782 -0.33800133534770177 -1.812058743576963 -0.8606811541158274
Ni 0.6851648301610241 4.197365046300973 0.7238460112249262 -0.19819862939404576 -0.12869219786279124 1.0240616473894235
Ni 8.588669435482597 3.2020076659131256 3.001937965808101 -0.11875231304126 1.1027929399530556 -0.2636684289620814
Ni 8.198656999476734 5.444866765371109 4.458580606675138 0.40675571920428005 0.230960397206099 -0.779765966526999
Ni 7.005853504067175 1.0446377338622326 2.8877192429342426 1.3095800823470607 1.0692001915992746 -0.2644636711698671
Ni 1.9275928622365917 1.9633842032953601 4.598991577659732 0.08200096445383943 -0.16851884294142588 -0.44549915852106503
Ni 0.6468658687061476 8.338222819820983 10.821311582139122 0.5158010893704215 -0.4818386163820476 -0.229042868468412
Ni 7.038323616484408 4.759394860718366 9.207406909660444 1.8485000171231327 2.469564898130076 -0.04335059907149308
Ni 5.7552532085549375 1.2839795710771533 0.887391473448051 1.0507841509859324 -1.100744542064459 1.5111782243409586
Ni 8.783619990435671 1.4415245565255734 4.472851684941261 0.18235266350072465 -1.5058311010964327 -0.4035374693772986
Ni 3.0724704717183142 7.451937185630113 10.090064240718062 -0.6123192736038293 0.7921859374579066 -0.5270226691178537
Ni 8.522068596327363 7.351224174086829 2.0538069723548737 -0.35701464322541093 0.575970559771466 -0.3932384014441357
Ni 1.5786226483261123 3.9266385261410517 10.0794186824327 -0.05525095005350484 -0.7146322101421435 1.0050465397395014
Ni 3.1771170054515716 0.7720066096796656 11.494322385363628 -1.3790849712164184 -1.573144124520794 3.467599268217802
P 3.9494510994079026 0.44523482005260245 0.08305205354080143 -0.54713795181049 -0.5137568052468829 0.5179374189871337
P 3.055576736086376 7.092233280271993 7.883503016072557 -0.31649405740354525 -0.8239447179267423 -0.3894470527225035
P 2.907986159387583 5.717847639050284 1.5942166517438632 1.095863559823074 0.8777028854848046 1.8356126196375033
P 5.503229473147342 3.657888044251093 8.686945333159594 -2.7077855764430137 -2.387908975720481 -0.303436967109271
P 3.378069892614345 -0.0012394305768407081 4.238358099368982 -0.637460034535515 -1.2257016983648503 0.8772033201405667
P 0.5362040147182232 4.424303300572511 5.407865680695424 1.330285433215212 0.042720164576345775 -0.5729687968306648
P 5.4100216961599275 3.134293565760728 1.8081937648559385 -0.6157594096336297 0.7786339098050848 0.48457786969008154
P 6.039774887904695 5.798559061344552 12.606612062305917 -1.768539737248406 -0.8815266301062689 0.8224151686560932
