# total energy = -381170.37470887206 ev
CRYSTAL
PRIMVEC
9.23845189344603 0.00000000000000 0.00000000000000

0.00000000000000 9.23845189344603 0.00000000000000

0.00000000000000 0.00000000000000 13.52140818308451

PRIMCOORD
 96 1
Ni 1.6931587959766576 7.803858900893325 8.024698550610111 -0.7345225213081673 0.34373052452199515 -0.34768848072847863
Ni 4.078702608422008 5.317967023856363 10.722679415719485 0.6070068602519805 -0.876388280438439 0.5827369319610222
Ni 2.548879642124939 1.6656004939441797 0.9130962517039986 1.5846315563351032 -1.7207061627048945 0.21397080462663795
Ni 5.3870521672016105 8.323133805566988 0.7015504846035969 0.7185395156163497 0.18291984885810433 -1.5344551925910284
Ni 0.8683784491032587 8.777554777867872 1.42034269199741 -0.2545428125117294 1.1049066438619488 -0.017356746110892687
Ni 4.9986306953097195 6.002988994156808 6.128294736569653 -0.3859729781309739 0.13443989897984587 -0.21513911390312626
Ni 0.22258294559125028 4.388135316526541 0.7263834433241138 -0.1883379345498821 0.21961514739660887 0.18117689802506862
Ni 1.2056456889522285 1.9498584206077132 4.991942056130533 -0.4306497522130584 0.3376436948979669 1.0290588434936987
Ni 1.3182347023179044 -0.06983438179473875 10.088930853491538 -2.057357154672289 -1.964096043923598 0.1922940909841527
Ni 3.238742561223578 8.411785990046926 1.5595458376108777 0.5723062235460015 1.393336596039426 -0.26993086493202545
Ni 4.939717087511827 1.0981840163938021 7.475459651027921 -1.3512818329612213 -0.1277894835428638 -0.574176958206153
Ni 2.57577277562026 0.3976580761064645 4.137780660663808 0.8428505536923098 -0.8076716917983316 -1.2407822468470566
Ni 0.42906511720254653 2.096916098030773 0.4186256665499483 -1.8707446874539457 0.40282218847782886 0.7693594264816943
Ni 2.009677396692291 5.007702855080385 3.6213715237710633 -0.11768247701584893 0.3213033058667305 0.7337013109584526
Ni 5.798606722663507 8.786026438264713 5.711875212334608 -0.9234096434933 -1.3125216814738878 -0.6988664626674544
Ni 1.7396004937028622 6.984297355501035 12.055011071799159 -2.070701180079363 1.0720708282788505 -0.3937045424472768
Ni 2.6347510525814872 2.472680890812877 7.099970164112585 -0.8241038692124258 -0.3528700249294181 -2.0602329335581873
Ni 9.28224216698361 3.6676561678148834 4.006258363964119 -0.5990989182588135 -0.44613704921538005 -0.6318748271382537
Ni 3.652671398825048 7.842069137972216 7.111949664697739 3.4405746599998417 2.0641759773663355 -0.20352004160695916
Ni 0.8958184989513535 2.1718768967875706 10.24940276308059 -0.26109706869047933 0.7638477526348458 0.18203564648093812
Ni 1.7504371977873734 7.4688264425601645 3.064411126086713 -0.562040065733303 -1.4147358876508087 0.8607325761790531
Ni 8.788021943876183 7.651914082412545 8.286554155249322 -0.926498566831269 1.715062334155556 1.485399572714958
Ni 5.017735813849164 3.685126080367152 5.960710142858975 1.3626515082507433 -1.1735419856421594 -0.43396930350459456
Ni 7.837006466328301 2.3780144741428124 8.767795277275477 0.8725118282021684 -0.30645775621346577 0.005373091386455262
P 4.2694304479997855 8.279380497345125 9.81924658470807 1.0400503095081959 0.33402563852940537 -0.3330715021462522
Ni 8.120673132069918 1.494753802865863 4.949727873996036 -0.6960657599938657 0.11713688892502407 0.6403263003397166
P 6.885224197272307 0.5854333064554191 13.224545499945304 -0.49469181819563185 0.2302641424700228 -0.6306630662183397
Ni 1.066967287406962 4.414973019310433 6.070450017657164 0.36828790214638507 -0.015739008001811605 -0.8341003183035054
P 8.356253655646247 0.30955280797929796 9.743662190447687 -0.19604713026868173 0.6510375161096337 -0.7966246899555507
P 0.7629039675495879 5.864292115707731 9.05048728634112 0.15889494669841667 0.7932511454976274 0.09942918723261586
P -0.03790074894007431 3.442958540582589 12.162790547103116 0.7826875110491681 0.7960359073316161 0.22337744265251852
Ni 1.2999056137384755 4.712100109477567 10.80548458398878 1.034314178355367 -0.061887224423099865 0.7291592001137249
Ni 0.07033418204279676 6.765872637112205 0.10193800216445434 1.2699329002690838 0.33482602294351366 1.29853770848997
Ni 6.89671683144207 7.089680376380847 6.802891113895356 0.5118662730923895 -1.0222626465074718 0.8249754731841018
Ni 7.2984231971732845 0.2725463411836232 7.235832685517221 0.8861481880386802 0.012865800219074618 0.9149329734808566
Ni 3.2011143466147 0.7133479876862234 10.960886431172394 1.7763828874419083 0.31151922989677316 1.414470549804564
Ni 9.18952506366549 9.432551779477214 12.887281031631904 -0.22287402065353873 -1.4165873390372508 -1.0137188707025186
Ni 0.16217732781070773 9.119469882870224 3.9306730458585464 0.6945488091287071 0.5605688805044153 -2.122568044151983
Ni 6.647703598795936 4.522388499609335 8.04580564167736 -0.6262885912997278 -0.3115655097536763 -0.24605868630011815
Ni 2.761484135813648 5.121511344097515 12.737180208151353 0.8738300327929597 -0.39568094944735727 1.4444956354117444
Ni 3.96133731542147 7.4880516609743735 4.385695441378442 1.2284216683991749 0.385695041879239 -0.8523114419948935
Ni 4.6577595353726275 2.154111353774344 2.2396455607363617 0.8262615389853769 -0.4270512362285226 -0.7240691871853272
Ni 7.338194732624112 5.46164342788221 0.32334581667339446 -1.448926931710221 -1.4927339015928422 1.9085874693333325
Ni 8.332704841740519 4.451252419941188 9.675839019632656 0.38766759222457753 0.25029175054485925 -0.45684517966150356
Ni -0.2386541565251085 8.169221196830451 5.855716060804362 0.07982812517223671 0.6340216982779274 1.6878515780687189
Ni 7.858180998094456 2.037642190608587 11.44433092397788 0.32173165165340073 -1.025122741664086 -0.6570420704325007
Ni 5.047548298146452 6.170537557905056 8.725256825479116 -1.1779668541827324 0.540561841254869 -0.9901680799657723
Ni 7.629196729178263 5.011425951198081 3.0341496530268453 -0.8277093271754972 0.3204448145211772 -0.25189663313813393
Ni 6.041005223745693 8.723519072675794 11.334374869405117 -0.39897607525886125 -0.049164634650108875 -0.3037323868625027
Ni 2.9000886297436748 3.8364981148298254 1.6510582468005914 -0.22847671155229682 0.4779089423103382 -0.18396603073443155
Ni 2.072101616214066 6.970125570278835 5.461053090805484 -1.0371367354058267 0.1147755877816991 0.529263128412598
Ni 2.5767150977145654 6.893917580514869 9.902646709280042 0.5039891843371578 -0.5321607616753674 0.24552261129099004
Ni 8.47174354291008 7.245071137422175 2.6178530002021354 0.3283100762018668 -0.9587129467802845 0.4011041773454576
Ni 4.781499360187583 4.853365277556222 3.855777840110274 0.15884789551056513 0.315585686656663 -0.7745242585120855
Ni 7.638573757861791 9.010761019304628 1.5816941022078146 0.3429383676380029 0.5928696495196499 -2.5665741630672896
Ni 6.875921076204018 9.169884114915558 3.613934569987575 -1.0556414790782334 -0.6281809232264342 0.9839336690202861
P 4.6079180873454 0.1324563041872798 3.306592523549133 0.2861241868624363 -0.3533256244095979 -0.5954785478974066
Ni 6.210835685114466 4.062526079136433 11.89251132201697 0.7073629301742399 0.9399503214608006 -0.0669209301922654
P 1.1949660385501013 1.8133048630005864 2.486722413863217 -1.2079644289860871 0.029064007245491883 2.2542995430617303
Ni 8.6638571502736 7.915884368692799 11.131215768944033 0.12653195698667885 -0.6425089098133322 -1.2051542132308017
P 5.631797235067656 3.417404982613486 9.948727183536763 -0.4577687199170374 0.11624368768679334 -1.5842664596862006
P 6.529044922528706 2.0764529270612995 6.38307830627562 0.2789929751342937 0.966058331401762 -0.38661266859750193
P 3.0958421871577477 4.535156040141981 5.811947047214261 0.831632316378987 -0.5111430217731197 -1.9595896714128125
Ni 7.323450163383806 7.532303845599103 12.934389745585648 -1.2058008456758653 0.583248324379802 0.14044291064081618
Ni 4.397789498767218 3.261145807093092 -0.23555742744656785 0.2704502277706052 0.4568786040026003 0.5435096110292833
Ni 6.140854411934439 1.0463563012070094 9.359005387707063 -0.5796683203380275 -0.35742190596615864 1.3568984078170503
Ni 7.423973758561611 4.5708164644951035 5.533961105549001 -1.2500857836361696 1.7616736062561917 -0.7748302197882785
Ni 3.6252978658306687 6.198225198264203 2.2638355232042935 0.4146883437877955 -0.06641570842107271 -0.27547004958269977
Ni 3.3015547957253615 2.921632699586028 10.170046308907416 0.44090125473773745 0.6563895244501663 -0.06561326712443538
Ni 6.450462650625166 6.235520828604503 10.577108205207933 0.17173195056208487 -0.17017334782571336 1.0033966628409041
Ni 4.52223144592695 0.9196324564267536 -0.06632377007085617 -0.5867457960100991 0.3680580455237661 -1.0749440360615874
Ni 1.4505016182411328 3.866763283270455 8.55638808695365 -0.20926928538591058 -0.27083460769321743 -0.42492519102445525
Ni 0.3481649177160537 0.8562455902164824 7.647438052464595 -0.08725295688139811 0.5021202494492191 1.014105564617976
Ni 4.7498391855093045 1.452247685651169 5.102289821064067 -0.6335193047202121 0.24938517957018985 -0.9761992764905058
Ni 9.185765013740173 6.225949792430971 4.743025827229402 0.5427344234261556 -1.7640187094496007 -0.738732959845089
Ni 4.089031197651746 3.8884274529875724 8.013652133667357 0.9889714885545096 0.7177494156148865 2.46150011884407
Ni 2.7959989921305564 0.8991757523736138 8.695847137684884 0.7701202159071188 -0.5262084007466744 -0.5106725098946044
Ni 3.222519839678479 2.873768280266461 3.9231418598656282 -0.8567756484138341 0.44786740164292543 0.7630214000788085
Ni 7.18070684300036 2.754647681403982 0.32169213378240763 -0.25855296211238693 0.06859240435741736 -0.2713927941895326
Ni 3.9288087262641267 7.596169263618052 12.165562082674603 1.3251074885586984 -0.031567490393635954 -0.06737575834149687
Ni 2.8553929994275067 5.8422491694625105 7.388827915979594 -1.013581830904022 -1.4118022589437813 1.8238367100484978
Ni 8.820661394456387 5.668908096369856 7.314946168405296 -0.5369952069495333 -1.4199642259292835 -0.7753123016310196
Ni 8.379562269802447 5.4739305689158 11.699912695928438 0.6479426792343937 0.4287247672762036 1.1217689668349262
Ni 8.54906014690264 3.0761827615040054 6.6445957835751095 0.5661751709475991 -1.2273744580815829 1.1318163237685992
Ni 7.911422196422706 1.9180227153432412 2.494551078007475 1.4261431010464858 0.35263039811478625 -0.16961824665319175
Ni 5.59361471334448 1.8765420662899972 11.564819737567483 -1.6852678765019427 -0.5070431406721332 0.1541162943628507
Ni 5.826645424195044 6.908311088582788 2.1277013913136513 1.6289028674486528 -1.8848754704283732 2.47503106345097
Ni 2.0989947497093873 0.17312951254403083 6.429537557060444 0.6681304670361784 0.36400238739715374 -1.2514129870880255
P 2.2744237129325615 9.077259396116487 12.686921182098022 -0.5782120475074752 0.08472556247385409 1.4821944355140988
Ni 2.102967284028518 2.861213224127628 12.48561439124388 0.34474045384374824 -0.033289101070432994 -1.3946753694555076
P 1.8513857617528071 5.724357284703392 1.2699065127127083 -0.7234873465399282 0.6966229180489165 -0.44113342535320155
Ni 6.614999479052399 7.876343794539595 8.963179296613353 -0.9903506282902234 1.302142652232409 0.9945669803644163
P 7.239491112471583 7.059073385219734 4.7115208585431265 -0.5284126074868448 0.3225762590418832 -1.2479047168244508
P 5.523966024433031 5.981814462390653 12.654307599183154 -0.5490338832816222 0.9367631819820705 -0.40585377621530105
P 6.0309260727173895 4.011428201650132 1.8536501063147113 0.13903831698380573 -0.14519353795192413 0.512989073842923
Ni 6.421574011518374 2.984528080154955 3.9309298748215045 -0.24484641115957187 -0.01810262313798173 0.2084213355633185
