# total energy = -381173.0633239405 ev
CRYSTAL
PRIMVEC
9.23391358028784 0.00000000000000 0.00000000000000
0.00000000000000 9.23391358028784 0.00000000000000
0.00000000000000 0.00000000000000 13.51476590303815
PRIMCOORD
 96 1
Ni 6.1564441634535365 7.871856009753944 13.317491042463523 -0.40598978757253307 -0.0781085713779687 0.7064357903742801
Ni 2.5773976884418546 2.350732809309063 1.1438178151712912 0.7918992594554233 1.143880711132301 -0.13134403366334155
Ni 4.56305848645039 1.0815221399123405 10.52413796797635 -0.17571484646923285 -0.16676252237195152 0.9349937487864735
Ni 6.465752570033206 5.579712382752192 9.682884108831969 1.2211917263096388 -1.1145775912928095 0.5503263768408005
Ni 0.1437332535790609 3.582869315275706 13.317504893334045 -0.3055321590754028 -0.8182327551436296 0.39585038514568593
Ni 7.231548733357433 0.8538997039308067 2.0039291728354516 -1.5047121570006408 -2.0531066069260513 -2.1054511819660386
Ni 5.7223117117312 8.274842470629542 3.714776695603234 -0.6371041938579931 -0.11027461458755201 0.0580627084706871
Ni 4.551202141283709 5.064496934995105 7.260632791279156 -1.4084163731906842 0.6050682484683708 0.6082669579113266
Ni 0.3540291739291622 6.7206085876347466 8.215288344342545 0.7387435013680502 -1.6835637493266424 -0.6697808581554078
Ni 1.1543592510297667 1.5309736544318133 12.696014486237114 0.8023968165526375 -0.8981896925842467 0.45965950918184706
Ni 9.092828714079998 8.615333803710675 7.014758601515333 -0.6809116779612467 0.7279903766166044 -0.8013465209112522
Ni 0.4308645696705546 0.7459367851700376 8.975007669073163 -0.3599431297261156 0.016795217180467847 -0.24436072977240494
Ni 4.9968123477117965 5.112827239202585 12.721922077852499 -0.9243110722616468 -1.7504733666649983 0.5921564255027093
Ni 6.286309925466148 3.5031529384657745 3.470321758372213 -0.8252351546033917 -1.1708245867109965 -0.7745008614733178
Ni 2.0314702437810443 1.8440771995344611 10.4158703300641 0.985163170552013 -1.0796388704340953 0.10293900015808724
Ni 6.722880130400327 0.7988821994353899 8.886255907726163 0.30014518373187665 -1.1779804810294874 -0.6859762369683476
Ni 4.532946693935947 1.1478493418845097 2.9891415930527163 0.22435703295696846 -0.6823823489695022 0.48566956009236356
Ni 2.3128460614750366 3.404451635127264 12.158235047008608 0.3276616439845905 1.4365493839814745 0.2223325463277719
Ni 4.817969907534019 2.1692494698184572 8.517924324896166 -0.6323381399279174 1.6432439666616732 -0.060656694450108434
Ni 2.0008598199278156 1.8816130586486013 7.815521749167585 1.0962052594332088 0.05760119545323628 -0.3965260710564719
Ni 8.453961928217755 6.1728805298061005 6.135933794384822 -0.6715420638208885 -0.4712922083247689 -0.6159519852604102
Ni 1.0548176615462659 5.625540296352065 13.104106377987055 0.24245914187431789 1.1390550076088835 1.0305300287225865
Ni 6.034556502861495 0.9842336253670562 13.178938014459623 1.1606964971380591 0.645401915090411 0.2781756214393209
Ni 1.928604445372306 5.174777566089858 7.232332692628968 0.491191004131225 -0.29866911340698243 0.11925496370929138
P 7.22628540255914 6.974965973897504 7.801925734663365 -0.09317369324120726 0.45544110022512535 0.3472889312972148
Ni 5.885299522118331 2.2911555982378617 6.330627170787773 0.5647862610198725 -0.8833965934354722 -0.5158795080168406
P 8.352241135105489 1.5544093273547375 0.08928548155777496 0.4498728621087284 -1.242022547012061 -0.11372992012600414
Ni 3.441202611578501 6.137440769097596 9.278670460828137 -0.6754141451817852 -0.5939299724633643 -0.5519705973124429
P 6.028028125888876 6.454376388377948 11.719586288104788 1.7038829204999686 0.5678566724150801 -2.7772403288007266
P 5.288816400052868 8.675335774811211 1.5514544749767487 -1.081873416191569 1.074903412631639 0.6271023454502748
P 8.114698705656226 3.750760333827562 9.654070604581104 -0.5230027493251832 0.5989204836994202 0.16021777927489825
Ni 1.5609654060684006 8.14353621808266 13.451705977819985 -1.0361489175712608 0.4845701563805977 -0.26772434419900987
Ni 0.4509095494897367 9.142147047051369 11.177022758198046 -0.09685808407132997 -1.5004901484994932 -0.05354553732662391
Ni 8.392704144856575 8.500029923573338 13.388416733448937 0.4023560474746877 0.7162432633830051 0.03956027879112541
Ni 1.2878631750327774 4.3462277253880925 1.893432468160557 -0.2999670062827995 -2.3132076302518483 1.0171749475719194
Ni 1.3749482149603187 7.133503037890289 5.638063330086528 -0.3073908095506964 0.8409618213100292 0.7481899914929309
Ni 6.423221163617527 5.70901487603025 3.582386381590178 0.9889869151734775 2.236453258908929 0.44105706358931135
Ni 7.504364713068938 5.924063491752073 13.323613127234168 0.1589543391814424 -1.108696192811368 0.1624384410753009
Ni 8.23166469025618 4.554960344151963 1.7765569759146789 -0.11837256110433805 2.258319462854401 1.5698978496693543
Ni 7.0915256662954835 3.1018008803117514 0.6861342666050149 -1.003508248718104 -0.8777890174407076 -0.8970733195916163
Ni 7.852178539699274 3.3075047753881845 5.240323578964597 0.7138860760047383 0.18102186050444308 0.3086905021987264
Ni 1.8324517022098112 6.466602090091877 1.8927703965496139 1.210854863160005 2.2149920037113597 -0.09554784990033868
Ni 7.486534025750511 3.9349769117678073 11.905454813202603 -1.1457383331663298 1.439565545099979 -0.4594360803171314
Ni 2.856058735513569 0.7061183025939011 5.782684886161722 0.46455771781441285 0.06226311970527986 0.23454734322640897
Ni 0.7922624067173266 3.2399125272416884 6.195898829830633 1.2163457110712472 -0.63322722740109 -1.0959782310240673
Ni 8.807620822208301 2.2829558828889427 11.060646820682322 0.6030167652559809 -1.1467973705584638 -0.6443395352641678
Ni 8.239079522942195 8.171930502652398 9.426252409629527 -1.2063888569688515 0.27494143077273936 -1.0141040219560793
Ni 6.967883562104011 0.051660976872295164 6.524577217139387 -0.3631248698882069 -0.37779249920271063 0.18507057665251997
Ni 0.11066291512115647 8.65374688462453 2.748119824928371 -0.42742276063532836 -0.6073457316486379 1.345766816680263
Ni 4.55568982333278 4.017472696595784 10.602725960534437 -0.2444381199775597 -0.03531384480994563 -0.3828120639044891
Ni 4.9426646778851495 2.70721728088606 1.3836548721703366 -0.44745473958553905 0.4093941852683917 -0.3676808646900055
Ni 3.1382194358704645 4.730995674570652 0.6108501683620667 1.2969148281745664 0.14018991408974565 -0.13517163493954784
Ni 8.701670896630036 4.333992789760482 7.658196174649776 1.4587385184840038 0.8347423227628784 0.577639719943773
Ni 3.7690250150890057 0.5346454489251014 13.52936226848764 -0.6373708172558185 -0.635964423826595 0.17860090976777626
Ni 5.370425729167447 7.452091527719578 9.175417761436155 0.23653917684545714 1.7868305651377934 -0.7612434822427793
Ni 6.41624955878821 2.4571536644850687 10.309252792526685 0.48445317118675923 1.029567150588685 0.8366122860920817
P 1.061696927238771 6.775384163591716 10.174199417807968 0.9832572117785517 0.3367579498589039 1.0765221791819848
Ni 4.446000162713624 5.247402297192616 4.81629764576635 -1.3719771565270436 1.1449834572781765 -0.23127869977746618
P 3.315288964621449 3.7463742248289846 8.839427037883247 0.3224854991002898 0.4598662258760145 -1.0829386242312897
Ni 3.742569852392324 2.9988335088525204 6.416459168628774 -1.6343528348196303 0.2803217212480463 1.1732362814762827
P 3.2169016143481 4.945998120724069 2.974640655007736 0.3515212242110075 0.027562740109617047 -0.6631438124548644
P 5.17395574777223 0.25179128165074655 5.423516115877596 -0.9617193377067761 0.5361053481454122 -0.7323936478906226
P 0.12539193083406297 4.024185751842028 3.82188086039165 -0.129103574368597 0.8843288754417545 0.4029939381690027
Ni 7.784678630689591 7.915707865826035 4.580059968320243 0.7897462176681624 0.3645659732101076 0.24304843871888468
Ni 4.437477260385862 2.5526692676035596 12.50987540746844 0.34622886546381665 0.8533375692665626 -0.03494386306503659
Ni 6.513630412470307 4.141170204269344 7.654155414022877 0.17819390413734473 -1.3329614373854786 1.5114582174752227
Ni 6.954245071596857 1.3580870885784195 4.15545229856008 -1.6775617661069364 -1.28546904823147 1.366503277896666
Ni 9.164622392951447 6.343883377268526 3.455225232894794 -0.06662396777713687 -1.186333480979873 0.20373447161061042
Ni 3.738940924315606 3.1546742700503905 4.217944656180441 1.034695730064502 -0.6469409774427568 -1.6320694381020926
Ni 4.805051662293998 8.200629506373614 11.493078385504578 -1.5162317276044663 0.21970230779377647 -0.9933331079573149
Ni 7.301190910341158 7.505066490508711 1.9723852003090518 -0.524266189418639 -0.3486971244986511 0.3109795553432193
Ni 3.7022361174327756 7.2808670663288035 6.771033143465128 -1.5400028618821349 -0.1693613934473793 0.3328403599720526
Ni 2.83463605577315 5.827439818991836 11.54970536115463 0.4200593782917217 0.20282995751847002 0.03408588594011549
Ni 3.2571153084297926 7.5361109083049564 4.344078070283105 0.3397885091551116 0.6215734452122456 -0.08694776693615348
Ni 0.7121785201428826 4.818274626685499 11.0114660730248 -1.6456518047722175 -0.08023204547887472 0.568532358325866
Ni 4.48647240637839 0.15141402297909576 7.533793195970971 0.5388276321725817 -0.06746600406245801 -0.12797151764668283
Ni 5.798546903083314 4.960910891319231 1.3738438388840453 -0.17037646497545497 0.17119381867042777 0.5958580427240124
Ni 5.875428468393111 6.82700174106971 5.993717672823585 0.8620942324132701 0.9037682151132886 0.23282727521150873
Ni 1.7230113572600476 2.44120669555761 3.6627722171419976 -0.8684823953278009 -1.195590995022399 -0.15229286800086675
Ni 4.421539525372084 6.750720380149191 2.290441816710304 0.027661727581326553 -0.6983859234866101 -0.0638605460993868
Ni 1.256421698948239 3.688606860839302 9.251857022280623 -0.5396264739247932 -0.33213484926459574 -1.569794748432587
Ni 8.592867691724278 2.340067639007259 2.7705813199579272 1.36419185615467 0.9365011865699355 0.01812010663947847
Ni 1.859682513655715 5.002703584640412 4.728046362540872 0.10615082222716557 -0.051475285061156506 -0.19219330374023028
Ni 8.393932255376175 6.861453473014325 11.240271373348898 -0.27369933083552217 -0.3067493193119556 1.3389137983141715
Ni 9.040583230471682 0.9931074164147041 5.069281025673342 0.9804793919230985 -0.30737615426267706 0.2877419249715174
Ni 3.5747065355815115 7.275483694652655 13.434502273240513 1.464583150190239 -0.9652366068314152 0.6438649096205943
Ni 7.106835495178939 9.215944485191642 11.247014900510289 -0.12375233735901267 0.38318153142876593 -0.23028188308183567
Ni 1.0860559915298171 0.7736699215201996 1.3804525509056909 -0.9796198721362807 1.0021537915727385 -0.20191361635178773
P 1.687599298292587 0.17790150437366184 4.154669262679913 -0.32370780154316514 -0.9834389887720548 -1.8168533367521291
Ni 8.29390126846757 1.9612740319764457 7.251686052313427 0.14431242089855145 -0.34707013041818935 0.7324833793909514
P 6.2751645916529215 4.68220367467911 5.651091458899354 0.3177790947635559 -0.11394255035744247 -0.7592385359976085
Ni 3.181203304056522 8.6617249860451 9.457052128713222 -1.2445951928352437 -0.3596237987134839 0.2058466328576068
P 2.5835197732124997 9.130881672360285 11.691854075145994 0.9639366570730687 0.3526334834385798 -0.028792241641343964
P 1.8465795901420705 8.411467457456803 7.6453841194170895 1.483762037111535 0.5565157934809641 -0.21134570829896504
P 9.080593778452387 6.67732000029721 1.0711035151058252 0.3836934380681779 0.5265519001290222 0.5647829185857628
Ni 2.8339065765923337 8.648114197278987 2.1565380642448964 0.09104481982366255 0.5013365772056592 0.26207588766398093
