# total energy = -340874.5572659227 ev
CRYSTAL
PRIMVEC
9.22416846887015 0.00000000000000 0.00000000000000

0.00000000000000 9.22416846887015 0.00000000000000

0.00000000000000 0.00000000000000 13.50050294742612

PRIMCOORD
 96 1
Ni 7.8884718794503765 3.368601713609654 5.989457288624892 -0.6384159706908812 1.2652534925155434 0.5474215444891799
Ni 8.905814631353405 5.273982825432894 9.51072636782373 0.3503495725004095 0.3048595584884105 0.776410676901521
Ni 2.1655764527457144 1.453396862489674 9.085689603918798 -0.6871113790140553 -2.0404359534369183 0.2803582309129365
Ni 4.61675160606012 6.000810395034684 6.411686215682944 0.35762193779210666 1.1117190387980918 -0.8900290111503252
Ni 7.677653511725507 7.21488620958641 8.123306291901061 -0.4040804863649622 0.8916230951103225 0.16958019432640473
Ni 4.310361630022085 0.16406936009124917 9.50439489866572 -1.2048191984888863 -1.178295698277061 0.16055485089934285
Ni 4.820236759943762 5.997462021922274 12.739034015273916 -0.4908608744853159 -0.13598487486946256 1.622147036782058
Ni 6.831133133565506 5.253689655054652 6.850006704434105 -0.7082846706575608 0.8293980277318297 -0.18156230638894538
Ni 3.74940305575736 4.067812123160327 5.35674298631954 0.00043400221362505906 -1.3829904769184116 -0.6641120899054047
Ni 5.3930299422063435 7.063139415998931 8.83486417321006 -1.5809674772199547 -0.6428552374091573 -0.8011837700811427
Ni 0.3824220285274596 8.07157162127224 13.05120570003608 0.1017984587957408 -0.5748410741527132 -0.21997510183918886
Ni 6.645533642119777 1.1197955898080871 13.297873798067785 -0.11424362653762905 -0.12171782342748716 0.7853948826780022
Ni 0.6677320126266788 6.935338563457777 7.580707502327633 1.8811964789148894 -0.6634831980721542 0.6522227946669864
Ni 6.214543599959337 1.8859365649335431 9.310001085111528 -1.3051999510014942 -0.7660547875884937 -0.7019232472159073
Ni 7.207017993980665 2.656080829124525 11.17355612795154 0.7420725657412833 -1.07817616984564 0.7180535771188665
Ni 6.995065053548284 6.328535872474934 10.440410925444272 -0.25420754065949763 0.20638039387388973 -0.8860630845240417
Ni 2.3571532052846704 3.1834726547499668 11.701574274608204 2.3751033393153804 0.018533025807180983 -0.2368541369827147
Ni 1.7652290978564198 5.6473125912140665 13.166553925299675 0.4984178608969674 -0.03346676429887785 -0.7206725027989525
Ni 5.86564865614724 6.74553285124274 2.189484574701789 0.22116629393381265 -0.6996938436647563 -0.21707361192167776
Ni -0.18108057136922798 4.1776350715800294 1.4553680672668694 0.024637596043022084 0.9449467462341276 -0.5895351858297783
Ni 2.658017904478812 0.7244661825032304 13.328155820356297 0.2510232293942451 -0.6619744747371116 0.8316192037528646
Ni 6.292930582629474 4.265947259398796 1.09772861185542 0.6066607897664713 0.8931901824871261 0.030138471256593257
Ni 6.700574254686582 0.9093655595709093 4.375553439862186 0.340527187093349 1.1761375142834776 0.06440433441799875
Ni 3.638915967216188 8.213623813919932 2.4910180261015773 -0.4189597174696398 -0.05565538458077512 -1.1981042483625561
P 3.475537497334634 5.711208405400466 8.109117676139329 -0.8563092503003769 -0.45684852209561316 0.6390649171287898
P 8.070861360309001 3.0005204996217634 3.700879318132478 -1.5831811970418217 0.42324214689507755 0.539955832239754
P 6.437869939971888 6.525637901857784 5.008511260212077 1.940940174632425 -0.6497121124299907 0.4171432330861912
P 8.077991642446447 0.1998591333037846 12.067140980302861 1.2566680648393778 0.10885125187746415 -1.5708653557889463
P 0.5781865534990163 -0.3434250119783266 8.285380464377395 0.01130128394543215 1.8049591564177043 1.0875882071881593
P 1.385931295150374 5.3966365920326576 3.1688514254924436 0.9133111216067175 1.1411949367700218 -0.29875653091446613
P 4.493507492685716 4.178658954267296 3.187238882688801 1.3614181500642748 1.3863614502731736 -0.8636803459534674
P 9.073740616233355 0.07269659321270956 3.416315569253077 -1.554249087388504 0.6282840244632019 1.427835401147244
Ni 5.074805358170451 3.627284290922114 7.784254458139245 1.260395393092294 1.3975722313873287 -0.4068547066759896
Ni 0.5200641462852258 2.3253206002958917 2.663743345775982 0.34164510274787613 -2.252452719660979 -0.5664417943454245
Ni 6.832304602946432 7.676786439900254 12.434894736314195 1.428658668379488 -1.9962942259226972 1.3411545147192323
Ni 8.109141658977048 7.364197822728502 3.499357067274513 -1.5737113098781734 0.12170008281567427 -0.4727870477027406
Ni 5.822055236507435 0.04314973714198957 11.257691612339732 -0.06583926709231243 1.6521731508305029 -0.6639462537515016
Ni 2.6291554816999394 3.367116622504701 3.075900403408578 -0.823938290168839 -0.4345776265125548 -0.32752460418609397
Ni 7.218723463621569 1.8337646687247544 1.9899067785327937 -0.03660710970007244 0.38867495044316935 0.4331779179515507
Ni 1.7490960274057175 2.941107631255284 0.5699484487422855 0.8883937895397472 0.5915465598328522 0.31810691041661987
Ni 4.237463027522428 1.4330114504278946 5.516643022314897 -0.28044487708947186 -0.8310898136119558 -2.875820537769486
Ni 8.851502728086546 6.506589994207298 5.559250378357686 -0.8409391956022098 -1.6497663411612236 0.06759507344115456
Ni 4.819913914051381 8.303227385308222 13.509413495757919 -1.167088516707332 0.5282704254820257 0.22877933039438023
Ni 7.715906137888492 5.097782761539634 3.1788282859838555 -0.7706326367671631 -0.20271682897937346 0.8402323993431724
Ni 1.3150712338568953 8.891037513650703 1.9472994224900047 0.5505055827311423 0.08154279387049827 -1.905901180750421
Ni 4.181970430706291 5.228968883866612 10.615013363378663 0.8268300098943373 -0.3552819768050204 -1.2206654214925234
Ni 1.0428383532327823 1.02074647002556 11.563477405350598 0.08287153998425083 -1.3575005601774233 -1.0309511754204053
Ni 9.186017193435154 8.068804370766117 10.43781893413687 -0.6015790043681898 0.3282108316198412 -0.3542244820747835
Ni 2.9380452073618404 7.81837742413026 7.379982219615432 1.2745421169063211 0.403960158737014 -1.9624880760065297
Ni 2.8198559382452895 3.3453106885164443 7.518227597983533 -1.4670686356162541 1.417513964616578 0.24223391323738927
Ni 7.638137174498058 0.9429313857933566 7.262015252956206 -0.7055089076846366 0.34349244036926 0.6487762308792827
Ni 3.5165942706771585 6.234421682761661 3.756555475898855 -0.20211544794994868 -0.41197300173916146 1.9839074222225703
Ni 5.0209915599946955 2.430596033717198 12.238043604310565 -1.5339242597882226 0.5328878696493791 -1.490794004257652
Ni 5.484810417326118 8.598520686816702 6.595130941401237 0.16323316906245436 0.16536255670063132 0.8845335352533926
Ni 4.712599939423898 1.0172781827245512 3.0787359127605196 -0.38675073683726297 1.3906245964249018 -0.5624432147089926
Ni 4.81237776850637 2.5119993194390084 1.0144685010440002 -1.5879410803243104 -0.44960315338710954 1.1244028049133474
P 2.188129544370624 2.1019204669365115 5.8870828561508395 -0.9001234192718498 0.18738174128419988 -0.5073033363120553
P 3.548537565686182 4.019818775215786 13.251040850502143 1.2280102918933689 0.8492101773617504 0.528781046569857
P 1.0013111473042164 6.343146955147268 10.880770877818447 1.9931957895030321 -0.8667864956826169 0.5591627441855079
P 6.349539303816415 8.981498932695892 8.677771974061583 0.4670966821861826 0.5827533870212545 -0.3695629122040668
P 4.904370399498282 7.2979406214435425 10.956791861305847 -0.5030599876546691 0.3378825503816503 0.6358708356715242
P 3.2896428325015856 1.0478470766488663 11.28088486124839 0.7646041711848961 0.865451064700645 -0.9064755867421228
P 7.483355629522196 6.206989006077619 0.5748068182142035 0.3729881358355318 -0.03341174269122633 0.791816727043946
P 7.952810453717757 3.066805373411784 13.461472725572992 -1.1337590493172667 -0.348626933382348 -0.579059483109435
Ni 3.454017512565344 5.643364647158662 1.5876324948744016 -0.023925657577662022 -0.7059855902107389 -1.7482789301168407
Ni 4.112549339675996 1.513446198472562 7.695151759092563 0.6192540530504497 -0.9994104244996463 0.795265861934811
Ni 2.4514979992067865 8.08444856029407 11.585861694694634 0.6377207443960695 0.43876389667976046 1.9669466259985158
Ni 2.0747460669663753 5.71902127599609 5.764957634397746 -0.38875594019274984 0.5367720351951336 0.5047674572640791
Ni 0.46356427028485925 2.181617281512879 7.413774037962547 1.3666482881149624 -0.24724833573284516 0.9216566653579353
Ni 0.4869927354865394 6.641041472131502 1.619290763081294 -0.7753174438373421 -0.5567060551148992 -0.20754407516468773
Ni 5.289377962415297 8.137007871573717 4.304460007109358 0.3433949955594473 0.028024767347700125 -1.5297457029305008
Ni 6.554278944596167 4.6401348728368665 11.85240234102765 -0.7991937362343075 -0.28924936275497926 1.3888664760832146
Ni 2.660213256547003 7.330179089839885 9.531408798106499 -0.13091800186951646 -1.5356399569277488 0.004145646737257376
Ni 1.187740813901782 8.946945198042759 6.165868585973453 -0.32036459610254503 0.019960502282326913 0.5366951592106111
Ni 1.877210501670899 0.6404100259628823 4.12954763711828 1.890869483228279 1.351729462021601 -0.04032158243718217
Ni 1.1721980902257196 7.563965636765584 4.024850559052754 1.3371639055026003 -1.2266820600002486 0.2508846469338518
Ni 8.031160539714477 8.683180103967386 1.4160943256671241 -0.5178618285541919 -0.6914305752146995 0.1243992269143922
Ni 7.904097620641624 3.4359750392654167 8.45240801525969 -0.4677278880122784 -0.6613417262491191 0.3005372769639727
Ni 9.030451594149223 1.69404619067056 5.282504112158085 1.8442998629988558 -2.3578139561073135 -2.4417651023089886
Ni 2.0934434562194184 4.679992504293404 9.561933416022717 -0.319716678105901 0.8851670550723337 0.19597488226984958
Ni 3.7802578989006412 2.9232680896591385 9.835183722416248 1.6984794900962101 -0.3553809642767299 -0.07016489105085981
Ni 0.6375191716008182 4.01040089932661 4.49387184733569 0.10817222353256854 -0.30975725290034395 1.1184586715147706
Ni 8.672950501263081 5.6913118742614355 12.210812936913472 0.02981708336143252 -0.1352955621119218 0.4773222165689328
Ni 8.496741213201465 1.054433132853441 9.79680195789631 0.33115423051888127 0.24335465710539378 -0.54987746222884
Ni 5.986715865790159 3.3149355021275584 4.4150421045845745 0.335226600816042 0.08734217416109473 -0.45154047961913846
Ni 0.2504048086318079 3.077016527779381 11.81469486321437 -2.8420655528062277 1.8927664431406759 0.6845600733471113
Ni 7.978001657491838 8.660728478194367 5.558589005486723 0.21312156925246523 -0.9960641337352328 0.02814920874070636
Ni 0.12619215758026092 1.205220612932131 0.30410145986947096 -0.8126262075901296 0.6940520719979467 -0.09296132012008507
P 2.588200174209306 7.646208321807586 0.36065114637894774 0.032807276338008014 -0.440680396976183 0.6861796112284053
P 5.869365995993799 8.84949185938543 1.829587965294178 -0.01166946591812829 1.4320643516269274 0.24904527973226784
P 8.904347988585158 5.063136785202962 7.36091955329558 0.24345801545247747 -0.35018090813302916 -1.3096129924675253
P 6.150398733227386 4.1831787967606315 9.623442015439167 -0.003935073388348062 0.27514789035659065 1.287023022982151
P 6.03625887401813 2.1959239666295396 6.345708506699104 0.16296397456146772 -0.37212681627650107 0.5586837476665604
P 3.3504485502894816 8.170242550152263 5.115003361439242 -1.6709979968464899 -0.01816587227574936 0.841737266023473
P 2.6814749646023883 1.3516727338845602 1.9769735720840063 0.8213535601607983 0.8039029687845187 0.49672787478905417
P 0.7813783788290094 2.935573130243036 9.661337666286864 -1.4265251669762529 0.5912339136884398 -0.11100403655440884
