# total energy = -340895.7507749661 ev
CRYSTAL
PRIMVEC
9.06198547820953 0.00000000000000 0.00000000000000

0.00000000000000 9.06198547820953 0.00000000000000

0.00000000000000 0.00000000000000 13.26313174689415

PRIMCOORD
 96 1
Ni 6.3922068320205385 1.8676752308724616 11.342511295298296 0.4539303200075537 0.6865976726024304 0.5196626292083566
Ni 4.672477577951686 0.23989431982918158 6.074342281944149 -0.377935195428162 -0.2703792653233537 0.28972938771519136
Ni 2.891706788923315 1.5161064377772262 4.905316235797572 -0.08336853422532739 0.17740097592240414 0.22915831100035372
Ni 3.547785483925427 4.422883308742952 5.002481563929467 -1.0386166623854631 0.823338451801311 0.015385995537767051
Ni 5.229862187852236 4.57246950493903 2.4889858057470224 -0.004330766164869961 -0.3492506830092759 0.2336142898891783
Ni 7.282084755341475 6.2657196371029364 2.794170825580634 0.3791443852449148 0.18861535658098483 -0.979868754922293
Ni 5.029130144965016 4.783505025446346 11.34160872153316 -0.5057521897748516 0.019281988158063566 0.8639279431878992
Ni 5.405120989235416 8.057826970109094 12.368029925185086 0.16847667684958081 -0.11821135293612545 0.08399665472762953
Ni 2.2159454612115708 6.365863639899499 0.5157728782525963 -1.5475359370343864 0.44292265604314046 -0.21782206005192808
Ni 2.8159485893595404 1.6168757175797577 0.3853074716593366 -0.25810533305200706 0.17312574558581798 0.2705132197980567
Ni 0.45321346070612356 8.914501778214518 4.72910230113281 1.2908434251695058 0.814872580422145 -0.30673286425172336
Ni 8.83583468127515 2.4649597633423053 1.4999144819183086 -0.5745978477936555 -0.10215275681136601 0.26515632636151754
Ni 6.753970358908746 0.8064115988111157 4.849332194997927 -0.09922966962730008 -0.6199343669469258 -0.20302304736588261
Ni 0.6577044152176316 7.350276196934465 2.3029704274640577 1.201291644951602 0.05385406970597821 0.7093097694879655
Ni 7.478865772509817 4.025098389119576 3.5632461375469284 0.861990102735238 -0.9543204741395437 0.3278567907145321
Ni 7.723267523973332 4.063702447748963 12.545277832406093 0.38561970855661326 -1.0808740283927774 -0.1316515376014313
Ni 7.8433660190473375 8.898090522304232 7.027099510903016 -1.1334646580052996 0.3358074130201765 -0.45142992218320316
Ni 6.75764952505981 0.7343860311134087 0.38846285504308137 0.7050461091156052 -0.4559494073201116 -0.2297272961299463
Ni 1.8322609911720755 6.5149423649023275 9.18169442344632 -0.6069857772060578 -0.16447321211714255 0.41667143565609527
Ni 0.30447456016306124 5.001889816270196 1.491717915948759 -1.1581040538205345 -1.2258320532951277 -0.055880870328019895
Ni 6.266544277791969 2.046404772738049 6.952002836287587 0.23665101983297307 -0.38592052762648377 0.01847543309636818
Ni 3.673801455592154 4.28864811614269 0.5076288717994907 -0.6968784857031483 0.18268433580853055 -0.19564552395488885
Ni 5.977684425005503 5.5892786604716616 4.767710890754994 0.18294144612465912 0.640035251461859 -0.09215553638933806
Ni 5.377400375304126 2.8723232017382774 9.165275011749001 -0.15910963381238405 -0.1454586186878527 0.27045974085230196
P 0.4091015272328535 5.525908195214549 12.614312944857861 0.31958169518993346 -1.2620275293790781 -0.9113570832041402
P 3.9805134199983123 6.260962094666216 12.656476551428474 0.28069941630243916 -0.6136606181230722 -1.080561639358681
P 2.227952592123293 8.696660706526295 1.398862468165252 0.40464715750170954 -0.4055634986683918 0.2886297268931094
P 6.358586865467716 7.71143257078789 5.777274082606862 0.0341992715895282 0.13047011569882047 0.21633853352786614
P 4.535695967399581 1.113672719544256 12.340880216346202 0.14755612464682974 -1.187109182803633 0.523306396608531
P 3.9174148143090113 6.321432724533329 8.25972166574799 -0.13372976028669872 -1.8106055560702041 -0.157975777318257
P 4.733292563271362 1.0418927316561397 3.6304108561721464 -0.4407580442916538 -0.27100455761217845 1.1800913567249032
P 0.2617318927130072 5.567538957032249 3.6760624209977952 -0.5270846327040406 0.14304512415035367 -0.026174344402522663
Ni 1.675860181809495 1.3469644766698292 2.795310823368328 -1.038797153827385 -0.45272318707333 -0.5679201786631639
Ni 1.8753779186271515 6.512033467526733 4.841215374501601 0.430753110560142 0.6621446817663887 -0.39227269509675666
Ni 5.878618798494596 5.590592648382756 9.245357590838113 0.3638365512432508 0.044087734347833744 0.4357824454539334
Ni 8.532992184717523 2.4208097695295416 10.08861431687487 0.2695930219766325 0.0941856794454894 0.5544622533860452
Ni 2.2838922291935297 5.522908677983016 6.956061699635028 0.023054310716302234 -0.983979434656557 0.635166353405332
Ni 0.5066782695107059 0.14279967518491674 8.975042185370704 -0.11487200415024733 -0.33208034187757646 0.9972422132037343
Ni 1.4189347662554144 1.228179969506917 11.405391507134787 -0.41372263744041654 -0.46369177026969177 -0.010212678866943702
Ni 4.378470517347969 6.810680264754451 1.5267850816009045 -0.9936976903855854 0.7349850627668826 0.8899943012576478
Ni 5.631525637309737 7.667717552283627 8.140088050534944 0.16054970869302027 1.7817217831563186 -0.37932976178284344
Ni 5.242965819020803 3.0275006430457005 4.671474416146458 1.0450575329148002 -1.1581287364108828 -0.09191976622944814
Ni 0.5237510503693363 7.492078147505509 7.0776182681910695 1.5097188661866128 -1.108026420437853 -0.20194061293498125
Ni 5.111113928631699 4.4696250304355285 7.158815471508214 -0.9863042261349917 0.24946334110629298 0.0007211944367406934
Ni 8.258368711298843 7.2231727869964875 9.247201704906441 -0.5322967730325995 -0.16806452901282667 0.113021838315386
Ni 4.777424433112938 0.26674226454779315 10.204096636487417 -0.31302461079770605 -0.6199407947048291 1.2275032703499633
Ni 8.337715457157744 7.059205219663123 4.980292386004605 -1.2423452204588024 -0.854479910401122 -0.029105144896072452
Ni 7.168646819678877 5.939388473886302 7.08011212662647 0.393079250158452 0.8576318257665423 -0.3263367545255799
Ni 2.3838096823502486 5.275779268855782 2.656804716957731 0.6569775357431524 -0.026371033794361034 0.9431803983623241
Ni 2.321816638903386 5.101743835527759 11.321104166730175 0.27288866200876877 0.3823322960545931 1.3600976314806383
Ni 0.9194381203277575 3.393414559335847 4.016977943829015 0.20429754320293203 -0.1853063468124099 -1.5422320083229697
Ni 3.687294752141252 2.7316630613520454 2.690890469570073 0.43956479531450104 0.28166795086329555 -0.050552516136571
Ni 1.1820000909211523 3.4932776405790036 8.2112581667926 -0.11772592865927467 -0.28523047140357327 -0.8925450927039595
Ni 3.56708751324012 2.5568029873349905 7.242677804788481 -0.027493063213946196 0.26686225330903074 -0.8566499214692473
Ni 4.283301544642376 6.778256480300004 6.013079634536142 -0.593215462894843 0.4420626220356903 0.1182018398544287
Ni 0.8931755798785024 7.277798436155629 11.607030654779942 -0.29052154459918356 1.0131509140141906 -0.6388162914530934
P 0.1192611676051437 5.537072561466051 8.120856704707881 0.0015943410703133831 0.1372179759456153 -0.6418419656532947
P 8.58323183284929 1.706951854381661 7.8979563264626655 -0.9617987847944597 0.6078594380602628 0.44801112630964135
P 1.725945776186167 3.18790685004072 10.345667506425821 0.06733102114649049 -0.23897889663520133 0.2608425294775121
P 4.177584420705656 6.169635403852375 3.610211690283671 -0.7677920819945745 0.26554764826266525 1.1111824495683313
P 6.783675547685068 3.9483343091548964 10.449981834992629 1.5085107048111246 -0.08020453467504897 -0.23321268357538547
P 6.3102411723250444 7.598076192995636 10.369687205440622 0.1751887987624338 0.6924196786008462 -0.8977572330325185
P 2.4644069822210866 8.333483509885461 5.955530588824455 -0.13435582390647186 0.19947852454773388 -1.0755119927499155
P 7.010922960419608 3.8492324347016154 1.3397484175415237 -0.20726999556769468 -0.13532281580543146 1.0205371791759328
Ni 5.357717742594495 2.6708118280899953 0.31263215959455753 -0.04219823063460475 0.8865865611276795 0.4995681724513268
Ni 1.3320122004401371 0.8888829173027417 6.874692318591603 0.5958685842469738 1.2759315410546799 -0.3362658407138338
Ni 7.091574632204009 0.6055245959702433 9.357696307648188 -0.6518304443245742 -0.5290906073904759 -0.8977939998077248
Ni 2.8103845302049764 1.5574925259838954 9.238805775253828 -0.29405758277690003 -0.19590186294006906 0.444779249635905
Ni 6.417960995077984 1.8615402666254908 2.5739890430135426 0.778308665255182 0.6313966019502545 -0.4519760244946603
Ni 3.8117248763290723 7.020990826414267 10.480513476855101 0.6692962052095053 -0.02568866301535576 0.1862910793231824
Ni 8.239229797724837 6.8977659463104155 0.4535578161586862 -0.3704394012717491 1.4211777866214106 0.08255863672952234
Ni 7.677794480263881 3.746949803304927 8.039964890305248 0.3449255732713608 0.06852067057921749 0.7844314903234684
Ni 2.889830957905408 8.44026088613665 12.523446602912184 0.4517273988189639 0.12082333663767578 -0.2677940210946807
Ni 0.1684623121878654 4.810564114429292 10.243368563455064 -0.9658932665788075 0.1045107155205813 0.15242502270335687
Ni 8.50427475237092 2.307562135564412 5.74861283457094 0.19601627703074628 0.43856077953001893 0.0026112123706019544
Ni 3.628727139248827 2.807946856080257 11.430127103011497 -0.09303973876650427 0.1778267506059131 -0.053294854768398535
Ni 1.2045825590207844 3.236207233255423 12.762077681949595 -0.7563990096662844 0.9033565814971668 -0.14084400273397676
Ni 3.0432775599644244 8.395014392067042 8.121652347043012 0.7653639321690561 0.2533313087021315 -0.2805806313363877
Ni 5.628861413545174 8.051003294956997 3.5597717722702837 -0.42845043056889437 -0.7797852498007087 0.3478036661501042
Ni 3.081682254910749 8.462589618639658 3.5025281154731065 0.045764093608992154 -0.5916074949777748 0.08398842719751341
Ni 3.423772211074919 4.307777967731103 9.314710778984223 0.2506301077208845 0.40046448687892966 -0.8645519499251433
Ni 7.463424149058063 6.191773834657914 11.45820566537374 -0.20994188597290295 -0.32606396048016745 -0.10955264881986293
Ni 0.31497558906910206 0.18124424286785382 0.3871706158974122 0.9463883637766605 -1.330515289837831 0.7857352967365565
Ni 4.650955362166523 0.23939228582728767 1.5113072102067746 -0.8466077067418968 0.3817183166196781 -0.3073537856651739
Ni 6.037946629203959 5.649042455462461 0.4161290970608088 0.5006362087045249 -0.5249516455214378 -1.185279585794062
Ni 7.970279127287847 8.82950941533071 11.579682488456555 -0.13159291644935403 -0.5635313055668488 -0.5067022123929467
Ni 0.12321491191969808 4.785997071484629 5.842661745857145 -0.44889070070111725 0.002632809637156756 0.6839859460111962
Ni 7.82813282126424 8.655265556334031 2.5055783013691837 -0.06990006742524735 0.9497886477074611 0.32915854024509117
P 8.48459211966129 1.419868150771571 3.6383419059637987 0.40372078903269826 1.1134357643788824 -0.7057608757944426
P 1.8853279788090922 3.3979364901471296 1.6925215485221692 -0.058205661806454596 -1.0360486445479704 -0.6498391249261583
P 4.8840930655370025 0.9312821354987925 8.244256481133693 -0.25935566051934045 0.3005789288351856 -1.4559907805355377
P 8.423586832644146 1.6668072582013358 12.566525470027765 0.08377399719386217 1.6674012806341671 -1.2608972724293768
P 6.283961414103161 7.75779368908553 1.1696395425712736 1.0913119358966497 0.0414235572521093 0.8857653507779648
P 1.8598456753194592 3.250887649917302 5.9457952977010855 0.2956735211137682 -0.022467070754264535 0.8126454908638391
P 6.828912979769082 3.9918046540481287 5.967176146510986 0.8659675993257474 -0.49426064419548427 -0.6377989059321726
P 2.123540394112073 8.532176606014087 10.179931039504556 0.847633834013566 0.27083306503132065 1.0604615261746961
