# total energy = -381175.6591419314 ev
CRYSTAL
PRIMVEC
9.14791368560543 0.00000000000000 0.00000000000000

0.00000000000000 9.14791368560543 0.00000000000000

0.00000000000000 0.00000000000000 13.38889636416854

PRIMCOORD
 96 1
Ni 8.375326363590368 2.174230314693806 8.862149955613207 1.1912926247573612 0.7732358787179652 0.2322361785947291
Ni 6.961918857533436 2.0966560091563977 6.833585524975342 -0.36203652192003455 -0.5859968336592166 0.6500530407091772
Ni 5.788735557067582 4.25673450183766 11.46769615346902 -2.770857050982202 -0.5776212080010117 -0.9542523399057695
Ni 4.877246614916425 1.089086532682199 11.516150821107056 -0.7566849163378193 -1.2543723268266656 -0.29101211108235686
Ni 4.615232079633118 7.8974119244169225 13.136676234200833 -0.19662999935534525 -0.20913815912468497 -1.4139097922050876
Ni 4.469030127852593 1.0362573328616176 4.181365758218302 -0.20413839191724845 -0.2675443669777199 -1.139725808423663
Ni 4.751151776764582 5.817999731998498 4.421013645265883 -1.079913721362037 -1.509937152845006 -0.057185448072056354
Ni 1.2374931315894364 5.499441944058738 1.279323795142609 0.46993389452466156 0.39721461248306433 1.2971747667041724
Ni 2.846830646608656 7.501069428931811 7.190077880155965 -1.146227871208239 -1.3006881791740694 0.3901206817507604
Ni 7.792448766193312 7.799977498912331 5.271034098192032 -0.034558197590843706 -1.483114376225207 1.8246877451948833
Ni 0.0910446080024828 5.424365018876484 10.984491475982805 -0.5009516830624147 0.6944253961769654 0.8756241485789049
Ni 4.590066169900405 2.6667905632027917 13.169894137298408 -0.5088884214109881 1.2552416168054963 1.0260215993292718
Ni 6.828990528080124 2.1929652413141607 12.235710136820865 1.2176518314771803 -0.8046254487728401 0.2004491159911193
Ni 5.670059676674092 8.203007119084688 10.346256195504493 0.7213605300049124 -0.2455202972981449 1.2572869293702993
Ni 6.672936273579813 7.804441680646087 1.2689098105407477 0.808654110316259 -0.5094633200778517 -0.04985934672428833
Ni 3.4961220952087286 2.170415634810657 9.55679309962982 1.5712798176185456 -0.5083978549278148 0.0361921336498409
Ni 2.0695781855254154 9.130504909666325 3.3244496081796413 1.2289960528454058 -0.6803660898704218 -0.7501388876891856
Ni 6.503443734311287 0.7464825396085206 3.047259599375579 0.4898121215058274 -2.1309655241870593 0.6132821517377309
Ni 4.357608542776457 8.078165545067115 2.1349930845863705 0.1899487306804277 0.6541706624219766 0.7558271963232144
Ni 2.395719593664528 1.2033531188222657 5.445491210056684 -0.5047587155133306 -0.2459915805076086 -0.5703362443038241
Ni 0.28884262087877355 5.598193669091322 8.728502600167534 -0.6560789351882831 -0.7250683178738029 -1.1184910674146027
Ni 6.433169463658177 4.088586705837295 0.4618488736799547 -0.3322922007780664 0.5734382802679157 0.7067443227536344
Ni 3.520931236319277 8.905484536127506 9.628115721157291 -0.6485836552525024 0.2642610682407578 0.8950061526499425
Ni 4.262442799792299 6.214589221145108 11.265430299693618 1.786353625501375 0.5178821402691661 1.4905371510518393
P 5.255759827206677 3.1058446663004218 8.022090665576172 -0.4580461419481402 0.024165798612926122 0.39252414898593047
Ni 5.698692645581177 3.31445368321965 4.991741898891212 4.091736360392166 0.2003421580996098 -2.1022607000531988
P 0.560835700086633 3.6493130528183326 7.75014881468329 0.43956145288039133 0.490737204423258 0.18994538824631801
Ni 3.855872937138459 0.28320842102258376 7.407446938936351 2.600164597428225 0.3282748520885573 -0.38002370252607454
P 6.851668205371071 8.769647170216544 12.397769081669615 0.36600373409789866 -0.17631519905739312 -0.8719999215627562
P 1.8278903137921227 4.509601123732121 3.406161514942824 0.3824821913688961 0.02101465457845413 -0.2555810239682566
P 6.693116570515606 5.461578730542307 5.449615089412375 0.7451486335634457 -0.25829662312720675 0.4067112391195899
Ni 7.212013661671078 2.7673444271729792 2.3476088875699133 0.14195857595439423 1.597237675134888 0.5502957807131813
Ni 8.757571924543267 7.524716785041976 12.477781306125152 0.17737963576616547 0.5100832130500376 -0.0033393487858781198
Ni 1.0339520586876285 0.5041488251899754 12.97649078201412 -0.06311724017545904 0.025136647166627675 -0.8554289045779525
Ni 9.029338135499083 8.683171944951788 3.6683434570411473 -2.0375439766011034 2.5895104601484884 0.030771733965217974
Ni 2.5935157769581414 2.40814246004658 11.808095499415986 -0.368691565342707 -1.3036943129902452 0.6678728424994175
Ni 8.322735009517896 0.44530670189890575 10.7266081383859 -1.417238085247372 -0.22131567502748337 0.7265986384754003
Ni 2.421516709421072 3.269811865882085 1.076998479930179 -0.7314832202612113 0.32427910066560284 -0.7268030411767225
Ni 6.494680033284773 5.123087639328253 3.01161749922996 1.298793276144202 0.563363669640733 0.25909546487941826
Ni 3.77307517305602 7.9934650149997974 4.7336710290698365 -0.22402818886263998 0.7159535000567282 0.5929344413193143
Ni 2.8584210528723233 6.527685704791726 3.0581575085957104 2.277889928787161 -1.1293781466407515 -1.5445992230035657
Ni 2.5128220329551367 4.943331141237444 7.519765934315933 -0.8807331876706961 0.4007786756852388 0.6802791865835703
Ni 0.4687207862176553 6.179561860779219 6.0823076491683885 -0.7985157363306763 -0.822008677246294 0.9929775243901092
Ni 1.3036691370443432 3.840906950834308 5.446000748832443 0.4168542410908627 -0.2522442462855398 0.07373821022441494
Ni 7.475144242387824 4.352659521633091 7.593016935985772 -0.1829465883309817 0.5703167039197984 -0.6820429633522124
Ni 7.997627315591722 0.9385484699553608 1.0912591621120498 1.1076312418819634 -0.4585215389226619 -0.6213389606039363
Ni 9.10938237765148 3.0251051827304734 0.547637090649207 -1.3301054559939223 1.0242951035564682 0.49293241230236406
Ni 1.248498071396217 4.456524930250041 12.676807883769564 0.7580851391194556 -1.1112271867633379 -0.7883233691787069
Ni 8.138486885953162 5.79001626494202 0.8627927695996552 -0.47095487959000826 0.4006488349755939 -1.1263604428603504
Ni 0.5332455933058756 1.8429660750569399 3.846857668493752 -1.0328206245289762 0.5579239866824004 0.280755209241039
Ni 7.301343035913152 6.981028848602733 7.725862019427246 0.9519458032597798 -0.5101528899457086 -1.1751229569760342
Ni 6.660998246607369 6.4020208185691585 11.975577327321645 0.18996749973350507 0.5061499394339025 0.8315474699746647
Ni 2.7934342761579662 2.2688563307880214 3.0620536049080194 0.28108353911473527 0.4984481999142706 0.39807336093893375
Ni 0.906161197393493 6.7531085865196525 3.7628825679581683 -1.732033929012888 -0.914030259160929 0.9181144565326317
Ni 3.678586375662637 3.7913984435738777 4.671252071643729 -3.3591719912516336 -0.14248925164688364 -0.7990330422867271
Ni 0.30465936312808706 1.9273189844154826 6.555899699265604 -1.1270266156894397 -0.25159735673016026 -1.2289708560344255
P 3.29512414222902 4.349851112222716 11.622445000728742 0.32131821826506596 0.43744132121359497 0.4078929181325168
Ni 5.994938672765543 0.015770087891030408 5.844949484842036 -0.39672610288242 0.9841118464693633 -0.4763385124994248
P 2.982860118700786 8.993277060920255 11.913051339308886 -0.05665451526925082 0.10804392548482038 0.6357631064490664
Ni 8.78131075978732 4.800221184182348 2.8801253921786976 1.0591065548086984 -0.7454160282922195 -0.0562307974682709
P 7.733142843693427 4.2441195292744425 12.126309325812326 2.369063303768888 0.353793565184952 0.9901318274111981
P 4.695322061352459 7.186518427056366 8.519354771149704 0.32867414440950493 0.36701392052996795 0.5765757974556329
P 7.915579680407168 6.934603188154343 2.8954691873058076 1.0224264257788456 -0.3349589489769522 -0.3367391808058265
Ni 6.116486997963131 2.14449044826667 9.779543875856865 -0.47087646094358904 -0.6523109835054185 -0.5251781597099471
Ni 0.14457911194534437 2.585401577782235 11.594020604246925 -0.8467159501849868 0.4362673555101519 -0.3093566750278156
Ni 3.4104061467552484 5.268923674573225 0.4119973196674423 0.557161397484763 0.4191579495233749 -1.3161320245329655
Ni 2.8460530739706043 6.570305833270358 9.636510761274234 -2.3301082626619287 0.5979689184194282 -1.5190938796436098
Ni 2.053349787173604 6.499629054428139 12.131022330790259 0.05647736626143821 0.6893006733558903 -0.004055915236928499
Ni 1.6944862928425921 0.4908468443312554 7.656908707467485 -0.629276213173142 -1.1250833759201397 1.7604353629737164
Ni 4.768413889329333 4.720487971085172 6.579384222517447 -0.1709958437270087 -0.7364891581162347 1.7046138851287225
Ni 6.267564787579911 5.863172128312616 9.591617376318476 -1.459782900588118 -0.8109549905352937 -0.8524199425482997
Ni 8.130921561580587 3.7401884244231214 4.806559773369479 -0.5677116621967836 -0.37448477498571636 1.2429260326629368
Ni 6.272138744274334 9.056754431925453 8.237692347489833 -0.644884094913728 0.6300791686904116 -0.024080180877655302
Ni 7.968299105267085 7.225131769470681 9.910232796112586 1.8035311657219262 1.5458564924494345 1.0355210541792748
Ni 7.62632265905188 3.892876246796338 9.971045379947611 0.21189078216915766 1.3986798626292105 0.4888523286957194
Ni 5.287493938752581 6.964818746077699 6.455134518496134 -0.22228575225023653 0.9651234782923186 -0.1390578573678315
Ni 2.7059710762472164 5.927911911365474 5.467262329130797 -0.3263205565756638 -0.0311370877244367 -0.8786598500814351
Ni 0.843899584077673 8.434925019318694 5.787510651464816 0.880083469901839 0.5516240126063017 0.0638587463271739
Ni 4.374083934789767 2.089017501476712 6.181707046468904 2.3885162702871763 -0.2955513937136071 0.6915280200245123
Ni 1.9328717678425116 3.8968189974669305 9.79006763541939 -2.273095592722311 -0.13294943047724847 0.3442853685842006
Ni 1.3118748153541375 1.213095646581386 10.182630213092233 0.526295561143842 0.8075973869169705 -1.5166695864728332
Ni 5.780154814308845 0.6822760799062321 0.6091321088230417 -1.3752571128298958 0.707483514912504 -0.46436359952573575
Ni 4.014342240773426 4.675525976778998 9.485965380216685 2.465928844039385 -1.4767629800858824 -1.0804587952322293
Ni 6.0342655524241895 7.436860224855506 3.885993356762571 0.5072863670311908 2.0508800315883775 -1.17222300972042
Ni 3.0618797945536316 0.9356943209780412 0.9300839056966623 0.2567927848881707 -0.7126174937049599 -0.17985046590416123
Ni 2.3926916343328206 7.548702613947528 0.8267472464735881 0.01679367451857108 1.0741241112634534 0.10529515909508963
Ni 0.18337083867074286 8.13479112894407 1.4750543795930209 0.07297022171013885 -0.983943439212299 -0.7559552372606465
Ni 1.2815128908165598 8.181912030810011 10.701436739905155 -0.5004793714116865 -0.5709563943863264 0.9518378169270059
P 5.281373984695444 6.115160550521748 0.9782769430117771 0.6189118392196825 -0.314760105431574 0.47185502280677444
Ni 8.59989848937313 0.1604726966671242 8.206924255597793 -0.07797513112389796 -2.7419676216413618 -0.8244486541463544
P 5.015892390237764 1.988728926994801 2.1029003748356234 -1.4145034599250284 1.208137207118526 0.2802461308151044
Ni 2.7517380869316095 2.579610948607096 7.4221613576223096 -2.3087830188215914 1.2288829243063095 1.0328617621795568
P 0.9098908016821252 7.564519356196842 8.72546274854842 0.3365802866304591 1.6156323755919915 -1.6206575967207248
P 7.507372341256725 1.4269647136992 4.867733699783365 0.7765456598174884 0.3424642562150618 -0.552200711045378
P 0.9272873885736923 1.5042828776617205 1.6322265091094497 1.132440073395527 -1.059467537692543 0.8263512704857059
Ni 4.609240196363425 4.269029297432268 2.2684538225989126 -1.6212744043691174 -1.308301215634637 -0.23693306984976614
