# total energy = -381165.27514845814 ev
CRYSTAL
PRIMVEC
9.23584069955756 0.00000000000000 0.00000000000000

0.00000000000000 9.23584069955756 0.00000000000000

0.00000000000000 0.00000000000000 13.51758643689275

PRIMCOORD
 96 1
Ni 2.572634111877863 0.7072076958744167 5.580411150592586 0.014560928533310405 -1.786575254593878 -0.2847807854606644
Ni 4.853886694489296 9.10492237754217 6.022612106674919 0.3267134211387083 0.5311055809379757 -0.3604846040518824
Ni 4.486180180029745 1.5642558194807012 11.885526373142582 -0.047795779327040266 -0.22127170916342537 1.5206398839744908
Ni 0.41585664488135804 6.705986716357317 12.050522814996173 -0.3494270606861401 -0.07022505486483391 1.0745953944729172
Ni 2.4114225174265163 6.991743618810749 13.462041847190726 -2.0726035393083984 -1.0300104087736905 0.6742543205457291
Ni 3.5195663579911622 8.826230893006542 7.734248849584859 -1.2626340526148254 0.04424097209624638 1.0467212937704682
Ni 7.886881271874312 2.266059625128049 6.221468986659562 -0.4817242022913704 -1.7200800990851217 -0.8808440022169476
Ni 8.203384287070714 7.224569919843347 4.026307366896527 1.5410076489975655 1.1671209126071642 0.09884657525626848
Ni 1.5440016214496612 1.1975098324243554 3.464733173444749 -0.4087848338191669 -1.405025088120948 -0.25676990207003525
Ni 5.33943329680933 0.03454389032179467 10.324827275805863 1.3699148746813763 0.008262240008792221 -0.16262227495133283
Ni 8.754957912520663 5.081236142155543 3.1663730431604202 -1.8429070964163874 0.6837527469544675 -1.9406069596627225
Ni 5.855513587542777 4.087459713455178 2.93364094770006 0.09314284000327186 0.20145518865813045 0.34091002435406453
Ni 3.0601571840467985 1.2552153633399679 0.7318369115102462 -0.8745509701193842 1.6154637112246113 -1.5874199177135178
Ni 5.588708629621809 6.62997574973832 11.602130151499335 -0.787221908584412 0.19849867713296782 0.3739535850725947
Ni 7.916389782001613 7.17483491920625 10.712754739270958 -0.7515401389120864 0.20842570643869265 -1.1157266172955882
Ni 2.4968909846309137 3.1849241522188545 2.9439546106919714 0.3702493967481301 0.6277523203294478 -0.13771214197321444
Ni 1.2219016869615085 4.3139871713244515 12.483152669655993 -0.08344823842332724 0.7796767492473025 -0.7363186939766415
Ni 0.1462033537762712 5.607919177685906 5.324739074708378 0.6457315305156879 0.47881962705006564 1.1536974401124067
Ni 5.8727107223963095 1.2422205358754566 8.054453589619765 -0.40320785395202174 -1.1985657613800067 0.03980813313587338
Ni 8.147304264068218 0.8395083390733398 1.4746607787786892 0.5701105014462633 -1.2185172648012692 -0.2217702460663987
Ni 7.4412242643085245 6.231689367663279 12.979315870533565 0.7042632082029935 -1.3155782089120245 0.4148544370520145
Ni 8.088471960621924 4.367231791319411 6.749046975126181 -0.06477200217006264 1.150901108314192 0.7807303873227973
Ni 2.657382183529857 6.378197504173258 8.350556480506564 -0.7566856876687679 -1.0672834341925361 0.2788744472785584
Ni 7.745443611752402 4.17740756326106 0.9784864948926193 0.07840476246214884 0.898798015592207 2.538840958818079
P 1.4012801795100076 8.85853786277972 11.92102432577929 1.669098722941248 -0.6417270373419851 -1.0612300289096046
Ni 8.336426568254996 7.46267912159357 6.626360841799721 -0.6941834553694883 0.5162176080825496 -0.3824451674833736
P 5.870595714941175 5.63940415766211 9.798411156063505 0.5408449197129266 -1.2000940250990753 -1.8272758176370336
Ni 4.569164206162392 4.100362182515535 8.282373812223685 0.167729257160595 1.559212087820734 -1.270013118687716
P 3.6650677878958606 6.623870859223721 6.403104718605593 3.5161077573411506 -0.9125760432129058 -0.18943579559975116
P 0.7906950753097043 5.427663280297941 7.507004690499349 -0.21909321345486782 -0.10098213354203253 -0.023528936359875605
P 1.1568536629156287 0.53872380067996 1.4021658966058475 0.005010051620081694 0.2508856753751163 0.8585515093673343
Ni 9.073936132948399 2.6701461149839822 2.2633849257437406 -1.3277328419966876 -0.21421583075790848 2.305901583508738
Ni 7.852256106156862 4.6584008962562855 11.00234174474467 0.593787533348229 1.0960659056418671 -1.5134755050155675
Ni 6.058286463863563 7.704815149764923 4.860126428273961 0.22158152709436033 -1.4331007633112416 -0.36372419403510264
Ni 3.078102421973981 7.447837126045973 4.39827068020355 -0.14473973824395717 0.930753742563197 0.9850898941119163
Ni 1.683056434744389 5.300790540511167 3.633527392877164 2.17665531291469 0.5875484944170526 -0.28929872793567596
Ni 6.791381296838391 3.2432854278039622 8.525136030375204 -0.025466776812536788 1.9733232189488208 -1.3770363162175059
Ni 6.081246763136324 6.087185408523446 7.221324445521365 -0.9120721069932937 -0.40872878377025096 -0.32852013533014385
Ni 3.3712295250789266 3.5144866457626756 12.939317292862416 1.2966466621148445 -0.7363845142175706 -1.7739822484202157
Ni 6.723931954284499 7.929310722742802 8.60068612855747 0.43750097080693684 0.8819737449460165 0.18500064264653301
Ni 4.255080981154833 4.862420611033154 4.543801664797577 1.5871337539316666 1.9731671529869308 -3.1592422380990945
Ni 7.3252128728502965 8.533473223518214 12.547861738358627 -2.845354507970145 1.0491160192548898 -0.6001265881923794
Ni 8.229272347755167 5.9855449847516295 8.641143727497266 -1.3153475809584572 -2.0178503548269187 0.21927884710311268
Ni 3.6282260204787073 8.483147129094531 1.248180423695534 -0.2567444481487385 -0.5712425581681775 0.8938743530383444
Ni 3.4169654068161406 5.411463616209275 10.60126152094396 2.478836039019357 -0.7563439880586329 1.642132478765049
Ni 0.5377835921256691 0.59381835951013 6.44948341483572 -1.5667662460189082 -0.7019453587030943 0.6576053991351385
Ni 5.698088687661758 2.0053041426791887 4.813220365556113 0.5496321789872534 -1.0436061451802543 -0.30899492081302266
Ni 8.489639924906578 0.7106628237738295 4.133921532249044 -0.7520700432736274 -0.09237690837152478 0.33173787093649315
Ni 6.342731876978004 1.8351430188652897 2.5207868745377584 0.8780888080693134 0.6672848312064315 -0.31673419843880934
Ni 4.487149943273366 7.319505123473561 9.284215900358847 0.3262655349680123 -0.18529863350292605 0.8877813527667292
Ni 3.6836687704925386 6.512449680451962 2.5332903552921686 0.07272133892412637 -2.0515364342254543 -1.4074195564950536
Ni 2.1068799155680975 7.155245701685122 10.607479088711628 0.5485818833458682 3.3839998489285916 -0.1953609028349345
Ni 4.257971799204864 0.8919217334309101 3.2133603812739246 -1.161856064663799 0.7290129043438476 -0.02808955914736453
Ni 6.9566936044341885 2.2382689813180177 10.44552493269088 1.062176451983274 -1.1511384211359788 1.9715604706214434
Ni 1.7927043321563847 7.337986040144838 6.413338029785891 -3.31402830483546 1.5633001418471786 -0.0631375518904332
Ni 6.672802341744673 8.773614310159834 2.733093908919393 2.249274579043313 0.6665512954745165 -0.09707482806782636
P 5.352391180912179 0.30909125326301834 0.28030221510407866 -0.6668947948568643 0.1017434371880893 -0.9990350434380988
Ni 0.9862769262830353 5.218499202409677 10.303306844053866 -1.6281019688139122 1.5433964609447162 -0.9788734808885593
P 4.002268321463243 5.6789889696826465 13.084158360177412 0.9418884190237778 0.18047652952393434 -1.5585448865503804
Ni 8.070508251013909 7.1577947936397806 1.6464825066992828 -0.19005671701320173 0.9159598720834741 -0.3701318973336593
P 7.0845915225070755 9.268904724118146 6.014460553924261 0.5757867258954342 0.8980994468632855 0.665948371783195
P 7.6549970265640885 3.315297275523077 3.825584847147967 -1.244761800320095 -0.9293892581155025 1.0965063356133955
P 4.848188180952975 8.159181554842462 2.9768425148272795 -1.865214501664336 -1.9270559604511652 1.4081605484261364
Ni 5.668700243459856 4.7493185093057875 0.6418262579895397 -1.8344777347021117 0.8801207508976777 0.4861341584336079
Ni 6.090020811530984 3.898993153937895 12.072759024380364 -1.832547350448618 -0.5359251138138059 0.10992751566077842
Ni 0.45319714768094516 3.345507709521952 4.416505923519776 0.8618026693147803 -0.8250430931972436 1.62178759656011
Ni 1.3039806007334431 2.958821543008691 6.780178222414473 -1.233017258189657 1.2416309680005972 -2.119577851175408
Ni 5.651697061255049 7.351276414502642 0.5267883241110987 -0.05119297793404732 -0.009337218240525854 0.10786523381511101
Ni 4.41704067867983 2.808656013694199 1.5760832367167021 0.7342826373832193 0.36945723986413787 -0.22325274414919616
Ni 3.1145378124128555 4.227502761674357 6.094809594786384 -1.521730288825192 -0.4084426199883998 2.7510490151173395
Ni 3.8883349940984875 8.276661444926743 12.368685510715228 0.6198009266928551 1.5022284713468388 -1.306485245471821
Ni 1.9755093214990085 1.8468171211503943 11.742456740019266 0.559868769113597 0.4223021515793114 0.28997467095677804
Ni 0.20576251786326047 5.736537491311196 0.7210337489763168 1.9894386364534447 -0.8392409819641805 -0.04681644613290647
Ni 9.200836580256421 8.629110351020001 0.05275327328485824 2.6454311825755084 -1.8513166606363214 1.0678986991790318
Ni 6.24415775222411 6.342390150882633 2.695906721070702 -0.7702914513776605 -0.008284865716611538 0.00010747211214175038
Ni 9.07862793987944 2.6158670808624946 8.39342093945862 0.9310902999670094 2.636788419298846 1.6458109560579013
Ni 0.8574083213824863 0.7438499691385972 9.72018543491289 -0.45031920561752764 0.2649200419809954 -0.17732744237199138
Ni 5.672126740253981 3.741660612461029 6.132401312445271 0.4110944557889501 1.0550056452664476 1.4961017896238105
Ni 8.12462104000792 0.7683618896011509 8.391730780662597 -0.9923231786355621 -2.6108449599602066 -0.9232949722923066
Ni 4.8239625715433 2.964593943268335 10.132850173346673 -0.720593827042217 -0.15794595252158605 0.47358331835179085
Ni 8.220969327221693 3.1460874432719677 12.77637582550126 3.543671525892033 0.955521179315864 -3.189614679743365
Ni 1.156798247873136 2.9649910844061984 0.7346676965975758 2.3806983169046547 -0.301811515690706 -1.698153474215359
Ni 8.99817453402062 1.0291127541298037 11.94534229359312 -1.5046779613285957 0.9054196346737826 -0.6646651341953972
Ni 0.2624354818204276 7.765125187677686 8.751758617400757 1.4071279933965635 1.1090003543153482 0.18019242262461224
Ni 6.722666644147585 5.420902645113845 4.839944269798162 0.8807411580904961 -0.8220318171747455 0.45247301873573686
Ni 4.115601319200996 1.8978543752860655 6.841777583649232 0.043489695752518646 1.97952754798732 0.057878874594655155
Ni 2.4489477370344117 4.0149121869919675 9.194959815000082 -0.5553636821543919 -2.6914523865006292 -2.0191384775107224
Ni 3.0249224528619294 4.732241440377655 1.2229268652476213 -1.4861079116358924 0.9189369524339271 1.060430930047077
P 7.596709637702303 0.17007984841824317 10.367893999663018 0.04298704508448726 -1.1980248012748722 0.33260561825342716
Ni 6.80646342423679 1.8503729197103351 13.434195788338203 -3.0567446963538005 -1.8219819162279458 0.5274494722426272
P 0.34878874253662345 3.280875298294766 10.670849884138065 -0.22528520119819265 -2.0095950567966616 0.3533631625157527
Ni 1.2506713298555758 7.534441601621469 2.2220074370985685 0.07292137075007442 0.42371445854580575 0.4939297432186267
P 2.448319699886163 1.9997256950682682 8.094871474445775 0.6218732358408516 -1.9980544031469138 2.825183689449225
P 3.3968035671892545 2.3820248373841997 4.696752723581363 0.8159321320349109 1.3329915192924657 0.06594133988781548
P 0.9352119646261179 8.390354640440698 4.6190672990950485 -0.19894244953860576 0.1110487737494152 -0.33829264133587544
Ni 3.051383135652139 0.33560088600742966 10.076076538728978 0.5797050871132339 0.02708322937003723 0.02886114720606642
