# total energy = -340856.2482907824 ev
CRYSTAL
PRIMVEC
9.40432719918507 0.00000000000000 0.00000000000000

0.00000000000000 9.40432719918507 0.00000000000000

0.00000000000000 0.00000000000000 13.76418345997024

PRIMCOORD
 96 1
Ni 3.2559097592079578 1.3528124768555423 10.22879805167003 3.297199663313896 -0.5114821502800933 -2.6789025748600768
Ni 9.115670842481322 1.0802656684318337 8.100814151032635 1.1306097050550077 0.6224417067498118 -1.6762715865406033
Ni 4.443789144516106 3.150741167420154 8.235400418933416 -0.8396716417436958 0.17695668929613395 0.8064779286005466
Ni 7.799497624644404 0.3451895939379452 11.661580225410807 -0.05413791949498418 1.9260306045104443 0.233915623179681
Ni 0.47517432450869207 7.357898629331887 0.40952177544942037 -0.8817600862733137 -1.411689387515001 -1.4511244535821717
Ni 3.4692563275078867 7.220397960412145 13.470455552910142 1.6297875840464513 -1.2853903724747346 -0.8939669127521507
Ni 3.6861765401679487 4.10110486336116 0.6687370095443809 -2.1200087680652393 -0.6114337856750824 1.0469578352613067
Ni 1.5562374798924712 6.873161984861661 9.645059232798681 0.3213819816234659 1.5062252512110574 0.5817653120763723
Ni 5.112897624987396 5.47739994539368 5.142229721722275 2.053695646660302 0.25139089714630897 -0.7897215350778142
Ni 4.985243286712547 0.4314865222060683 3.8074622680199517 -0.29057708042746727 0.6120235967402815 0.5952170667059039
Ni 9.052483167597815 1.7449447107620109 1.8406704175445268 0.5286674038101282 0.4309279455751095 -1.4602205023461692
Ni 5.787620488835 8.491590280947706 12.912662332526084 -0.5071310724002492 -1.483272499069626 0.639057203819306
Ni 7.674786840803033 2.936472975048401 3.684203512308065 -2.089806790560562 0.1351947748679994 0.457701871234844
Ni 6.010691131525395 6.968108072914032 8.732466136446101 1.0620278422205516 1.6901033502173732 1.53429038487839
Ni 4.416657660360888 7.231495066583084 6.973113996316396 -0.7596164881623176 0.18112778995468803 -0.6725399089577837
Ni 6.039618842187944 2.241455572966149 0.5852999371970903 -1.381693355373543 1.1095752529822116 -1.2088206063387954
Ni 8.418368188874037 6.044556114001286 9.48803706134535 0.5267305917987316 -0.4374906863942917 -0.07410227843205303
Ni 3.446262747348611 7.069759446305283 2.4727493594157557 1.0659721715802803 -1.3348406566860622 0.7192743368998451
Ni 7.6771567312734375 3.9171186047779005 1.270180414922008 -0.9600949147294754 -0.4498486937390124 -0.0719158123036955
Ni 3.793019102208657 1.3144052043113779 1.6757476707571233 1.345856548180592 1.701700053916037 2.4695641267991273
Ni 2.5477074903022676 1.6742523827222258 -0.19483509051444128 -0.02843537252255748 1.0654368679021007 1.2461867056920795
Ni 5.6980160586683 3.9803815142795154 9.93406549479898 1.1898576920830477 -0.5549746742460893 1.0838781053264237
Ni 5.565612535125379 5.241360735406907 7.5047697699369875 -0.21241220189026644 -0.5069845195200559 0.04361825091058295
Ni 6.27891194940789 6.02464715318444 2.5288659206298307 -2.699672974638209 0.4979285799653747 -2.170554856443907
P 4.694010080016248 4.972180676143534 11.631740295003699 -1.411813571797691 0.5647227547717887 -1.0373329105770328
P 0.9350647363487318 2.380554977520687 9.471148770445543 2.324797649082293 -0.18337724811049708 -0.6587857925964848
P 9.096880996608833 7.564455273347565 7.964782438031453 0.15669408239235594 -0.3365664026733881 0.09635980427867276
P 2.866749292716757 8.44472851819365 8.489899382905728 0.48988334106339504 -0.3967849811448134 -0.21633082021838226
P 3.980767091697319 9.224065118520508 0.3824542407195934 1.3476887162933242 -0.8946492835311559 -1.0650144356527014
P 4.404685951754443 2.0980113692158704 6.525392783955335 0.2766483861615171 -2.035385535497204 -2.2529180893331717
P 6.650354663334642 8.092884422284046 10.890882440108207 -1.8530326148861633 1.5255265226428307 -2.4871874963078455
P 3.573625551478292 2.5817793679779553 12.021115180156507 2.813282824246581 -1.6684258652439392 -0.8681568936675822
Ni 8.68872378904535 6.8248331470544965 2.309616256106598 0.3095942449599184 -2.277017039263904 0.27714666595417436
Ni 2.6331646121457597 0.7000458958700496 3.6532755012365685 -0.7193152174401095 -0.09136517927755877 -0.3725291939212423
Ni 1.9835889194007752 6.485825957859581 7.343053898746441 0.05029232049664887 0.09165365705225505 0.29316103910455965
Ni 2.3425708997033805 4.713580485051608 2.8236257500499438 -0.30987140988070505 -0.2811784128213867 -0.431652996666592
Ni 1.7152552495911182 3.4406953856086147 5.874250330288251 0.7663707761670157 3.027430263660399 0.9312846753660025
Ni 6.06711709510644 9.578495404427578 6.063631851422584 -0.3761331092224168 -0.6925659743707234 -0.16839003067304548
Ni 3.841357344343085 3.002105775020419 4.403919499082467 -1.934787267657152 -1.584679635964219 2.7395356151611012
Ni 4.28734816048766 7.387776177048051 10.72256096944777 0.5338977989711322 -0.17409890813236467 0.14333051660125637
Ni 7.578759255115359 8.051674660215356 0.6703159960919237 0.6073115359765928 1.3008941245372887 0.7933326494678401
Ni 2.1557163213047517 3.8998898772311548 12.1429002777862 -1.3389911885193264 1.844548231564236 0.23788026425438388
Ni 8.569110150580798 2.2612610861830955 10.462444800800967 -1.4237676588357737 0.5409197388149201 -0.19142402967437355
Ni 7.791061943089039 8.390907553264595 3.429346243467014 -3.0480006316125827 -0.5874549062619819 1.8130948981509616
Ni 2.1637194038059966 8.446534149028242 1.2201851303237499 -0.202685975741438 2.0226470048846132 2.0246447520409325
Ni 0.8769873729002154 0.20190902548205159 13.364788531777371 -2.247702349460187 -0.8494786005317887 -0.6817789110575483
Ni 3.3389405646174644 9.481912963431355 6.291209047737653 1.6204763339478543 0.3682125688237594 -0.7871008096255154
Ni 8.18075845623426 4.710777995527082 6.1321226264499815 0.7142935958558021 -0.16969923640277226 1.0797465996565532
Ni 7.204420008391446 3.343172511886043 12.197186756914798 -0.47901014579431694 -1.025798684685188 0.42234226078862747
Ni 8.171081403480109 7.6277840131400225 12.197654151979796 2.1066344036408626 -2.113638345762521 0.6859883211532056
Ni 5.203950321552675 1.0685102593524494 12.044844178707788 0.34183305038896616 2.0128924966010104 -1.2497962774202087
Ni 6.842522686637154 6.970449750402644 6.3029089712861825 0.07695594583076425 0.47044837226723496 -0.46904069328643094
Ni 1.4041977210233467 6.072486965973902 12.15582464474444 -0.4459318751831094 1.1139777529252815 -0.2158970751150733
Ni 1.477871220805664 4.55850312847637 9.712159107823807 -0.6373651608288636 -0.7829960434285225 0.4682994442450322
Ni 1.0531718015856688 9.408371124230726 9.58131670260663 0.9122981069611708 -0.8014727620764713 0.3069174694587037
Ni 6.877835935511624 1.8120633944416635 7.549806152769199 -0.4754478823643554 0.9400966172306778 0.399463299307925
P 5.977202322140045 7.950418268569172 4.364058317543365 -1.0059479685078483 -0.8854043678941204 0.8854704452453653
P 5.674448814545951 1.7619195214726417 9.61649829089941 -0.35471170612384717 -1.1060057904633984 0.47824215728004094
P 8.826769908946375 4.454105691524174 11.32123386001357 1.7074737231750206 -1.4813176893361004 -5.011571656270647
P -0.002182744357860072 8.992088577911572 2.2939251360674358 2.5630424957649476 -0.5793459040016022 -2.4542591210109412
P 6.1199412013455605 6.568696889705608 0.4534211751154731 -0.5357672480797031 -0.0302629126495995 -0.3961514613258726
P 5.356911704493623 2.5683311799911395 3.0256156527464615 2.737144746331422 -2.2491635073867458 -1.7696489111521845
P 1.7686530197933135 2.4078557395666493 2.0752397311800133 0.8818464753395329 0.5096384122031352 -0.34938206638081765
P 4.483851578658648 4.493773143921649 3.170373641015452 0.6083091240031717 3.8308028138627446 -1.5679142435804223
Ni 3.2142862067396734 9.14633835368762 12.16300955077376 -1.3522539670665035 0.04714297623438978 -1.0265275924314128
Ni 6.201533144683751 3.6106033662784034 6.19016613432035 -0.19782813342850447 -2.030950382543986 -1.6901910248351733
Ni 2.181032770298114 1.9665482783992998 7.708782543427886 0.33403489450078605 -0.4307739364957484 0.014727793128477861
Ni 8.856327709535579 0.7769582459619188 3.971531101891828 0.8414976392088411 1.987797758415912 1.7719536480259612
Ni 2.9966794781893755 5.828397651849567 5.129319461254933 -2.4400157237180493 0.8275422054700136 -0.6211044759956271
Ni 1.2603867485097913 8.854061266665072 6.849470603619433 1.0512286947225185 -0.4082176484617873 1.2251669089073027
Ni 6.489333771928869 6.064549713763502 10.94106675168446 0.4607956796688193 -1.977496119379588 0.9783320065627924
Ni 0.21424844328449968 5.011763489595637 1.4020610578690778 1.7076745263319173 -0.5081793111591054 -0.033198855349471854
Ni 0.3732737364449574 2.6112901469308416 13.095973360411826 -1.95651823157634 1.0489226722971614 0.811637361314299
Ni 1.4927018449002152 1.5794097422697535 11.361439239930515 -1.872512063767014 -0.09931528736257089 1.5032211742774109
Ni 3.928808183566441 5.422140118393311 9.312736639422669 -1.2417273843691454 0.4187319177295499 0.14661432955885073
Ni 6.738463805466444 0.8634921632770823 2.0973173298638232 1.3437258749908343 0.048397674577097295 1.2491689282488552
Ni 1.3503579474397667 6.951876204057218 3.5250766524131616 -0.8371573599622743 -0.06020752272783179 0.035516190628738835
Ni 1.3605522381934088 1.4385047068806216 5.322940453119655 -1.4082631354422712 -1.8009438646107243 0.8976217358959186
Ni 5.5554182443717375 4.564042277234576 13.492877349971797 2.2383093382810615 0.958184327970324 -0.010546150946962481
Ni 9.298171217356947 3.333890440876961 7.880861983262818 -0.8484416746268421 1.515897484193499 -0.6529846125336755
Ni 8.55211653121564 8.898703608184944 6.359644337234196 -2.7715039405375816 1.1085136444869166 -1.171927075746556
Ni 5.414532017637132 8.408521858229145 2.005483133702947 -0.2178750247770506 -1.0586005617065577 -1.0980376846562574
Ni 8.547329728638514 5.257150600882336 12.972439998343843 -1.034955925704424 2.513059478978601 4.802161474431497
Ni 9.517273233942143 6.799685975951877 5.699431409921458 -0.0874892412619203 0.006060090151150854 0.5038948248511387
Ni 7.408691400882091 9.400866471074448 8.797873232563795 -1.2841475012065688 -2.374756240388607 2.1391819985595806
Ni 5.0887096952656545 9.115840120372065 8.286024853025603 -1.374161308662556 0.9944068006374681 0.6388368602783836
Ni 7.4113434211703995 5.570860149738417 4.160334256899455 1.0839212998595331 -0.09183209161164829 1.814078345110153
Ni 0.5103963514087064 3.20164679089752 3.7762173311196747 1.2523324135785012 -0.9981948069249905 -0.6858834201442252
P 8.31927479249846 1.965382141818625 5.833646206895331 0.2055679252749234 0.14028787312019064 0.07712666708067362
P 0.05273288426466515 5.145671705500719 4.273599974461139 1.0201021485210433 1.1707142863853772 -0.30852312338292676
P 3.3654701718278193 4.8209779024008625 7.0238352949793965 -0.20510718358842098 -0.04981743774275937 0.5756280888303829
P 0.834665078916253 8.263225002007957 11.503980628263498 0.34165718693273417 -0.00017303524275454068 0.24504747142678443
P 2.178568836555075 5.841845839836384 0.6012825913814211 -0.5894279708279527 -1.1738068092677718 0.7753974051456581
P 2.8703323414041533 8.116385836115551 4.52373627101591 0.3205096063208416 -0.6271812783173264 0.4392686042303209
P 7.2813568097342 4.312250819081428 8.518790416691948 1.5266454667386224 0.3866892874717083 -1.1974046511923702
P 7.966283368662709 1.471382234993844 13.576619122522423 -0.48187126939219593 0.3121638054593075 0.16800539364011713
