# total energy = -381171.6829298935 ev
CRYSTAL
PRIMVEC
9.25093527220048 0.00000000000000 0.00000000000000
0.00000000000000 9.25093527220048 0.00000000000000
0.00000000000000 0.00000000000000 13.53967886972948
PRIMCOORD
 96 1
Ni 8.666609124623308 2.248245529578366 1.0042056671330784 0.0501370258657072 0.41333028709800423 -0.46530642305497927
Ni 1.5946114524193067 7.091554149206864 9.764951383210231 -0.4998615353220294 0.5938831783858288 -0.3135480874013439
Ni 6.948590196698711 4.9107109334614485 7.042013541048998 -0.6121215557707265 -0.8525713805244994 2.5859373980852496
Ni 6.151705388040443 6.1757485686130265 11.66360777213232 -3.046983246091662 0.11556028846652355 -1.001002965797747
Ni 7.678738758858089 7.464070807651173 10.09202929816227 -0.25442094222188444 1.4541092472421087 -0.07620724059019779
Ni 3.0758989486961985 0.058515865484345474 10.053523205505357 -0.8796463823644205 0.16452566262163276 0.6347097254838876
Ni 4.962340402786413 1.1688741637964428 3.0682132717359436 1.3192620855215151 0.9063573159967037 0.9901369696175205
Ni 2.5799378110058186 1.0236992377766125 3.476109206741154 -1.3460367825121982 0.2612839878903049 0.34020451364660764
Ni 2.759692732785677 4.377394519452451 2.8497635382211874 -0.43002008904885936 -1.2842104932340206 1.2239276371835632
Ni 4.420522379332935 4.5030777250157845 5.7965259072456465 -0.36712679195874837 -0.9380549042103007 0.06442490324328903
Ni 3.810617472842055 3.828407021222615 0.8808999519149354 0.550595314231471 -0.08921085193871733 -0.9782736425210313
Ni 8.528603673379836 0.8967079499766627 10.046441614613355 0.07031864301990469 -2.198559569186949 -0.02669062191730887
Ni 5.004681933175298 3.3068207930412568 12.407057328915501 -0.6652778280787317 1.3761942799321847 0.10986786606743658
Ni 6.543954291256324 1.058899046194726 5.089782211130375 0.055014408562666546 -0.5223756572641456 0.8413922239792284
Ni 1.4448203097370222 4.7114180365491185 0.817131405426699 0.6381195224963849 0.44155174383754275 -0.6189190383085341
Ni 0.4169988552373843 3.04470479521765 3.1913700468974424 -0.3440753094559235 0.9925512354859681 0.31420551847968464
Ni 5.375126382135858 4.387552046296888 2.6373537402954432 0.42082376726157206 -1.0251530806813896 0.17375155209527496
Ni 1.7941633755171056 2.4039942745264233 1.340828697019625 0.2400145369885673 -0.6021806425079307 -0.08527140767499507
Ni 4.21008210551027 6.246555226597847 4.185385808912899 -0.03691821318258803 0.07933113093116015 0.1583807260661595
Ni 5.811798276159566 6.622707502573906 2.509349475091607 -0.12030165980625088 -0.8698692483729986 -0.1183126544006801
Ni 8.293370893233767 5.838154190530973 11.667317397145636 2.6553530696749106 -0.24745839486112226 -1.0243089875135392
Ni 4.22383824614568 4.826120382035633 10.504976243784112 0.10223528922284329 -1.3715351838936185 0.12752286014503844
Ni 7.363457636467099 7.609051464031902 6.745007641136321 -0.6721210762528101 -1.1515719091289716 0.1321593304757853
Ni 6.239848298581255 3.2942672739812355 4.686002017193553 0.3791130177863471 0.6851917933938393 -0.6533088286423135
P 1.0803149611718437 0.2738656106151567 8.926994272471875 -0.30453431393850783 -1.0197360234308763 1.5774790044507219
Ni 7.779333428171773 7.51055675700755 1.4345693484471114 0.018356905240632902 0.19430417943564599 -0.6959968544291433
P 8.440701287154102 5.783527418202732 9.212776937805616 0.5903579388413898 -0.6621930185058208 -0.2880699977348974
Ni 3.4240301419656975 5.526490183801344 8.13868693092669 -0.018962142924799603 -0.31072450190961975 0.6614258013224932
P 4.123114063739262 2.8841178111624513 3.9326271320393364 -1.0240313083721204 1.4938536170195822 0.8033303841105004
P 7.687332877654523 2.700283226961466 6.273339459268795 0.4266946242200523 0.3170769264902088 0.8507597812370573
P 4.963478267815435 3.548048179193878 8.855153359932222 0.006890299361930069 0.1737610651769717 -1.0551768807369892
Ni 0.10275383758826619 7.452914179805641 8.170424114301202 -0.31207793061372063 0.21433204462079863 -1.1023267989499144
Ni 6.056355998982495 2.4288422864609966 0.8691447885622687 -0.5770949031838964 1.8920758448315542 0.21284131900788503
Ni -0.016679436157124434 6.4557651260395374 5.48690080663306 -0.730910892697509 -0.09033082447577347 -0.23669884235177302
Ni 7.525904058496551 2.2432592755081 8.614133194727975 -1.3425801914221651 0.8323064596278763 -1.260657645614745
Ni 5.542337035790891 2.474948947474368 6.93491546429302 0.7365169260303768 0.9114938658923205 0.09051028747643122
Ni 3.7232886445984303 1.4695480595140569 5.647873554685904 1.722182747250421 -0.14337653934784342 0.009710285309228437
Ni 6.391776407293653 9.232294560880659 9.188283236689024 0.3852502410323365 1.0705124826527952 -1.1449819146162798
Ni 3.116482801397976 2.8903714433544736 7.569994015637348 -0.8087494982435426 1.921278177427123 -0.9397513180761171
Ni 4.853308880574617 6.632235965825064 6.66697877804453 1.4445714829550025 0.45745196000756705 -1.6100769929914012
Ni 5.486572398433628 2.080008022116655 10.440500000753437 1.6003996178026372 -0.6745350850109415 0.5937664503023065
Ni 7.280717272080342 1.643012345361112 2.910773455834186 -0.12259097006105986 2.1273161003599297 -0.4166123002833857
Ni 4.288206253234571 1.0900099412565172 12.468676883157869 2.809149775914814 0.8878595143028322 -0.6939052620074372
Ni 3.57207285789607 6.118938575578694 1.6473186556945238 0.5066001395974437 0.5457364434772731 -0.802162074834012
Ni 1.549503892407028 4.592302994974446 9.726945766147384 -0.07017620390476946 0.2605342542084739 -1.0218749241507497
Ni 1.6059901027095247 7.80628140239568 4.1469731507014576 0.292034124588968 0.8780561550591652 1.328746885083499
Ni 1.2465265138257842 1.5077266690650566 11.254912556326238 1.9392357903468085 0.15957886013931874 -0.9400999596647873
Ni 1.7081111763304324 7.663271195211549 1.8932260899624473 0.4305469080866069 -0.631717475624783 -0.688968229717136
Ni 7.627146293273906 7.829593759087834 12.446972339002658 -0.8625187215451985 2.358089835476519 1.2022249553991489
Ni 5.240460518497888 8.52143419860348 11.004725639436968 0.45681844018862616 -0.21914360707682906 0.7954476389283139
Ni 3.7844188243689674 8.423022749995885 5.2742467840181595 -0.27381143093335425 -0.18052820869747618 0.004717460080327359
Ni 2.045344767939869 0.6505220625593606 7.131592196732119 -0.1390812544065992 -0.3795480484412367 -1.0166468429825912
Ni 0.3569131060503965 9.097943229039329 0.7591493189031223 -0.35832590583766677 2.4764976206941673 -0.07647206421581024
Ni 6.872353239754251 4.353360589815063 9.693800590436148 -0.5183423677350364 0.4342940338338649 0.3618940828048993
Ni 8.092570093884603 9.040263648096637 3.672177227644403 1.1351338181776063 -3.0061155613430226 0.9517668544797545
Ni 0.625457578741217 8.495466823510274 11.5205744376102 0.45986391188316933 -0.7119508066552384 0.2248897655319869
P 1.0597223794271078 5.906916391837632 3.145632498198364 -0.18730177997588388 -0.10909910622221211 -0.7388414603984953
Ni 8.474245178172257 5.182050113674769 0.625329915835522 -1.1439601582199845 -1.0654031864506879 0.5970559196868556
P 6.108827303410232 8.600381679560162 2.6029088081892655 1.0995533499698353 1.6030136583867167 -0.21492236990662983
Ni 6.209986279770829 7.9711793222518885 4.797229711420713 -0.8476554312801208 -0.6522485056985994 -0.5486083657084294
P 0.10390835430063952 8.4906933409495 5.769676918028329 -0.018883210057748127 1.052849003934761 0.9299800976219662
P 0.2464347375740555 4.22060966976252 12.287420534595812 1.4271121498279744 -0.5490084293603255 1.838517194878808
P 0.3783891521062836 0.9774445618001169 2.831593776404101 1.1937971363467699 -0.4622691788905523 -1.364983755928346
Ni 1.7950237124902682 5.715088999627908 11.639208430554719 0.6752400814977662 0.0875270364783912 1.986959578785333
Ni 6.852176950093304 0.3640113486257496 0.7869428286038792 0.8171593195737927 -0.5152274762551385 -0.779438150873935
Ni 5.369659079435436 0.03906114876863129 6.931759970297904 1.1772988815814305 -1.1488082303409053 -0.9141068780351354
Ni 5.5911542208164855 7.063671830528233 8.909473926305498 1.0763064636267528 -1.316492750306494 0.11203967690777479
Ni 6.1846757210764896 5.487266218573275 0.36325184684621553 -1.3718791974965987 -0.2657646493694778 0.49483939951708966
Ni 7.196617020219878 3.8617381407312785 12.15065655885555 0.16873970070298036 -1.102621704482514 0.8875952048978519
Ni 2.1430994001485955 5.31486579027368 4.916203213686897 -0.2498875731279051 -0.12073489068892754 1.1242017446461348
Ni 3.255598364864885 2.624203535915325 9.977388933941562 -1.3665369593480787 0.5134529008532189 1.402171934942869
Ni 3.7743445559412874 8.090349869437732 8.035027426782804 -1.7026567614023513 0.573656824036625 0.5543223853740711
Ni 2.0111903151988244 2.845263883342194 5.136656699764955 -0.09051697234465056 1.055992177549433 0.08841406706903483
Ni 5.063471626341424 8.003798119750513 0.21317577535991586 1.1115058943460212 -0.2412558655948361 0.20473283096813774
Ni 3.975728164207755 8.417749716934566 2.82508111802661 -1.1317888129647735 -2.060856683185115 -0.24285226354767853
Ni 0.34521714868297976 7.0455862522214225 13.481850406869269 1.300829075627308 -1.0996801053556868 -0.9198507224974481
Ni 8.951991224463093 4.076322833521439 8.02485972390965 0.596363007384889 0.8277651201140969 -0.8244645949859543
Ni 3.6854060649736806 6.930569374938268 10.292809745454004 0.5162800858893689 0.7774753707206095 0.8379168638361182
Ni 8.62071523511943 1.204370002140806 12.371989808870678 -2.0794832971473673 -0.1911188397291289 1.2432870155467812
Ni 1.097762224950178 2.486050069708727 8.82606934477172 0.1402768173765971 -1.8780098536567915 -0.19674981276266112
Ni 6.834008113369735 5.599147028825223 5.094453008310481 -1.3189134439328447 1.4222311675865895 -2.3465376118625456
Ni 9.027451102851149 4.257964946081138 5.198058857030234 -0.5492308297837767 -1.8200731292410075 0.5514144676986569
Ni 2.0343824097334395 7.1877083696268045 6.574868141398456 0.2974928337106941 -0.0300166009667483 0.4931291016942023
Ni 8.87119355646735 3.1095631018718923 10.62179705343035 -0.23297408520201812 0.8016779361087419 -0.49072692001061297
Ni 2.90588526167699 7.400785159980131 13.246301244739522 -1.15141661449803 0.32404718716045483 -0.5759895859348597
Ni 8.327460589428444 0.22358862801574464 7.604790483280946 0.6927166410159747 1.633016889617026 -0.41540825267295556
Ni 2.5841562374548745 2.936718628682922 12.564510096126531 -0.5003119925958867 0.2638905722752165 -0.11608582195269039
Ni -0.04403260134258507 1.4130711001467555 5.2708211627153405 0.10239392628789462 -0.17322293328531457 -0.2013052933438275
P 4.02535018059534 5.572069541508583 12.612996097672132 0.3065428597281043 -0.12284396661213037 0.8126485761876328
Ni 4.373888415013432 1.2693855746933687 8.514887311765765 0.14665675276101195 -1.2817764298712313 0.13242312566013323
P 2.4882055376092316 0.47682465314538414 12.825433648403465 -4.053298111020625 -1.1886045364022368 0.8695224065565412
Ni 3.6516494024460338 1.0484824931648191 1.2905683661035645 -0.2726199817284144 -0.5390065809526072 -1.9980978547903394
P 6.445579846389513 0.7235609712068064 12.140177099466314 0.7002368606524199 -0.05919425097196902 0.06996537344554402
P 1.6331600993781183 4.891283969551321 7.096822556800587 -0.23144016505599496 -0.6700351402580589 -0.38677002011097256
P 7.641679512465721 3.718959206927031 2.278904053909107 -0.9294149691471154 1.2979730942357517 -0.2174371659086836
Ni 8.08132095668712 6.0973098890920845 3.18242069218951 1.1807778412689662 -1.4788247477109178 0.24753449951469628
