# total energy = -340862.7605976739 ev
CRYSTAL
PRIMVEC
9.32705963596734 0.00000000000000 0.00000000000000

0.00000000000000 9.32705963596734 0.00000000000000

0.00000000000000 0.00000000000000 13.65109457087436

PRIMCOORD
 96 1
Ni 5.054464096645891 3.7810313424096833 11.639277598290546 0.7897341334833045 1.6889782354739944 0.33160957288874504
Ni 3.0174716202546623 3.8171643707322698 4.897083958958445 -0.15656578434460777 -0.11164526968283353 -0.7183474542102015
Ni 1.53538321898578 3.5855828115630644 6.926538305899411 0.566186740911825 -0.011498744668218907 -1.1640661849412404
Ni 9.19625677165478 5.1582835954220165 7.9141946220122605 -0.21379365561882535 -0.23776096506770017 0.26078390832543474
Ni 0.22186929216034915 8.06191845504757 4.573785693359884 1.161869691510554 -0.06953599921760929 -0.8726720079291164
Ni 7.580791420201853 7.928028516593586 2.8502253190773787 0.7990482117953787 0.47101530051429846 -1.3176440903021178
Ni 0.2665608302374028 3.302618481864915 4.906175976513648 -0.030956853392830556 1.6273951725548745 0.496509588130661
Ni 4.354636171736155 7.06323289113104 1.6664022885399972 -0.3328786694091558 -0.8884634664354183 0.5599818976526937
Ni 5.5566143234996375 7.092230718971753 6.2040950599329445 -0.8426003853547166 -0.03308135593500109 0.40773762350157516
Ni 1.4972168917023456 0.2107020038767578 8.422561333991718 -0.6186423876083798 0.569318087451955 -0.5844161194356581
Ni 6.376313616504851 7.885310584296879 9.399242499245716 -0.28585627791303025 -0.4165197405695794 -0.19974951882093342
Ni 6.733931730068252 2.149887204015541 5.5523639825067095 1.581083948193161 0.02979317210203256 0.5871407174556726
Ni 3.4009629967418773 3.275187600012378 10.158298184390674 0.4727366540807795 0.04951121935625021 -1.2443347400850053
Ni 1.827917111683148 1.240713429673576 10.73766433834153 -0.2785579444794042 -0.8739830134310561 -0.4096327836417591
Ni 2.7276425747987885 3.9154062879552445 12.175452005324457 0.8385673529359234 -0.2514340916794186 2.677734522693904
Ni 4.738901694158004 8.023173850078022 13.064343156178994 -0.7544940793340876 0.6069734359108837 0.050012841583017095
Ni 6.148780001138434 4.976508533734125 7.220036616544265 -1.5391965639307554 0.5093321938166261 0.5719737799072472
Ni 2.8594245978162967 6.887650996920226 4.166314447017902 -0.32876079058604024 -0.260506486294332 0.4687517012911024
Ni 7.262505516353566 8.29427416015141 0.08441175346542927 -0.08668062931769588 -0.31244302726262324 0.13476822885354206
Ni 1.1981074220903094 1.6595357073703823 13.157539134237664 -0.3846298338395182 -1.2230418921445 0.1768913832758373
Ni 7.456900089481946 4.096099410746538 0.7416122185551551 -1.315642743601373 1.8487203606640548 0.9099432335757489
Ni 2.63904483705066 7.965551276774733 9.935034496842038 0.693161184752561 -0.11852065664642815 0.052355887893896925
Ni 4.300958944581668 6.471123175848964 8.88912882903063 0.47002645423846795 0.20117082464849223 0.33067703377214663
Ni 7.9450037647988285 5.80784799693722 5.394584646674657 -0.275932333931099 1.9492350676513654 0.011743513689173325
P 0.6040744671489359 2.478386237965334 2.921539082952357 -1.482794016771311 0.029896787559432387 -0.49400893319599437
P 8.752400666384968 1.1783527101679452 9.335683252600319 1.002366421804177 -0.3289356256010077 1.0726850648240815
P 0.38937208747260205 6.187916342605026 3.621266275619995 0.6944482789951008 -0.05877696092889231 -0.45861898373247467
P 3.2736299810836553 1.392511322278144 9.033775665152254 -0.26562555268845217 0.6053510698161123 0.9821709206929086
P 7.775736289837988 4.038075773886751 6.3780372570918455 1.8575328167493623 -2.7582792143171915 -0.044563388432671644
P 4.402875723229293 8.540489875603047 8.252072946948422 1.430024695489079 0.5914210899985815 0.49949875266597193
P 4.390106978837548 5.32943513639245 3.668540476459704 -1.142345505434697 0.06629100991775035 0.8029989689130106
P 2.871829586889358 9.10360176304441 4.901520841140441 0.18733546142729673 0.3141687517044782 0.2048035363050731
Ni 9.122461077259246 6.15295852377357 1.3264589526408457 -2.194356329738879 1.5048237428778406 0.4018901635818627
Ni 1.9441695807106958 7.44339450739338 13.126960369819594 -0.10711138636822197 0.25546223900220516 1.6846055603275956
Ni 4.908299747951194 5.455331784894844 13.272672356130801 -1.1304191863107564 -0.27535949214676453 1.5093501699932845
Ni 6.287324142259679 1.8538183557853225 0.4230185217449043 0.4398432457868683 0.9774514037300521 -2.033177729212608
Ni 5.4668320492009235 4.49166000216649 2.0152566970409556 0.4505202658847402 0.4798665802573413 0.005682909317390213
Ni 0.7241389053751001 3.1838103985471276 11.348932766446897 -2.0566436735450324 0.8293522620955588 0.5398725284973283
Ni 7.419246750468451 2.7069271757527216 2.909580860027115 -0.7947873796364956 -1.1030155974868228 -0.5257831402837977
Ni 1.6092535298569428 4.4924341481011245 2.5960834685022176 -0.2336430862445847 0.5147484797361909 0.4502590418035536
Ni 0.4991888854772831 0.14224511831236533 2.4789701118871186 1.7959955194665131 0.14683518732040518 0.42423150739154036
Ni 5.952510689059914 0.5098609069038973 7.0978316181735375 0.30705579480878087 -1.0570607280232633 0.16018255516158864
Ni 6.575110561695251 2.1785119494781164 11.511585490843366 0.5418684758814346 -0.2836638982474018 -0.42917676721195763
Ni 3.962256107589822 1.7056300351892317 11.656014073773779 0.17089891313782826 -0.25702109884889285 2.164832866358465
Ni 0.7170960427818154 8.489974521603271 11.329425221600049 0.45170477311114465 -1.0915435922914813 -0.3956457253340476
Ni 7.929446229630508 0.6930490180989829 1.4638064320342152 0.1859036140767766 0.5215655026580243 0.45257663419313665
Ni 4.6453792690184645 2.0068567472971965 4.755044968660001 -0.9679810023457718 -1.149626869587459 -0.9166818378511632
Ni 0.9206628461766994 5.5981197380674 5.6688216468422326 1.5200084210380789 -0.09737976090275487 -0.44693023454063674
Ni 2.629857683489032 2.113735521574047 3.1942063390139204 0.3186491560733351 -1.2567523970230678 0.5650459424391624
Ni 5.586796687890936 1.1859729177413971 9.33730709365116 0.005620431510570965 -0.2705687556263405 -0.8507852351583541
Ni 4.784175240744952 8.482755377586317 3.884336920209925 -0.3347805144175589 -0.21764388260285097 0.8872190525053559
Ni 6.299337394835696 6.692659491986825 12.04471554567168 1.4055801892934696 0.7555770279856213 -1.570910864314901
Ni 4.698105136108703 2.1221951644983084 2.04964369983386 -0.14665238188563776 -0.19014464874131767 1.4291926865060869
Ni 8.672570364523065 1.297151466426279 4.3285707713876 -0.6770447388066727 -2.1794357038733048 0.015593226452566692
Ni 6.186451994270836 4.249809350539059 4.553212998323454 -0.6549286236339237 -0.4952523186847922 0.45548223787570585
Ni 4.821977812709703 9.101428558191762 10.853371174391052 -0.09125976404794606 -2.094046539673523 0.884149926661729
P 2.1573301974593777 6.066235524975582 7.679245994380366 -1.3588128512309436 -0.13447640864473615 0.30775796308212805
P 4.714492779568379 3.3312059190896766 6.504050493837407 -0.9311962294172544 -0.09584352676388655 -0.44397346590515796
P 5.635726441783628 3.2343910419630766 9.342399668112733 -0.6845009379744018 1.0517025490351437 0.9282430603262014
P 6.391339509284327 0.5345645565722511 3.595711998129489 0.8904581282679439 2.2936883292719985 -1.343953160510292
P 2.7596157346051458 9.130902066064598 12.133733933801157 1.321723402577814 0.36770271906687646 -0.8293136955481395
P 8.843367477234269 -0.04896426401266978 6.092537832634253 -0.20311792107253407 1.3408814635635036 2.0571339829178896
P 6.35134507834802 5.468641498734889 9.402819426546106 -0.07083440631405866 1.1721996126816523 0.6621765634455886
P 3.4431865948875537 9.15907911267341 2.3794541183428053 -1.1671713062291251 -0.12186154809420303 -0.7802279937650821
Ni 3.6254186824886627 1.161218901951995 6.971723245421551 -0.048662241092393616 -0.10583869030338545 -0.7777857028721766
Ni 7.6660407436062 7.713804615067214 7.17190246082295 -1.2502878723446467 -0.3105373255994781 0.06818976960235999
Ni 0.5445799530133439 7.47197261755869 7.145515276923252 1.094566181167889 0.5548818574219669 0.101033041384626
Ni 3.09597747967418 7.8430403508539355 6.661856878141874 -0.23464967313222812 0.6244667075996406 0.21604234244368603
Ni 3.4563470757763426 4.441937448220257 8.249233790050798 0.26092943276436353 -1.4341639144684333 -0.310833002463026
Ni 1.6779006874341853 7.202532524068013 2.0751438803795366 0.867666327184409 1.277878894589038 0.08810193514525472
Ni 1.5373512285304536 1.2620164334652095 5.64588827305814 -0.7103392391937444 0.011823217887173186 0.04147626486691566
Ni 6.9267780113273645 8.540965555635172 5.1315149347906726 0.9868636981828877 0.5152228482694482 -0.2657358530140714
Ni 3.52642127344996 0.6298199493582378 0.39772167109531226 -0.36807552902526286 0.45741622167362517 -0.6529753565622949
Ni 8.21628128900183 6.203930903686564 10.164017537247519 -0.031367715678004046 0.8502805276077937 -0.044532278084420084
Ni 8.207868281374838 4.822975808071219 3.1875580110355153 -0.6022634320297241 0.10854426216000661 -0.3869212009768562
Ni 8.754312713572922 2.21754569329072 7.462125108187758 0.5670496031327524 -0.3040617451774634 -2.0322565029499198
Ni 1.4666987531707238 2.897199188602687 9.041870620051885 -1.798918092429947 0.05999566382734184 -0.41194677648691636
Ni 8.692838064715367 6.985743681191947 12.512633598919448 0.6350041167958548 -0.5990618943732908 0.24248408157498236
Ni 7.869669105593477 3.2128548616851074 9.42673587239659 0.2151573687355714 0.46286798881681573 0.8077863629993249
Ni 0.5613807852068069 4.452178559500123 0.26211368829000753 2.5401735615865735 0.3938094434562573 -0.8105888654451266
Ni 5.584455595968125 9.2014799249487 1.4529543983601498 0.11244668253820633 -0.19417536716726558 1.5947807289539633
Ni 8.645344677978503 0.8754424638286363 11.735040383110798 0.7208925892295583 1.6476233266762912 -0.5363424038568827
Ni 3.6221169034421483 5.562182577993335 6.280077017064364 1.2115899415538165 -0.13069662988732975 -1.6801758066910157
Ni 1.3205903668327477 5.700232384963547 11.85815943330796 -1.4596790280204022 0.1253821596529518 -0.8125099937272394
Ni 8.672896811603934 8.342588328120176 9.083642788520015 0.871791405096376 0.7489494953667747 1.4031633523218607
Ni 7.466637539551328 4.607772565302237 11.700052717689093 0.47546793696901335 -1.0215681915436083 0.6618508046750536
Ni 2.5011815712695165 2.9518744111186916 0.8527487954724966 0.9547367357413559 0.5564998526413641 0.6238488715099837
Ni 6.21547780328991 6.466748784965305 3.8299918755985716 -0.5856235094801979 -0.1886660073132622 -0.20429240099660945
P 0.5863633139528183 4.921404266483263 10.010210596036682 -0.4758623441939546 -1.2324665278925095 -0.673884081690504
P 4.600087068312611 3.26502110520814 0.26938133301611994 -0.13097482324938087 0.47144056097717524 -1.2153257544471652
P 0.3567693511531386 8.856294781636722 0.38155601165062797 -0.7666497408600151 -0.152537379911505 -0.4625358022883776
P 8.685572285401145 2.9731214525536047 13.340545367773409 -0.2105574080697148 -3.819307154518319 -3.0958971981835455
P 2.6058405053964506 5.729099633971913 0.7514084290990924 0.2263226413237715 -0.8781196613072488 -0.13183305748461813
P 3.2531011232266565 5.740590571218538 10.983670194955465 1.5481141781353596 0.13483713441826456 -0.7714389347185424
P 6.783057352209466 9.394214281494373 11.937963619403394 -2.4841800769400897 -1.3534973525553013 -0.21333471370453583
P 6.757864964625752 6.296007634610822 0.9309048901625105 -0.3394388391251767 -0.322527922302451 0.14075067168922212
