# total energy = -340888.8302856157 ev
CRYSTAL
PRIMVEC
9.07719929231334 0.00000000000000 0.00000000000000

0.00000000000000 9.07719929231334 0.00000000000000

0.00000000000000 0.00000000000000 13.28539870166989

PRIMCOORD
 96 1
Ni 6.443513561810333 2.0639463767262254 11.339313787040753 -1.2150169649574947 0.47630225994485065 0.7357119136305781
Ni 5.057479670749081 0.31864963996863405 5.879784983322051 -0.7677979955318455 -0.5252434657302438 0.13799881997569782
Ni 3.124907601496165 1.6313633602854023 5.080987801854891 -1.09375191279671 0.07214001249935963 -1.2547574780802262
Ni 3.3414260397025393 4.38907101289621 4.580221401831827 0.47373938431368084 0.20190461749072325 0.8100455913471469
Ni 3.8766631045932796 2.838095330838102 2.61362345048372 -0.547943478430921 -0.5862966242878225 -0.13668884291502265
Ni 5.345399359738641 4.581779956975417 2.6539579861886637 0.41001844911595187 -0.1461283910613677 -0.4306327829321938
Ni 5.218318567599739 4.806994352243867 11.257621715254146 0.0370051164694395 0.6085268964409326 0.37889884489301195
Ni 5.6712254335833485 7.576584058919662 12.305614345186312 -0.47619504494302506 2.3019320573380293 -1.6033692419539227
Ni 1.9628263749814134 6.609662620332509 0.3385477688577546 1.1555882293772164 0.4985654422184252 -0.26547231494003953
Ni 2.515509817192937 1.396735909199235 13.44694963238439 -0.6227533244529597 1.0063727147500927 -0.02289798764409605
Ni 8.422415656997318 0.18976339286141564 6.38663673784868 -1.2711438898580496 -0.115833082511936 0.919716768022745
Ni 8.90114715538344 1.7794669463238544 1.2996371068056753 0.2181064240615663 0.8859790094506677 -0.16724383288374423
Ni 6.890810718540953 0.8358212625368857 4.417009725047948 -0.031173597389326957 0.14251470556818036 0.8571903673537494
Ni 0.7391699660756437 7.477470118250757 2.214768583996506 -0.43153652569338585 0.36539695375183523 0.4916098368361985
Ni 7.840449169397215 3.6272579728212455 3.619368071069308 -0.11435392686324822 0.7162880005780116 -0.3099583131675565
Ni 7.9291606395096075 4.279282285687637 12.477872358930593 -1.5406060426837724 -0.10375866784590516 -0.20715403881512065
Ni 8.38873016988107 7.76458193649029 8.643799474102725 -1.0668355480218399 -1.0600097833492583 0.012641857133726616
Ni 6.705045832032194 0.7367536155851168 0.11469495350507844 -0.9200672093836283 -0.45791347302501784 1.2797254608794735
Ni 2.0629024987907987 6.894840995091644 8.713069398457751 -0.6650621125234998 -0.12640443026987908 0.49024766638134926
Ni 0.19756252261896884 5.174711701497219 1.088205531164633 0.1451151193055049 -0.32762847675380996 0.11256186795983196
Ni 6.651544818541716 1.9440638037420481 6.626504456170689 0.0387660650246042 0.6823044445437152 1.2161932446537829
Ni 3.80299255395047 4.43328605136111 0.7134342902276282 -0.19797520052933001 0.692597084718975 -0.2827403579918679
Ni 5.995581001119019 5.660060478274001 4.713606308980762 -0.04058074963583978 -0.1354796530982699 1.1039427372867827
Ni 5.289256881211562 3.110828865167063 9.462325948549449 0.053330078881708154 -0.764933786610173 -0.704346254835103
P 0.4605108359532344 6.112440866690178 12.120654606267747 -0.4209973167249588 -0.19470552863912274 1.3231616776862374
P 3.942200484539199 6.230344610196764 12.590825397863426 1.4477948749883065 -0.42622874032722724 0.9694946107768206
P 2.4064018799422513 8.63678279893677 1.2719707106370925 -0.9737335885588327 -0.5760371513433434 -0.1901716453245112
P 6.492267199994479 7.665930932992748 5.855221173921545 0.4517451394307768 0.6231004233797333 -1.7598609785274852
P 4.431525074670042 1.0169186530943721 12.502795625428863 1.8141307956146435 0.040000451652337565 -0.5761034858049046
P 4.456178748344989 6.2946656454179255 8.054352466445359 -1.559444258436198 -0.5706051816944946 -1.6941230128997276
P 4.7255991048789 1.1545925369779955 3.7769192062833428 1.0500228473398754 -0.9280723390762919 -1.5196831764881762
P 9.274356210297078 5.633827371896757 3.316739688109614 0.772325965309186 -0.7085860039480635 0.33627895333995633
Ni 0.6667629615946725 8.805673171689369 4.480461164562902 0.040884139808871525 1.4284038720562044 -1.291023659501112
Ni 1.9507990857254098 6.687835461896811 4.751084250022413 0.48569835644776993 -1.0171476938784096 -1.1404822269737132
Ni 6.2657003020096935 5.702550848845587 9.034296963066918 0.9400531655872519 1.3893195044602331 0.9210452570261815
Ni 8.543260413121974 2.5334645176822765 10.427629830196661 0.979221094035965 0.05795472213791309 -1.1084388253849233
Ni 2.551963850137925 5.303381003537857 6.905006550742813 -0.5509742948374446 0.1173063246233528 0.06277014124868545
Ni 0.7021213765674345 0.39295559457213786 9.236035905147537 -0.4603886740383877 1.0059456545150032 -0.9424468626304093
Ni 1.579859330671393 1.4789844133114203 11.094118660368292 0.2825719507348036 -0.33557678506660915 1.4501844582664059
Ni 4.246758680099517 6.674646291112681 1.715025184350161 -0.6779577375392454 1.1583627067985598 -0.8381801447998339
Ni 5.827153565537781 8.015838816947777 7.843566279684393 0.8057731892240381 0.20319222595389522 1.213960241558206
Ni 5.20289640575374 3.007412331964312 4.84329861139812 1.3916954608915773 0.2142399991276246 0.18228324371536994
Ni 0.6651363274552946 7.434344343718476 6.535871342937169 0.417874454825261 -0.40331249785068607 0.8381348933841952
Ni 5.55249566492786 4.290329237404283 7.323164081835983 -0.8834976377897107 0.3311588585045716 -1.496650977259061
Ni 0.8185164895273426 7.79386498187887 10.747316086341172 0.048812393517012706 -0.5071035615964236 0.7553448573701571
Ni 4.876634626335986 0.23892732046018147 10.356606190910117 -0.08473481844523473 0.8069152732482813 -0.03958110472673184
Ni 8.241416300193768 7.072717795288353 4.498675472956181 -0.7461323376329536 0.4271270837717806 1.184425722434199
Ni 7.503176747060569 6.022340585063696 6.835218318299846 -0.6302439764030501 0.5925554607133409 -0.23179960527794274
Ni 2.332567939709549 5.133283363259936 2.5581699313940227 0.16746263376276965 2.440867787305699 -0.7110537487622658
Ni 2.4850467358773547 6.019481267240571 11.210511957888311 -1.4857150470728477 -1.4118842771346265 -1.025016812213841
Ni 1.2973587297466136 3.470521970116787 3.604408846394671 -1.6651798475028161 -0.6634901400506896 1.2525694692899718
Ni 1.8990408945271229 1.4259917229894983 2.6514072931464474 -0.8022204388757732 -0.5284097792733674 -0.5168282450833551
Ni 1.4142185953177726 3.347053903354405 8.363251378777164 -1.2290724146092962 0.6168909521349117 -0.4588974342048419
Ni 3.624425886596436 3.0352702570410472 6.942192205962543 0.514860836944339 -0.2222523279091398 0.9548377800955944
Ni 4.220198794542486 6.867682014371673 5.931718364469501 -0.0741848108435303 1.0495245675472182 0.05776626027619084
Ni 0.6081296995416707 8.962245784803935 12.94020408109119 0.8549043995330502 -0.12978157427222808 0.5697834571241478
P 0.3160199752913026 5.726369420172193 7.837017080289521 0.897828452590086 -0.4453402643456975 1.4206144579187727
P 8.771633673795021 1.7349160514797306 7.974786274767249 -0.6741121385409099 0.9277648351382022 -1.0525245307158066
P 2.20396217806498 3.579303128187687 10.481157167565511 0.07905602289290255 -0.4702995053941965 1.0664619667325053
P 3.970675659177752 6.329649172053877 3.757523046523171 -0.18941702654667378 -0.36782587490830204 0.582088756854062
P 7.086905458010718 4.11717258091559 10.230979566121261 0.33676129229301355 0.048618789448967886 0.773927248358035
P 6.510294518079327 7.824636687975361 10.094153492665193 -0.32813729806942843 -0.0056186317383580655 -1.193616902015164
P 2.3859509496073263 8.669869190890076 5.693258519780403 1.0217826215472596 -0.2381769695591963 0.989531731933354
P 7.373536184680011 4.209124611227525 1.3870351061593176 -2.1792395287020985 -0.7081807980898449 0.3964332542323495
Ni 5.69048725079183 3.020120411178202 0.21741980411061615 0.8112005308871965 0.555877645676333 0.7124470295653665
Ni 1.8371434715560389 1.255921314309893 7.053244479332954 -1.4373363986591439 0.11254592712023198 0.2811861261308706
Ni 6.990387596381222 0.9939170297172307 9.064521314037268 -0.4343585685232132 -0.24530278197070016 -0.20918109654747846
Ni 3.1063810374422016 1.9186204137159522 9.327652079080247 0.8780774952154039 -0.15490279481988806 -1.1003591337005825
Ni 6.431150416175106 2.1293112898828137 2.305547840140987 -0.19616642945536536 0.059134601378627194 0.10076538954553613
Ni 4.252268540158682 6.953407085868801 10.071275319200415 0.8652034674662132 0.8027395446040368 0.04275821690313281
Ni 8.031070357605568 7.418186928717959 0.2518232977024485 0.401184909984722 -0.6401175267630201 -0.1876949016492445
Ni 7.813308343076121 3.9214046206256117 7.921618394496164 1.85631694206439 -1.0956766406232485 1.32550652376933
Ni 3.115176843698101 8.30819725646276 11.99089604029449 -0.1820436169007381 0.6148093870155347 0.3018138296835512
Ni 0.47173933165865023 4.880147502518682 10.33058004468007 -0.8358478971222314 -0.0672672577880906 -1.0307280036660056
Ni 8.833286012381265 2.4154427705829904 5.599768811883587 0.6147052573375026 0.26035427698718383 -0.1754227691501108
Ni 3.8726328280425886 3.0500842465246674 12.123377766099296 -1.3125985574584105 -0.26335321171450776 -2.0850314806591057
Ni 0.9554206268985819 3.4103129062412627 12.472120137646423 1.5023565122842706 -0.495091881847528 0.7867315992115547
Ni 3.5085282041657573 8.61424411273099 7.792378136610844 -0.07518317020105761 0.12518495604048116 -0.42613952304753056
Ni 5.54870139556257 8.01601128373711 3.3768824884292368 -0.9571260619091387 0.8034329711266357 1.4006835233228005
Ni 2.9590127045582673 8.527683938885522 3.3889188548846785 1.2822461704187982 -0.4169357450610755 0.586653236296293
Ni 3.472373718802239 4.710440181816617 9.147050303612101 0.24952170514805413 -0.4764950926819471 0.16181212034521164
Ni 7.609207513701606 6.344780863517845 11.213182469963117 -0.43375641616284005 -0.08492996517517631 -0.3868335263590564
Ni 7.657770530697544 8.920436204190237 2.447090426425296 0.834027556084041 -0.998209719323326 -0.9517575985083737
Ni 4.454581161243814 0.4307603147935736 1.3718371511394487 0.7332719367305177 -0.35609624517619964 0.6902987756031015
Ni 5.929771305189944 5.8375106500971015 0.29128460682140916 1.3899404258736836 -3.0264745846153494 0.9212715141043746
Ni 7.726303386458166 9.004899544965415 11.401436324557912 0.8803264391505806 -0.7686911967700761 -1.0989000326565526
Ni 0.284081849066965 4.875273046420211 5.6615990635788265 -0.6989510519614608 0.8737382444101017 -0.5575218661479753
Ni 6.969936666046297 6.309652101690877 2.701067743554499 1.8033013090993073 -1.0961432958470219 -2.0974913036890133
P 8.741924000032833 1.4241762831017994 3.458029928249533 0.8580378029557093 1.2175623570871674 0.4349056992759348
P 1.9457067768404155 3.423620080618093 1.3174284177051214 -0.18754577766588992 -1.332186506892667 -0.4243577485567595
P 4.886438001729558 1.346066981933567 7.964078810309602 0.7519939386200531 0.2986464876991631 0.28793090105387187
P 8.45727210284113 1.6500533139292595 12.474684446487796 0.5711862510089454 1.0553355178020405 -0.6506554501798666
P 6.204665212985267 7.790352105696172 1.2634163578862567 -0.8416290225803827 1.1164452406291674 -0.06947095030762875
P 1.778813387964283 3.443480992989516 5.907564844483615 0.9663797192969228 -1.5020778047015872 -0.22807381968692336
P 7.174101035816882 4.056309958680495 5.752617957788483 -0.7458232910329672 -0.6459130503988747 -0.19609418145653326
P 2.651477187582124 8.908082135754448 9.801967519939543 0.3743353938920457 -1.1517511150193134 1.1651100528247225
