# total energy = -340868.16642847186 ev
CRYSTAL
PRIMVEC
9.27821235884440 0.00000000000000 0.00000000000000

0.00000000000000 9.27821235884440 0.00000000000000

0.00000000000000 0.00000000000000 13.57960164324517

PRIMCOORD
 96 1
Ni 1.638355982074951 2.1109695532685326 9.24152982407065 -0.6220372722225416 -2.4252797030594553 -0.11572201085536844
Ni 1.5118939502839794 1.8853512680843023 11.612351481943747 0.4255327427014672 -0.3174700481635694 0.5892251107885272
Ni 4.4671900886596445 7.372049865713541 1.572558612694991 0.5028653551453597 -0.8335655288459578 -1.1076410120739764
Ni 5.099852819676724 4.324416959884922 9.406236646400314 -0.6393066008259506 -0.4929848628068542 0.06697800868244594
Ni 2.0888688518946448 8.455559482188205 11.753987101907203 -0.9668664291253543 0.5171059242247739 -0.4856075965061765
Ni 4.698570143597522 4.400117892928395 6.480213267401063 -0.36159480639692565 0.39786021648686315 -0.6689761028659252
Ni 3.374968230963284 3.2049821059124843 0.05154139639046421 0.1373161920863764 -0.9554815843271802 0.22177898781714708
Ni 0.07960242125830097 0.30457494287593917 8.020384424896294 1.5937083218253907 0.5397691701502446 0.13573084987712755
Ni 3.2411114640778584 2.705888517203757 7.666499495655255 0.8927813770844818 0.20340871284007547 0.28186309759323713
Ni 4.2227927020561244 0.5813922584217939 8.002608298211896 1.357945361024326 0.06387391583582548 -1.0602589232455868
Ni 4.058911640609027 2.1092345275939244 3.726798964031283 0.7192517111920258 -0.8462194701645427 0.3792670268657081
Ni 7.253446479625207 8.367472135906219 0.31436067324497347 -2.199863632710353 -0.4234156963584643 0.903604692952231
Ni 8.50091138324428 4.05695393784249 4.569074136429026 0.14737794719775263 1.444276834532719 0.4733820009742621
Ni 2.525028327497124 5.822838946107236 7.420084097906133 -0.36500023253404884 -0.22665457074189355 0.16517589461112198
Ni 2.723368668920132 3.868949524769823 10.207609748295688 0.37087674591948383 0.3738556260421497 -0.06568962888832558
Ni 5.807715460280436 2.858413046962509 7.922679283885434 -0.36368305638452203 -3.038815622679205 -1.5741787364328952
Ni 3.6660350247501197 -0.22847875799429324 5.043056243916751 -0.13055110544840096 0.5102233381723277 0.36496166598662955
Ni 4.092118361942841 6.627083654667268 5.816523267087419 0.4131839913281271 0.5617927256091872 -1.402315916719901
Ni 6.260557161353214 0.8769172331532786 2.392033506521704 -0.49172579358877255 -0.34552566874920493 -0.051437232734369474
Ni 9.21522238130175 3.624468634256829 12.485669696598734 0.1842820193129536 0.8756308334471243 -0.37979513145503624
Ni 1.0106570945654418 3.913670507398765 7.918591303606116 -0.33795017039479214 0.14735969236530752 0.0814764594089371
Ni 8.926354523797706 7.92571789836904 12.378377378959145 1.086086168721336 2.4528241883366273 -3.170087922564347
Ni 7.9116799633653905 2.677246676254474 0.5985699404216329 -1.17272308928529 -0.1475422406897588 1.9426129343491578
Ni 5.278699637343838 4.782454459769361 0.6160398861046278 0.8371272780552873 -0.0336336288940453 -1.9771449066877562
P 0.8036425525906081 7.198723584283816 7.974280988654963 -1.5340790401985323 0.36398978899166345 -0.919932483577977
P 7.827331736585366 6.723697677927677 4.234880356862968 -1.0023895617326284 -1.7381346425939872 1.454235745517644
P 3.983294211475027 1.9117663381143022 9.85637374862738 -2.8427546084534523 0.13754116361298893 -0.13830658102410376
P 5.472141082744423 8.689119916984547 6.41549217063209 0.27714280929943236 0.36213473806079566 -0.6759890438486487
P 2.383016012119823 3.9027871645307677 6.180525158871735 -0.5929200431416111 -1.093998224479561 0.35172048470600714
P 4.248586131871157 9.184585724737275 2.989549442041543 -0.2579148143077558 0.6687382758235063 -0.9958059949778398
P 2.2859659128877197 4.488669149818566 12.19626091932555 1.5198610968269375 -0.19946644036287584 1.0217101164381115
P 6.834238297645773 2.641414220878338 4.846559483250666 -0.8868362152446404 0.5869517413733182 -0.032034402727725474
Ni 2.2736166124978605 8.407860193454722 6.928529984401614 0.27463649793781086 -1.6528933168259792 0.5181325657170754
Ni 8.97173425949027 8.318659461713093 6.097783918438461 1.3604462730693085 -0.9818292210827735 -0.8167353446624966
Ni 1.164035219843252 2.5733585346577383 0.7662986764530085 -0.932061405631027 -1.3250887195056211 -0.5213161056513796
Ni 5.716018889466778 5.32813395175193 4.355046193879666 0.35559436583911663 0.7098193621345323 1.5934548110536881
Ni 7.061582330292448 7.04429702103151 6.6081329063229495 -0.7943667471593092 -0.3804736455792996 -0.8803691194630581
Ni 8.168807057057482 7.8503509809634595 9.215375471802451 0.23546496994467192 0.5573534588909111 0.021616806938827286
Ni 1.2258837821263493 0.3069204749109177 4.207354684836975 -0.5571796523172081 -0.37112691425707695 -0.6220658114676318
Ni 0.6131413726246939 6.22031755519933 3.2848109155475793 0.00647815152517594 -0.3282118600611057 -0.5601580182192417
Ni 7.524490891562819 0.3202078025505253 10.989305617834324 -0.05920864914967222 0.3979810583354436 -1.2030119700768185
Ni 6.358340239346248 0.9379066329900192 13.190491867076409 0.4139977454786741 1.8119728687313759 0.3284766836867182
Ni 8.557517755654896 5.877320607932371 10.408125830471079 0.8009765391663431 -0.4927678617000417 1.6261510157351284
Ni 1.4415929367197686 6.572787557085407 9.848890870517371 1.504130573465558 -0.2623497101506579 0.8966110352432172
Ni 7.373014799778564 0.46087570498530894 5.014186158948241 -2.3935949703616646 -0.8642303049196665 -0.7829381936073936
Ni 5.142597543114802 2.779501852510402 12.03273521340432 0.3996800433044213 1.0866680093667351 -0.21313005389289746
Ni 8.545372575932637 8.37186073025964 3.271556989471761 -0.3234270370779527 1.6001335086254442 -1.417466142097778
Ni 8.18412538533972 1.9933311012452217 3.226879614439988 1.162697586728488 -0.6112975172075343 -0.38853405398993085
Ni 2.6486790610025 8.956842728967562 9.331793838926238 -1.5449159829130361 0.27514583347406163 0.7604803788245096
Ni 8.441066914788536 2.345207297552823 9.376062972622808 -0.5205049226039938 -0.2985480144480858 -0.2052946170088787
Ni 6.996913191511592 4.077913419120246 2.818419313430962 -0.6778242972851746 -0.6739612147853425 -1.7798209665891798
Ni 6.6430236231644715 6.465160295986707 2.276185749445984 0.9358627816549883 0.2228359683267517 -0.19627518711908779
Ni 1.6880964774844447 4.790702790382873 0.9458478547809138 -0.5459076789478147 0.9842961945660273 -0.0337837813186644
Ni 7.057128788453881 0.533060195618747 7.930419168472377 -1.3515484563590467 -0.0512773101177375 -0.3789332976753732
Ni 3.882839008378853 7.4115286584700035 10.605994838716171 1.3006349573386309 -0.23056264754704808 -0.06462519217955322
Ni 5.722096118433989 8.016588708300132 4.084975066398023 0.6560596519145734 -0.4519590552137958 0.6249197359766592
P 0.4079045361004215 3.772669517147305 10.395307052545737 0.5836558442308658 0.6537052927497838 -1.5733259015142969
P 2.916021466286804 0.8426871250178104 12.957316478084861 -0.426724191906407 0.3827961230648891 -0.20620041665259972
P 5.906389246641184 8.404492202439306 9.812986972907574 -0.8609549766025043 1.8530809516255957 -2.3354857249237586
P 7.370806585283608 2.6242216937390372 11.994196303540038 -1.0233237407821343 -0.7590125360297316 -0.8489800636288153
P 1.6038781456747124 7.464061895740765 4.935790833092434 0.3777377347053753 -0.09623176334124073 -0.08270750360256078
P 0.20698206823226076 0.7813664930068265 1.8495689150538503 -0.4909773454585222 0.07336848558982202 0.8404753685919139
P 7.944942353972187 6.114221199107638 12.530550264476892 -0.6450193349400116 -1.896995907840991 0.22388394997529187
P 3.5707292294047885 5.717067327441273 9.24428638090448 0.01495970663362585 1.1329967172299455 0.9063773706013616
Ni 8.45539247436926 5.590085715769136 8.188295941707294 0.2918430916240845 -0.4485993947129435 -0.910503219844277
Ni 2.404884758189619 5.140482110741483 4.605263802973464 0.13743729104527297 0.07009264305202767 -0.6771874350321241
Ni 4.509906977461232 5.1669435718323005 11.569766343754884 -0.19302634116448691 0.4337949827102593 0.7845664732394358
Ni 5.072528484854684 1.8292459191305235 5.926056272964538 0.3788859893772056 -0.4077743902767816 -0.21001027731699315
Ni 0.4569222587823645 5.619553317600986 6.17229538468255 -0.011027204348439075 0.8594670792030681 -0.8960204528470699
Ni 8.134718905568118 3.1509550764833705 6.913401859468731 0.7702788529721701 -0.3384893307277138 -0.2987750428572274
Ni 6.248931561512123 6.405417887864766 8.864220192579968 0.7205943412628493 -0.9523173276665857 1.2586745537464454
Ni 6.576740075467135 7.41605642600588 11.480290049111995 0.5016754486023166 -1.123800395442658 0.098293788076592
Ni 4.448809950363393 7.3820239437894974 7.869107814673557 -0.757745753502166 0.9528500602416041 1.648290013726013
Ni 4.825356912814223 0.49725835834275117 11.578117662523413 -1.4990171634983924 -1.5814014794335798 -0.8165731080530194
Ni 2.727664481151917 3.614281157301107 2.6168028352929578 1.5213273969598187 1.0835418050329273 -0.7897919833044333
Ni 1.2152973420475894 2.8203259860305985 4.044996178005938 0.40297439778497696 -0.8324095608646439 1.8791640218658927
Ni 8.795541010501967 1.023210515622902 12.72268812106848 1.285583205211831 0.020691209800764363 1.0382356248969602
Ni 3.3291338628747 6.979674273311472 3.5386136258214234 -0.47998279412023137 0.3089848935106937 -0.5775566733116635
Ni 2.4548943217518597 1.223657011207066 2.167766129028506 0.378435017882716 -0.8009117473666787 0.6255208598957679
Ni 1.9163497749231606 1.1809215659811514 6.23549485465668 -0.595769082554632 2.18643656067117 0.25352516988049245
Ni 0.8462443915613658 5.916530332536087 12.656337770243564 -0.612046479558417 0.3830684028896693 -1.3572226239256884
Ni 4.400748811355526 0.348001614908048 0.7972693486553756 0.09187580036539016 0.4495285913954323 -0.03048814128652814
Ni 3.0168663542938527 6.542308630127715 13.043804260589829 1.474278780211448 0.6152261628379792 0.4259873137403825
Ni 8.350919805406212 5.118715425005487 0.7930477621209008 -0.8741159394644945 -2.0232013347261866 0.9511199649243749
Ni -0.25172531857039593 7.177522869489805 0.8210726019612992 1.5000342919089973 0.08686189209056654 3.452256724323461
Ni 6.847608201373637 4.509192555124629 10.839033837988914 0.07946662806775992 -1.1522491377016544 1.3204260239226293
Ni 1.3130247507676414 8.889353013688947 0.527678832563812 1.2285795341332777 -0.18225316180838289 -0.729409625561634
Ni 5.9711511675436775 1.8362324128897753 9.794531681092797 2.4104418667156744 -0.9027562289090064 1.7823697011529627
P 0.4739997360908357 0.14941725650513488 10.112824460652739 0.36781893292976653 0.35541490283845883 1.589333846906779
P 6.699527935241289 4.542937412763936 7.481939154937745 -0.4548698011026876 3.9500667764331 -0.13566194431240505
P 1.9963094073497631 6.855698802380367 1.4433075503276167 0.14545167670931727 0.7950804853968824 0.5322636058018188
P 5.278449125615419 7.100699272774527 13.026463282055909 -2.16962823086458 -0.62313384772083 1.6843312236202863
P 5.412046102560262 2.500765802689098 1.0437868067382974 0.6495187654722621 -0.08584759189343924 -0.5446599225836426
P 8.857788535908103 1.290812710847789 6.077876586420067 2.7065545322493905 0.3667550104416264 0.6641856234558174
P 4.774345302338304 5.059427649279566 2.535243639089337 -1.5601358851865839 0.6910302544524873 1.6227455895980054
P 0.20887575133486808 3.742728726495107 2.4115882664778785 -0.7683073310680962 0.7437671798348868 -0.4796518931433739
