# total energy = -381173.56621113105 ev
CRYSTAL
PRIMVEC
9.18940774045819 0.00000000000000 0.00000000000000
0.00000000000000 9.18940774045819 0.00000000000000
0.00000000000000 0.00000000000000 13.44962710772637
PRIMCOORD
 96 1
Ni 6.039058234929522 9.051437993156004 10.033206750148294 0.3960576160604857 0.030374498526799302 -0.9894147467395152
Ni 6.795888668741105 5.277394172635504 3.1350941905298915 -0.9663712346564904 0.4588262146472743 0.6967548156410903
Ni 8.919064574354708 6.128149543175169 2.993604879229403 0.026607832395515466 -0.7378158473474584 0.802695835850295
Ni 2.6516219883339978 7.450872896334376 12.839955130900526 -0.7185366874028722 0.7847179112156356 0.5712811247155968
Ni 6.233074200993509 1.735704527359068 0.4620709904606394 1.034365857528909 1.200355763400894 2.8136018981488964
Ni 3.6746511861744526 5.278193651110736 11.99846635914734 1.1742786066978679 0.6250125528007816 0.43418270506698126
Ni 5.9448576159686 4.798359535447535 1.1333921471719226 -0.680524469825157 -1.2906112545540418 -1.9720667208339004
Ni 1.4734663980753089 4.661060594086192 9.628762535758666 1.833897950939242 -0.8297446124379709 0.2609042359533829
Ni 4.259336444393903 5.579165134108306 2.9923404167214502 0.10781021220745948 0.4285221643470942 0.32702272484901096
Ni 3.946363594860096 8.454227572157922 8.870150275782171 0.4734401079057072 -0.8435563215100826 0.5507896896304644
Ni 6.450615050926383 2.222936116270103 9.92347143736692 0.17049550705182248 0.8363232940967532 0.774591364304595
Ni 4.53908958487067 0.8027140657044491 3.1269441047864084 0.024965925916718295 1.1257089253192807 0.23268303632416054
Ni 6.385269172335893 9.114486519806173 5.09642716559254 1.5122411183878344 -0.7190406236224842 -2.2661459008773552
Ni 8.525252504744888 2.968399252680977 13.484865010765104 1.758510892257494 -1.0684543145721856 0.10799507452475596
Ni 0.7791386400928753 6.82556126640229 5.844185816062183 -0.605812325723247 0.45746584396463796 -0.04413709952853044
Ni 0.15145889978070545 6.384763754909023 7.9142984054990295 0.12628050309750508 0.5892114839417724 0.7065466049205316
Ni 7.826113172858644 5.7126504712487165 5.112848637261954 0.6669336185145998 0.25403913340243345 0.9392648653580018
Ni 8.303034246261518 3.5953741654178564 4.247418701468295 -0.4395015461767334 1.7906823347837157 1.2574180556315249
Ni 3.913998500724854 8.168666725976024 4.604574223518355 -1.5307780008497573 0.6762651803281708 -0.41362236441712635
Ni 1.7113066497528593 6.363968125145237 11.064254625201245 0.5133408007553868 0.379158783422618 -0.2579875765272202
Ni 6.778704476227503 5.67380684464177 10.058371024361794 -0.3916756849427061 -0.4354397174025339 0.3106815644868262
Ni 1.7554801328613512 0.14416710472212668 0.634129785619815 -0.8278517662906324 -0.012696878741378134 -0.02974843490702619
Ni 1.7837375617272992 0.4500659481612981 3.1550811524106837 -0.11319718755098569 0.8126051245442069 0.17464835287793146
Ni 1.6094880117578334 6.512588416868482 1.4718334403161288 0.3581888660391702 0.42469816261531373 -1.410037710844191
P 2.7728578449286165 3.2430430824424694 8.346408250894779 0.15973364054962813 -0.8090269202746453 1.5399123590508577
Ni 3.8420913849928073 1.6698256631184238 9.89333017990991 0.5970332939790363 0.3878941064130868 0.3813959002832529
P 8.72582970795043 4.77083725920249 9.069030195374205 -2.726434301892453 -1.3114891264443156 1.1344915566079172
Ni 4.805462947647007 5.6982874269178305 6.9517226455569565 -0.23627409610952857 0.5873348357443497 0.9378309611249526
P 1.8872929977892077 5.393070437534546 3.2344601755934304 1.4366080051335517 -0.14194160667352976 2.2353607971756984
P 5.900132768394432 5.992936597375637 12.450790144795583 0.0750561577048901 -0.027715720747713557 0.04247282445223008
P 4.830007855777397 2.8565549708183906 2.1464931088670864 0.7279885768443913 -0.3009658798609591 -0.4462645759321798
Ni 8.434644944218627 0.91906942783705 9.872644823039261 -0.2715640296600742 -1.3005881632610956 -1.409349940748547
Ni 1.4928560484516178 4.840851356935711 12.877573809452892 -0.4985176196996253 0.19856886824927092 0.7184078751344918
Ni 6.782747815642468 3.3941077566302162 12.207634739668906 -0.8383716919853497 0.9051033889849444 -0.9953879336038147
Ni 2.5170890587088013 3.203014022234317 11.35593745483371 0.17022374144767458 0.05456240862691248 -1.21474031425734
Ni 8.509299692871297 5.130483110755858 0.8390903363274916 -0.7844446029495908 1.282501480962714 -0.6915095080817509
Ni 6.595136866788096 2.065889137629761 3.853129701595661 -1.5935106039922877 -0.766033704542571 0.14095893104528628
Ni 1.8893238569044515 2.605141963877424 13.458907690661805 -0.9044832389024424 -0.45601625600230494 -0.31079469302592283
Ni 5.016001468865784 3.9326713772957826 10.633786008031661 -0.4327863389400869 -0.26660719987543113 0.25953023842399175
Ni 7.814075048691362 7.696257651783942 9.228636424076065 -0.3275652276160423 -0.3702213717236721 -0.5102701322498631
Ni 3.5643966718545683 3.3269331858952302 3.9206203879576353 -0.008855393508100877 0.5261667488754617 0.22578502365274666
Ni 5.057583538985593 1.6876714929908372 5.781026097578102 1.2299483894563463 0.6894770510327545 -0.9102365964464518
Ni 5.415510971287601 1.073910948614684 12.025002611939598 -0.8812057564317404 -0.7183829354338274 -2.4404528112554678
Ni 2.244264731684043 5.210201223084996 7.496754690345692 0.997317803636676 0.18743779133311592 -1.2284409516728845
Ni 3.9960415332175967 0.9235906164556017 0.5937919613108831 -0.4460378046333544 -0.343838253744453 0.8084234823626916
Ni 5.345892018088114 3.741329528890329 8.193943110964213 -1.0980019463223154 -0.2724214925643631 0.38743542160911343
Ni 0.7498409702683498 4.01932749248469 2.110851990864947 0.8776933724031079 -1.753394139856219 0.2134956647624323
Ni 4.275647643170183 8.101446208202233 11.271365497325062 1.364587806041508 -0.8801258931040002 1.0043310017297156
Ni 1.371188289692219 1.744057699014075 9.616779548037952 1.0451696330126323 0.6013584037169515 -1.282311733549411
Ni 5.056719734656032 8.382724790367373 6.685043275502169 -1.2348861930775958 1.0796887498354244 1.1662644781441398
Ni 7.478560581919125 0.07925772300029768 7.470998618272365 0.759847116115885 1.7049486427603215 0.25114329991187717
Ni 5.555502409123 8.454751368400316 0.06575205041353871 -0.31934746769194033 -0.2514757435506314 0.7108765997544532
Ni 3.6417622957968177 8.019127493476653 2.1316990813121954 -1.5809178549289418 1.2319867600426138 0.5599623572686679
Ni 0.6199422589771687 1.065392367619974 11.819922598931026 0.5597373857420553 0.1851975891486875 1.1828637772637176
Ni 1.0028768266199592 2.2393943455705623 7.03887590770575 0.8396356462994378 0.030122787527309413 -0.6831673067646429
Ni 4.26782745716533 6.564049100331672 0.7005627711484648 1.2323541706843615 -1.924226975642802 -1.5745757147609978
P 7.548243860972941 1.3338241577348384 11.71504205026994 0.325789109552226 0.32164474836654927 1.3495854190954049
Ni 0.09984567214867818 8.03284727926425 10.922065999970123 -0.07600000967539815 0.1516007270298486 0.5723039095531562
P 5.554078050920002 7.612707556418348 3.003584576058157 0.17464346778192502 -0.47784183651782863 0.04555172048786994
Ni 9.221938264758867 3.2734232645012744 10.830823451367559 -1.3638846093268961 -0.06597142179480252 0.383441727068688
P 0.3678630199735089 7.205368678583915 12.94632895832282 -0.2018614229576136 -0.4552960900068288 0.3812532040578015
P 2.1160633040063708 7.060332255887571 9.00463266366468 0.4200974306185088 -0.7559511234955884 -0.336862079536936
P 3.173626296213731 0.8294938378023827 5.561568337186224 -1.2532472120832867 -0.4509226435294815 -0.4238111320246701
Ni 2.840620537760324 0.8905776690731892 7.799976659304001 0.49414443033259414 0.7101808592390092 -1.2182496129621794
Ni 8.199828007694538 0.4516079307836415 0.3216329474080417 0.6685806671997194 -0.6488942445143857 -1.0319551912048872
Ni 5.51577659937097 4.232549320769761 5.086393251257994 0.5328063656791663 -0.2464248113902853 0.5491616671087381
Ni 8.138268165101698 1.5901443084203308 5.581729897814482 0.3874742452668488 -0.19202026849747575 0.8137832040127081
Ni 6.988581360087466 6.934814135276195 1.2656029134558426 -0.006604649800711206 0.3802499596042677 0.11497741937986004
Ni 7.131908552940212 7.861060490574807 11.976489890486228 0.25097232155165167 -0.8619769901091153 -0.41033675168731915
Ni 0.9746193977540113 8.731848770034071 8.328210466705109 -1.2456082074807904 0.49579276456929455 -0.016690059061171256
Ni 0.8712431551434479 4.65224795204312 5.514723493241527 0.29643482475982497 -0.5269581344285054 -0.1728380391420701
Ni 6.760831078131806 9.154010162587456 2.1439375345686735 0.014207916069265854 0.7814600663999702 0.8590145650466818
Ni 7.1996896245874415 5.142217984467018 7.559201310787496 0.3309040621812882 -2.0376347365426972 0.035667114384306316
Ni 5.514912795041409 1.3619529348921287 8.059191473434298 -0.2601133646209714 -0.9081892269991196 -0.2265098176339131
Ni 9.10072997638753 8.233148800236954 2.1527336356777744 -0.29042538534095147 1.129848401408951 -0.5135608871859929
Ni 8.509069957677266 5.308610590800585 11.92720985348479 -0.5862804263379064 0.9641006934547589 -0.45402725059673416
Ni 3.1804907838114103 5.842248688906103 5.199962384957373 -0.7291967382198796 -1.0436264568952285 -0.8767304942692062
Ni 5.622217509469921 6.741092230260568 5.038014695157939 0.5480476081089529 -1.4205013293796762 -1.794151524279239
Ni 1.0722476658098916 2.58979565291608 4.596181537409974 2.5432722551165554 -1.7850557326255578 0.024946642643008648
Ni 1.0231486601413518 9.178113979145301 5.686394495393176 2.148388347649197 2.072063093423896 1.0421922955518632
Ni 8.369905566540382 2.562980961068653 8.13621708928938 -1.8557775246211523 0.9552501850426645 0.7772812524319322
Ni 2.584796615093941 2.263737086730204 2.0849479693266635 0.07899945862335427 -0.21622231966497601 0.5563748970277256
Ni 7.503555771029818 3.2310968523528008 2.21402422862321 -0.2803258350131043 -0.05941922249858154 -3.0159824268347735
Ni 2.3056775437527035 8.82402771928751 10.530761719738354 -1.1608430500182525 0.7199194266830118 -0.09767183822187694
Ni 3.4740188465223407 4.276888213217956 1.0479233034657731 -1.044473378276556 0.8881194528324381 0.862963779502417
Ni 4.449970708401739 2.977717312150919 12.937492423819569 -0.3987706441162745 0.9430937521857886 -0.8799518294199813
Ni 3.9990740377788203 5.66787048722798 9.317901412128402 -0.12662168848700775 0.7727064885770564 0.1576461618929801
Ni 3.1905807535333 2.9676365318367903 6.306758548186588 -0.30936515966824785 1.3480643544651882 -0.7858311988844724
P 8.484322882576128 8.40431989860639 5.064981931174202 -1.8813348042649665 -1.3368962536635105 -0.3319489585060348
Ni 7.10355004058889 7.190353186301977 6.734940840705164 1.217733078337077 0.640245310590136 -0.47846481481380815
P 6.753066028573521 3.008703995121968 6.656193129835619 -0.11058468962880309 -0.04254610089232672 -0.34524336162209573
Ni 1.4632293978292388 7.561871752682926 3.8608772912792 0.9295615220273089 -1.1923580899073982 -0.5435021548301155
P 8.997505359005029 1.8727185970798115 3.0162264443153552 0.27429017034198566 -0.8262867357963577 -0.4305867601856068
P 5.7330693352942905 7.363830826019496 8.412930373678712 0.5189702311270223 -1.3106807716104074 1.5036322936729007
P 2.9961604535278155 1.0541261537046398 12.096029382408114 -0.15002464079198033 0.27308920805534903 0.015465185515134655
Ni 2.8427892379919872 7.54014799273525 6.78868601093781 -0.6168698690889893 0.6197582463803778 0.5583217363414513
