# total energy = -340866.57081646053 ev
CRYSTAL
PRIMVEC
9.24425603463420 0.00000000000000 0.00000000000000

0.00000000000000 9.24425603463420 0.00000000000000

0.00000000000000 0.00000000000000 13.52990313040692

PRIMCOORD
 96 1
Ni 5.704732015402174 2.7650678769151336 5.563347592076118 -2.096927203655427 -1.6788807420286764 -0.5839394369095555
Ni 0.4709809727694331 5.893000531480611 5.52453003704003 0.10857331562572915 -0.3458483421959463 1.1296131454696934
Ni 7.378219664703929 2.0107735708198673 10.022546466189244 0.17317562498714692 -0.6993102350730924 0.8051106159393747
Ni 6.637791742489527 2.0664609684854134 7.841512189824219 -0.6640452412232112 0.7329616045789505 -0.5917558476301809
Ni 6.815549539586269 6.5555825745878495 5.615775465104069 -0.7949496162459728 0.3922400420866084 1.0114406161913032
Ni 0.2124718269296879 4.562567219391408 2.9431196413501515 1.2580572318774204 0.45839349798522994 0.8608009675231434
Ni 8.141610318625041 1.7717078684578682 0.8280653171926414 -1.1037470763362087 -0.3777994411812461 -0.6417239520181915
Ni 9.151036843872266 1.502524380306635 7.139459022787309 -0.021910426919846137 0.07444577781440083 -0.06956325291111891
Ni 1.2373991205045338 5.8207936484849965 0.7078308269872703 0.08353334193796581 -1.123884470516032 1.672556085362229
Ni 6.073522361097607 3.5577905548722315 11.590540515776578 -0.13946614854984368 0.12607867149934412 0.21811053782662437
Ni 2.5629144884439916 3.628823417365932 3.387887602031201 -0.8206696467198963 -0.6218022733936001 -1.8104803433462497
Ni 4.717482460108409 2.142467240664384 9.821559702815279 0.3548032373963889 0.598880374490104 1.2424789178231892
Ni 6.935706378041909 5.816513557993771 7.954811639237975 1.094014165319161 1.6915082009847 1.4400229443523715
Ni 0.8230660235907944 2.3678052229843285 5.158613730510304 0.9334014645986893 2.2484212299040824 -1.7670017033373246
Ni 2.887092055066728 1.889747772307695 6.217206755296702 -0.33653066433944623 -0.5718171997247249 -1.393338138701323
Ni 4.9094024572754735 3.9974103894311126 2.1621870873941553 -0.1665797169371841 -0.5312554762522785 -0.4432635843223269
Ni 2.6781071614702814 5.324358617038261 12.460675517238165 -1.2140826260686832 2.3401916150398603 -1.7928785711040862
Ni 0.767629145260696 4.087652815727769 10.526400013012244 -0.152867252447098 1.0531806762425668 0.8182432966665908
Ni 8.282807083555909 1.1441707995455315 4.733937235647033 -1.6472638864543436 -0.8319439340821349 0.7628974729064345
Ni 3.3811420684859574 0.02587744559846657 0.7098682609921652 0.29476386481530525 -0.6844045216058535 -1.3316090371226421
Ni 3.830717966671298 3.5448023753038234 7.566124881524688 0.3810989378681243 1.560833682584557 -0.13923037838995375
Ni 2.4910219101496773 1.3798531042406 3.6389625172596194 -1.131294132716542 -2.0156877999579605 0.8662956720891275
Ni 0.7098599411618366 3.2444472561884092 0.7491535753778341 -1.5229371646490997 1.1624687585471334 1.248896391313759
Ni 9.155649727576634 7.304607654808388 2.394319597815723 -0.09102605077058516 -2.028317830017145 -0.45183050005573155
P 3.050253172064883 7.8262240393827724 12.271459464927869 1.1060520703203016 0.018866754997515892 -0.25969556035726243
P 6.374885104108364 5.99113755233344 10.551741291767316 -0.45113784486408115 0.11245979516432891 0.41443868967083464
P 3.513843362225816 7.059163415861191 8.441860977648552 0.6905348028733076 0.6772571119277949 0.6697788012728788
P 7.199315579873034 9.565956026611369 6.694352722339566 -0.8169307485027543 -0.8580208336748448 -1.0687625898412239
P 9.175598831853236 2.3767536627154455 2.8350422721059285 -0.33390556801177335 -0.639161590607654 0.47402194855110624
P 8.689683763644112 8.690303128790791 0.4270337801230179 -0.6003317622246499 0.46226969311118454 1.5029982596333278
P 4.444009637210028 1.9759597030229807 3.612606219204467 1.3619565390662478 0.6677697412626499 1.362766436562053
P 4.062563905159328 1.482473589214907 7.8436633281769375 0.5481625364202624 -0.8794314381401371 0.05987893574381945
Ni 5.018983866957974 1.7380033113714508 1.536604254183428 -1.3326349072839954 1.7656544452808107 -1.6264266379940184
Ni 2.1629617560402994 2.574340388761823 8.949571228041616 0.1172800993711077 -0.3805052701481834 0.1781298836686287
Ni 3.9004011678005948 4.305604637567174 4.938360088946676 0.9709447129597858 0.53052219763068 1.283335803938551
Ni 1.812964982631396 0.08505732315080584 7.913180132699664 1.4832215912270326 0.8164088145610132 -0.4363558014589001
Ni 8.391205228480576 0.2163035710087664 2.5248420204351025 -2.283570009891074 0.2950518283693693 0.800466432299144
Ni 2.6857983823961997 5.085597975121639 9.534076285643673 0.3749444882309543 -0.18894394356499716 -0.5280781069655615
Ni 2.849699039868001 0.6944876679915118 11.258124468277423 0.20183931147042655 -0.4425349336864185 0.4907981395681806
Ni 7.651359694389169 0.046291535947873115 12.248553123182276 -0.1759033083309551 0.6424490031096742 -0.7836331627918891
Ni 4.1119374760311205 6.711625614527161 10.617415259103858 0.060320651266928364 0.15584227591502195 -0.5351465837765688
Ni 7.757308111494884 3.40705371783133 5.2425940978463625 0.974025922988271 1.1059389417812049 -1.3013723497252878
Ni 9.196527827257418 3.771554728779616 6.904445077795298 0.7357203982710103 2.247331082163697 1.599639342597845
Ni 1.173410381022311 7.83742807755851 13.241716228988432 0.8791085075830796 -0.7583844155274293 -0.5727700505562975
Ni 4.442280961352881 6.029935694432094 3.1178037233533034 -1.7171163884711071 1.3795703954932692 1.6101739235805816
Ni 6.21850927095591 4.850461081525886 4.082052645491085 0.7209350124317198 -0.4094201534103207 -0.3608661557610172
Ni 3.976906629799277 6.434639974378962 0.7932135479464804 -1.416081860155742 0.4110348061956082 0.18862512677299773
Ni 7.630458431752748 4.289353235658803 10.009341046606703 0.5653094805131941 0.7010853246956442 -0.7253735078190475
Ni 5.129850228213434 4.431733265347504 9.398114542840627 0.6514470928432264 0.9580089787347242 0.13987161151837846
Ni 8.34307963215806 6.657574450159557 9.774109861600557 0.5903954769475446 0.5984790252866273 -0.7042776063806967
Ni 1.3754435941664855 8.275633540961543 4.0155808988685955 1.302944065087782 -1.2494772035178934 0.3783601987807226
Ni 8.203694741387626 6.613257487276319 12.327622017347732 0.8995667754374314 -1.0016521693459715 -1.0510929404756026
Ni 6.298509061692569 7.856360313683847 9.305082200107142 -0.256719508448074 0.012622316749700843 0.4138478501643711
Ni 1.011977939881304 0.9457890674899845 13.345435855991695 -0.02733905413458517 0.8238488157788264 -1.3768221433241707
Ni 8.300223261710274 9.30711686083526 8.601838372907661 -1.5541758109484072 -0.7199232833377537 2.270315715984329
Ni 0.6929651390413931 1.6354105591649055 10.658614134465088 -0.44956458683969025 -1.340972223505097 0.10889547485183826
P 9.363691707069183 4.489121606102436 12.719623765234138 -0.14073498795993827 2.2205890381831623 -1.4385198774442838
P 9.127103465293896 2.834547704414178 8.995599302695751 0.06554359022876455 0.020410445335551947 -0.8886552707312502
P 8.22689782374827 5.822420637527019 4.18590816305638 -1.5151212681491069 0.07849860772753578 -2.2191685036865523
P 0.9185758269109948 0.21496777602824327 5.5497770243847135 1.5694041978623876 1.843430315909709 1.4792862607283686
P 6.291298542074521 4.279166065634328 6.922222706356156 -1.0401922344026988 -2.192818552938114 -1.138130438912085
P 6.146875531827372 0.43928981462251676 10.677677639024498 -1.3348139172131848 -0.3768936415375251 -0.3290911773422655
P 6.013601094220437 5.942096774674787 1.7077034137405807 0.3911092709162748 0.29606535723554817 -0.466017590189391
P 2.8407506001368836 4.296212473551869 1.2152979534496222 -0.3126759692090357 0.5007814760331376 -0.0849361358227634
Ni 3.9582239885837938 8.658428934376648 3.0951821046900636 -0.4759034818445353 -0.07821090128378788 -0.749278082350787
Ni 3.0962895665493484 8.68980393897108 6.13384945080969 0.038156970685695575 -0.8690130710202905 -1.7626105162481644
Ni 7.575408887745722 3.804871027117369 1.9276732566474475 -2.1557717845974618 -3.5222146415698377 1.987856379567989
Ni 5.006799937654655 1.6131596351640805 12.62357502179377 0.15574997331153176 -0.9560875933422954 -0.6965604402420972
Ni 5.288435438530904 8.114561625801437 6.879143549340683 0.8214517763015595 -0.11848903207754431 2.8697789595610965
Ni 5.344215278755655 9.101801936839282 4.8475611584436 1.2933399663391145 2.1565300029197245 0.014425688507026769
Ni 6.721942204134524 1.8753267330715973 3.246351572908048 -0.9895294179405086 0.3225335787294058 -0.03483022030530776
Ni 6.287933632919431 7.595672296723622 3.290039001963095 0.8426433227775102 -0.1759578157179744 -0.9534360146520612
Ni 2.3235807026602964 6.239798792340996 6.8315587419895225 -0.7566162678834131 -0.10369978958351174 0.601685705149383
Ni 8.363666590093182 8.083399239093179 4.568479845478207 -0.208970266088253 -0.49404338597835556 0.5866591498335638
Ni 1.0264729331647662 6.6633521101099165 10.97697244198582 1.4283017992607014 0.5362917531246054 0.10875149307480625
Ni 8.07459870745679 5.58143212993354 1.1101759728232077 1.0635242242604201 2.5905800390635836 -2.246070727394035
Ni 8.405949816673894 2.6683452272181536 12.104622831775693 -0.36777599550697304 0.3930064879389877 0.7669101936102535
Ni 4.299401741844468 9.22098812842326 9.24799984422318 -0.7143966970925696 -2.7326867105600683 0.01718139687529299
Ni 4.553073368560977 5.697364343433476 6.895203595151498 1.5454044925136805 0.6154868726985335 0.23537909509908492
Ni 1.941534093974758 2.937916974118051 12.32261625276674 -0.7003895841802003 -1.109066431666593 0.7425502767086501
Ni 1.2412354867115727 -0.042122376527693635 1.9099353783870474 2.503853129888985 0.5088830220943494 -0.9204510750856083
Ni 5.260785869072463 8.25614664948097 12.138338481969216 -0.45059405654546913 1.0157253596095863 0.1795285637883682
Ni 4.127014857437579 3.804094509620041 13.02319496098432 1.9319883647557758 -1.3960665933760796 2.232454679272497
Ni 2.1901398684467908 5.730098253648233 3.9645461352078755 -0.10551473130506343 1.7080817890726645 0.352651995381341
Ni 5.431305413783396 5.917359145831328 12.617419271776258 1.34446532426002 -1.0316343175303586 -0.8768608491994835
Ni 0.052608136018402245 8.0490383398364 6.874056435307591 -0.6891731466390905 -0.2874616747269371 -0.12326845574405866
Ni 6.847913679564203 7.485406812103 0.33141489458295476 -1.5576550277462593 1.8197440280363626 1.6833876287600944
Ni 2.4622260529570847 2.178954318782895 1.439270559170098 1.7307373216886517 -1.5434509683317352 -0.4568963446144131
P 9.27448463743563 6.1225631387562585 7.736885701315148 -0.19057068053514278 -1.1668458045689065 0.8394597828432058
P 0.9192608262747094 8.944547899374374 9.65717094863087 -0.6179592454984261 -1.534018619274242 2.6912780657062942
P 6.281887889547375 3.591411913655364 0.24818423640205461 -0.6973729088410635 -1.3102688808839693 -1.039138596327204
P 3.3929932045761344 3.5126416089561414 11.03939982664306 1.3323297173387505 0.7063473444255318 -2.7465719531825923
P 5.9290346410590145 9.265425266633464 1.7966497953571727 1.3079615729070313 -2.7562675832038015 0.6141745816450133
P 2.3836868546558767 7.276523605321679 2.387513976606995 0.032131847537538206 -0.5912439409907688 -1.310220801254853
P 4.531654427593003 7.0172037382377 5.130755240868059 0.02306176691546996 0.2831319370033318 -0.8408209248567906
P 2.076287612528985 3.9940177475082614 6.173410244021792 0.004150274722947691 0.2876264824395756 -0.3573864247425329
