# total energy = -340863.53690933937 ev
CRYSTAL
PRIMVEC
9.30976384231450 0.00000000000000 0.00000000000000
0.00000000000000 9.30976384231450 0.00000000000000
0.00000000000000 0.00000000000000 13.62578042858086
PRIMCOORD
 96 1
Ni 6.885734069473788 0.5488366448549932 10.213121862742154 -1.3634886594400581 0.48363093239578 -1.0657633980035839
Ni 5.448539278904222 7.418643570376027 0.6828423163363692 -3.0082290081416 1.4779721699026354 0.7710612396641495
Ni 0.7036040206437323 8.743925689998635 2.4111226995103183 0.45461089101434615 -0.6704663142582066 0.967649587148282
Ni 5.343320328147834 8.723453519346247 12.207554429042892 -0.146133019047058 1.4948964564617997 0.5309595422784146
Ni 8.595118425011014 1.3744097433300455 2.341004351305409 -1.383025186811089 1.7046370250571738 1.2889312957484578
Ni 8.089756515268583 4.32707581871442 9.240690963824552 -0.41074478575901513 0.10767085841611779 0.1636221769707569
Ni 9.176066307253102 8.999143555512314 9.940047870211068 -1.0289104908412923 -1.2988038176671632 -0.6996239096587692
Ni 3.570210639224705 5.143327981647329 10.754160649416864 -1.2814943798544383 -0.005157375831223375 0.3198778862741137
Ni 4.241258415770482 1.9665665812180964 7.146081614855345 -0.41448754063089904 0.45120340799469383 -0.3293038075737038
Ni 5.040361993736726 0.0005613787586807767 8.118376591221095 0.7619006562108039 -0.31578828958577226 1.2910997641546862
Ni 6.9451396724446335 4.295161948320428 3.545237197762662 0.40082366999056135 0.12776865760725736 -0.4169154333461013
Ni 5.008988089644616 5.826580858568405 2.742992505481678 0.19213571102941748 0.8453460664206538 0.1451734833472661
Ni 0.05284780533212764 0.6495943567861757 0.5551384239885092 1.4033713545676088 -0.7792118937957419 -3.86670107042125
Ni 6.811619039658569 5.774353083507059 1.3234955759444849 0.9200648953907831 1.4422518336828904 0.29356315963898477
Ni 2.0016085322574737 5.112270609525288 12.730361905218023 -0.11349414996611422 1.8614545204012718 1.5807746444828583
Ni 6.160866548252495 5.8082871726511955 10.681317333340216 0.7732075965831909 -1.1905282357875109 -0.6839085558060415
Ni 2.2223151032698314 5.066969298750152 8.001289553539895 0.49834715556003206 2.7540070693043988 0.6891464071662131
Ni 4.098167345771751 4.302656308199997 6.647173233396787 -0.14468240264346052 0.327722579129513 -0.08086376552560268
Ni 9.213845328857191 4.539748063545326 7.191741351537765 0.16957916588514022 2.02961058068664 -0.20493620522819544
Ni 8.275020815397065 8.625784787052382 12.317691728028318 0.9874223988998349 1.6191810121751984 0.13876963670345133
Ni 2.7779869767255447 6.897641257406669 3.8927353042679758 0.5621369963224835 -0.5509475553645673 -0.22124111303580607
Ni 4.365413426148042 1.0193725900788 4.85432032832881 1.4766570506356376 0.08018910805608126 0.9609603480535643
Ni 5.9258974190593925 2.4112474503455807 9.028401350286876 0.9538193661334088 0.011897008547902092 -2.112777797534439
Ni 6.485972810804592 7.366853354214482 8.161352322992608 0.04154002822531556 -0.4945234109385678 1.2587128631835485
P 1.4094144553141204 6.934191390185785 6.5497493478915345 -2.391426501955436 -2.8401773346445798 1.599785381257406
P 6.35866179049017 0.4030355026066431 0.41092366549603315 -0.5379670839444992 -0.5688228929830914 0.8854866431952814
P 8.34934996978027 8.55741388151753 4.033912286824174 0.4300686828986077 0.5070390269070753 0.10804135438165909
P 4.695770395497749 3.7848844832781054 1.437383778775226 -0.25982437262564284 -0.05108627715285395 0.9773544731408715
P 4.142938000008829 1.3386602502399263 9.854818844340905 -0.28966768123932046 0.21454467485223697 -0.18358679301814188
P 5.55835725299043 3.076830395525759 4.716713640199711 -1.5222028575862365 -0.688898295711149 0.2759757855745247
P 9.027138015335748 4.69484872887902 4.20405753049996 1.1133576028427794 0.17808411803235782 -0.3195179318315336
P 7.458498669313214 3.317618127109832 10.988646601867423 -1.3493391074125536 -0.44643118341703114 1.4289895693563455
Ni 6.743918437119157 7.117174798177007 3.8965234471685926 1.0916382088878167 1.4350278051306253 -1.8654474436107484
Ni 2.7656515396566883 0.24950539443031983 8.17631311346027 2.257550703009177 -0.18046675933192147 1.4090167257788444
Ni 0.8968924062134572 4.184394378324011 10.884668642628982 -2.1694099442061865 -0.5502885816243297 -0.813806858161792
Ni 8.751271093656996 1.536967529488006 10.973440033634766 0.30162793892499024 2.9130434266766865 1.7507199354581653
Ni 8.431350369555732 6.643456775677627 9.884018918579748 -1.1518693857647324 0.3320723714577765 0.6017669520092798
Ni 1.6574079440991705 4.957691290965825 5.438662550461693 0.24767745285046378 2.693755580712509 1.0142675441171372
Ni 3.8344869049406456 4.3447364406914915 3.9546787488576673 0.8884557531259344 -0.7152364193850456 1.7762671877996508
Ni 3.8334069723368813 0.41243370918853767 0.7054855239128763 1.511268984282552 -1.907550543428386 0.2689620732608529
Ni 0.6810669443748364 0.3182216922031006 7.712818142617727 -2.183940019501561 0.7355532765655268 -0.12348931350561312
Ni 8.278996084550576 2.4786315209149246 7.618133189629952 -0.7397315763129325 -1.4563008555767887 1.257390287717383
Ni 3.0658541839754334 8.06952639847566 12.700821093623166 0.0925435158563761 -0.6893037586796839 0.3365406916417752
Ni 1.4743686775249956 6.4151999862027465 1.576543335510427 0.14744119633552027 0.3469176640007251 -1.0951840172575462
Ni 1.8162883735460382 8.0368956762671 9.73420340616982 1.6838177743189777 -1.1614171773541675 0.10131971938710939
Ni 3.389601221008999 7.005252817466222 6.413014053656507 2.2096875607793107 -0.27393458677477983 -2.147451180546908
Ni 3.902904359294626 3.8071813676403017 13.021422361460079 1.1006329561872594 0.19160554955756035 0.3098616396886922
Ni 0.5546208011198085 3.7201630051628687 0.7744652880019202 0.7242460790828237 -1.46786850580973 1.2035740132278756
Ni 8.74864574025819 3.0244071154240766 5.548172371365277 -0.8515691645122302 -0.363619035915806 -2.2005912549049973
Ni 3.6103077920213567 1.5813285541167608 12.071855311521649 0.024664592626215585 -0.884646149571857 -0.594111492346551
Ni 4.294519574616464 7.222002738852721 10.64507256081458 -0.255349881794057 2.2351072864039954 -1.2477584210545738
Ni 1.7228369642651489 1.2699262639158768 10.443207089832374 0.4412020738076079 -0.44366673329801654 -0.1380857232625493
Ni 1.805656623257258 4.448633404984649 3.1088308467233285 -2.055223139048422 -0.30702828400495513 -1.3844935438264994
Ni 8.98640779859896 7.389029211646947 7.6642695862202395 -0.09883551951267495 -0.018031660690730235 0.33062226927481125
Ni 5.049811404019661 3.4475451910592336 10.7984853659667 0.4110510041455243 -0.533723735287113 1.186475405874376
Ni 6.250463715309606 4.388659906420445 12.806475741326588 0.9684219465379321 -0.06840214272348219 0.15900781812719714
P 0.6109271837131287 2.5901438720173853 8.887497143810766 -0.10906233944700572 -0.40954433769301085 2.6534450540189205
P 3.743111572992854 7.244625464948811 8.37465018395259 0.5751740320120997 1.6680453419760692 2.626718950877986
P 2.270223147916121 1.0131257385518546 6.252789294313229 0.4560519943362468 0.40213390416155265 -1.5614399487099884
P 6.7179255765182155 7.916846271736609 10.812125100947515 0.7375358542131942 -1.4423755037449482 -1.367583141224406
P 3.325792099748667 7.749270522876675 1.954740388230498 0.13057810203159448 0.34288026070655786 -1.1549693648462949
P 7.115303535648071 5.589423934876297 7.130139575280471 0.9286397815439877 0.8906360486067049 -0.35021356114317753
P 1.255607847152178 9.068054427349049 12.092675667341112 -0.39191042666133147 1.2138720527197742 -0.7404861950907698
P 7.066166602176808 0.7583184336228831 7.637822409144611 -1.5884375603447545 -0.9144411214461026 1.375246828417251
Ni 5.490880084782831 5.9402810041698695 5.1815845941356695 -0.8583995571705023 -1.491223892706219 2.025006763366042
Ni 3.8525571565260415 2.1455654102919817 2.80633893147988 -0.004415355458876267 1.0539250106077591 -0.9900405532489722
Ni 8.32708101470955 0.4759421250773047 6.011899155327074 0.028930309881105013 -0.5761934744155497 -0.8019954673491607
Ni 1.8441524966759149 3.0224148259654084 7.3366785477031025 0.9573942279688609 -1.52159761990207 -1.2190422840668038
Ni 2.6746579080257447 0.2059496643724755 3.61268457472602 0.114087560575739 -0.5585366805657349 -1.3493319083237019
Ni 9.064274663235874 6.564221375758355 2.938440756258931 -1.4737352490031521 -0.4813290237354807 1.121246261562237
Ni 5.397298338808383 0.1814491589127707 2.5090781725300095 -0.24604505945336339 -1.14226297302322 0.9906810150464486
Ni 3.4332640133508376 5.577507437179591 1.1101744405749374 0.9582051539059304 -0.2515163669805797 -1.338454856399882
Ni 6.969410226737848 1.4561215404269139 4.09833492152061 -0.208110489191119 -0.0021165321223705486 0.4496036676077418
Ni 7.829502067525282 2.488807092776253 13.403339595804841 2.1816568798943394 0.48475630424947486 -0.15728749300198072
Ni 6.154349713574609 8.588312987654536 6.120005994822148 -0.354827405766105 -0.5052986471772006 -1.0441561041464535
Ni 1.3449443408221737 8.350737124590278 5.178736737381433 -1.056590216144748 1.8041739415122477 -0.5999589522662635
Ni 0.4452245593348964 1.1106455146245102 4.305651259222677 -0.3114904335413668 -0.9751829194108497 0.4251182808718678
Ni 8.510567149947352 6.386786587007162 5.466104010313889 0.19713573534717016 0.6245708372776728 0.07877088755231595
Ni 8.901009335027172 5.274679439462041 13.230796156967592 -1.0996852475620094 1.6406636075290069 -0.3828575724304439
Ni 2.283294056327196 1.8780958955838771 0.5933847957366414 -1.4812904356425909 1.6362503089526594 0.1668625382849255
Ni 6.495152237936586 3.6322602151220083 6.556943933375921 -0.5744322687500688 -0.11187666896734925 0.3506730172780993
Ni 1.685486191797035 2.8706656756089135 5.041688635081867 1.9870547096023006 -2.054250747832824 -1.4756797743240326
Ni 5.985619554000307 1.7948107484004903 12.537925363038337 -1.5176316932757863 0.040288415206401584 -1.632456646238182
Ni 2.7157512055517308 3.2902939702818377 9.684033088913921 0.7935347381763173 -1.157379259839368 -1.1459329656756394
Ni 6.992107430944544 6.8700564271915585 12.740118537707204 0.22617146045788789 -1.6384779127315974 0.2070542800124628
Ni 6.398191047693463 2.248643115368492 1.7489778501109159 -0.7221485731238466 0.30755304616017354 0.2363535431972123
Ni 7.469940369054818 8.302037750018817 1.6283084153096432 1.0312162561563336 -0.008851022632726692 0.33049448544769533
Ni 0.8724105202814035 6.96572356026293 11.797064598541128 -0.5500674667524591 -0.3461540463618232 0.11844635176506699
P 7.610983291011928 3.9873439171923812 1.3043211863693782 2.0939889469627095 -1.8226555452562028 -0.3930247427714328
P 1.982300082083279 3.112356454284065 12.305987492946834 -0.10793413937983345 -2.415657606588659 0.6726152422804094
P 1.095694033920674 5.960883511515816 9.74639826580491 0.8404344880516493 0.39543155244071254 -0.655261067272678
P 4.7450097363710935 6.153995942549238 12.52507602700631 -0.45180504613443473 -0.4766696705865984 0.5332532234085977
P 1.4296818111623468 2.053678041333785 2.6866088518486055 1.1211192490660693 0.8276923578946327 -0.8966999954125975
P 4.7640482033943465 7.991482648326058 4.354581515937012 -0.40278902124704824 0.45697990546715495 0.6389836702688931
P 5.238920636608095 4.746350342361972 8.936836099157043 -0.9326622724398196 -0.6473274142478981 -0.5278996724061682
P 0.012355918549272416 7.6137948396872455 0.5941109573150344 -1.0053643280902362 -0.5187961674430034 -0.8019710418691285
