# total energy = -340867.83844068233 ev
CRYSTAL
PRIMVEC
9.31012369755039 0.00000000000000 0.00000000000000

0.00000000000000 9.31012369755039 0.00000000000000

0.00000000000000 0.00000000000000 13.62630711308961

PRIMCOORD
 96 1
Ni 8.000794424278093 0.7060965370560988 10.07902536634846 -0.022021755686729816 -1.6560012663273416 -0.5166053304392716
Ni 0.45790632935407705 2.047082061320852 6.8002353572931575 0.47826838253228593 -0.3994617566460282 0.8556127384539846
Ni 7.129171336538495 7.314601069595284 3.126419594124304 0.5705396185638819 0.8421077619890143 1.36144437531652
Ni 0.6032615661027044 5.971867104106044 6.33808640458446 -0.7952751179061917 0.25689305791146083 0.24486595154359764
Ni 1.046457900064417 0.4382908298020689 13.811079677097947 2.0707608296727047 -1.928291375520163 0.319854746345662
Ni 2.3636821267086687 0.8750547993229051 6.185444134042412 0.7359505120039455 -0.30542931494895137 -0.009506653938854595
Ni 6.405029917792852 3.5405469289634977 2.5858915033082015 -0.5173908024550444 1.0738970828543117 -0.23566037378492963
Ni 7.167631457402962 5.0644652111178035 11.529490496827071 -1.405993108461172 -0.47467320898185994 -2.159484457562358
Ni 3.1352306951618574 2.583354494609202 10.338878365966949 -0.845836118683195 -0.24343564685497432 0.09370128360990314
Ni 6.467947733528041 8.116333058973817 6.428578013581401 1.0026428153940152 1.5223800065940492 0.9626732169796131
Ni 1.36943540016348 4.514581377029684 1.1207638590679234 -0.1794192919040136 -0.6006960875426042 0.5685935505811045
Ni 2.921293363439613 5.99978816498054 6.855503975424319 0.06773776966660593 0.12795017749044416 0.1596266826581186
Ni 0.22370830650976728 7.3968001514428705 3.7045019307721665 -0.25522724017326365 -0.3702429689902269 0.7406893122405115
Ni 5.3472602174741795 3.864837156499474 13.329975312605164 0.7746098762473563 -0.15601711092998938 -0.6512820280202719
Ni 1.8062477823273795 7.8847809732754 5.282360276410487 0.21783234446457325 0.9027060923973614 0.6367889766104194
Ni 3.743256251544481 6.6151500988120135 9.991680579150648 1.231575126426492 0.7059691351505067 -1.4545468490001594
Ni 3.6852541811049675 4.36290084226234 8.721654024431453 -0.9309751145453837 0.22816560806978126 -1.0815227177203695
Ni 9.37250149461609 3.733499241942457 11.399141317403387 -0.44266477439606344 -0.703657970518827 -0.6193995774893784
Ni 3.8870883520613417 5.21743985307473 1.1562493954210864 0.2992476116182718 0.4458976795110643 -0.6119063544361267
Ni 5.986325726159426 4.710699132055101 8.950930715905887 -0.5644743862064086 0.36955699866679576 0.31344498616457633
Ni 1.1161441757048276 1.6832331183278144 11.641839483154806 0.016526279789797343 -1.1509553585908952 -0.7653276796144819
Ni 1.4241323767015444 6.79433273888888 0.2893167479844465 -0.49952137837379135 -0.08227607249209702 -0.6852007922549038
Ni 1.387515660322956 6.176587413398896 8.99845889722109 -0.30140193895711315 0.43818694113036794 -0.9523085859158373
Ni 8.32274781077389 2.343255715385347 3.531774930445342 2.1763231263862517 0.2895486391629529 0.4253460806119578
P 4.840463635712555 5.012570581803221 6.261138232484528 0.598498308560337 -1.1990828102257414 1.0098159361036867
P 7.835763172173628 1.8102045848854522 5.703522340691751 -0.18780982996055398 0.2771993735689807 0.3622594365641181
P 0.19538877234236565 8.85239143601201 11.258368523523194 -1.528112538202452 -0.7490225146965551 2.0953680866984237
P 4.779445085205241 3.9415525755077554 10.648046159632154 -0.07265011936655874 0.32376256604050047 0.6157545245376235
P 2.576101908273346 1.977135102217792 8.334585633015276 -0.039083596265023016 0.5108254905327009 -1.0595480132214914
P 3.139653003903232 7.892685268267879 13.433862327532822 1.282831610608623 0.5296976448468556 -0.4794431195666775
P 0.8751004189288686 5.008343785658833 12.746143043581146 0.9861725856531339 0.7531133969364772 0.04301944098431946
P 4.534700554272026 0.7505030339060743 5.285386066601955 0.19282193846316467 0.18760182771480594 -0.5911976611338656
Ni 7.923883492672824 7.384622509687673 13.13830779669212 1.1823336157918605 -0.8539962858964841 1.0444826342479367
Ni 0.6556077364150904 4.633415795503191 3.4283925242203837 1.6758064739787268 -0.18756120428485762 0.1909514609133292
Ni 0.010997118074342432 2.3632352407726978 0.0618629787238259 -1.0488203423913423 2.554657099914729 0.2987112794988275
Ni 6.458898293324637 3.4786346065842415 5.283682313971067 -0.624739244534737 -0.047867513105240136 -0.22002652390241462
Ni 3.2936424493397576 1.6860447756749626 12.502940269127029 1.0919194875736613 -1.4419705549970456 0.9812049572352133
Ni 7.437615733594849 3.198949181532327 7.663134859157664 0.4883692184117138 -1.2132205351787042 0.33573593635229276
Ni 6.544961076493636 1.7736530393725263 0.9197648062043939 0.6080129329189916 -0.08285199960022506 -0.670434946799639
Ni 1.7592037274428112 2.658170648389608 4.572266903264552 -0.19116589091698044 0.6927081563755424 0.0042423202161217255
Ni 7.175721954868763 5.341050364988922 6.4866266346392445 1.0014061147734366 -0.19878509802513505 2.4653408327463993
Ni 9.286066306500448 6.179157007530727 11.175370633065059 -0.2597485250823849 1.1822533973732283 0.17019931596764237
Ni 2.683131089938297 8.962437097744763 2.5373271052289663 -1.1994003414661603 1.4478432117277387 1.4238440205996639
Ni 8.924693856402582 3.8344675331008076 5.709586024235452 0.1655546181067794 0.430743083257813 -0.528049053499839
Ni 2.372051927884451 5.0061652167209765 10.738606663544223 -0.8988509803173295 -1.5602716394335 1.2897915868662237
Ni 0.3413026165109562 2.357965710777712 9.283466919972888 1.330438670963625 0.6715595473223853 -0.7465995070773593
Ni 7.915374039642052 5.047315963324933 3.8016847256479 -2.525116153032819 0.8343821112099824 0.4329706870367511
Ni 6.386037265514102 6.289053707284823 1.3595024292241673 -0.15803054181559234 -1.1590841583456168 -1.6741239440699813
Ni 4.271317155759371 7.599947049836158 1.642815078456376 0.9125223071568349 -1.0772809117248803 0.24591907539846036
Ni 5.6647633648576035 8.694947934695378 9.483500513012245 -1.4486397394871051 0.6545254746582341 -1.9671258318888571
Ni 3.775934785612329 2.2355841351874384 3.307104888160871 1.256680920355184 -2.3529921092386377 -0.2440007753298249
Ni 4.015316685313897 6.058283671974354 12.285083375341378 0.12393977077947041 -0.0935902119533356 0.910365151604516
Ni 2.1642965182764664 3.673858589737718 6.684793547883561 -0.8422157483217882 0.36608729495064046 1.5038140706664038
Ni 7.941237563186348 4.976000416042963 -0.04114050546792395 1.2833856833398802 -1.6846176445124537 1.7653119743397274
Ni 3.085179470333153 4.297376191900655 3.125179485651986 0.02366726170995279 1.113432936165405 0.3244922451176734
Ni 6.778179674328277 8.434608946621523 11.476525203290894 -0.9405604442409736 -0.30045371611123095 0.6710666668463668
P 6.292219149331281 8.985181729860932 2.139193631835686 -0.3441730113760524 1.483074524126207 -0.20312152061695984
P 5.266727647762816 0.29563273587949723 12.853968240819546 0.6497864173113519 0.40093217054396757 -1.690291297858463
P 0.9332281760378738 8.679483819286062 7.2503267688419495 -0.3139597210174658 -0.5528280602167318 -0.33067189156582405
P 6.259875779715411 1.5313850013344812 8.7887632578411 0.29148339429182063 -0.25621300112530065 -0.38555620230852955
P 7.537559911149934 2.500652666083648 12.358597042820902 -0.5683747497020792 0.587075411435376 0.3003413589030828
P 5.123128300337607 5.7071989085274755 2.9629859592409336 -0.2646508474800087 -0.5518888362319141 0.5995668590341675
P 0.7879772126743064 8.269363561672739 1.762113141088453 -0.39987056204867266 -0.1889747968029326 -0.03558329642124839
P 3.0468776215710087 8.617739079132797 10.14231931107976 1.576353632597027 0.21778117951166362 0.5994997532416578
Ni 8.12745865675475 5.267649350005756 9.32670313427804 0.9620494673526852 0.004953744460849533 -0.5356281513986776
Ni 8.25107847879261 0.36365063735895115 7.298768273288793 -0.6475161332199364 -0.30905688439920964 1.0066545076565696
Ni 5.034970739343746 6.694695795414775 7.752510184327044 1.0502501328593332 -1.0615218491184104 1.681369569888801
Ni 4.127075409801204 7.950948022170042 6.185961776918246 0.5945005002548536 1.6147898250860386 -2.670377310997885
Ni 8.903634356669968 6.375973021831099 1.767373360959773 -0.4419137551626518 -0.861330100553736 -0.7190239114519359
Ni 5.27006998215893 1.3780472645545796 10.827859095081212 0.14637907361959304 0.5283210762143031 0.5474649961326055
Ni 1.2376692199178243 2.0933999265594685 2.1667869763571357 0.5963771484522762 -0.08984514308860655 0.20738312410679124
Ni 1.9308544774738399 7.319535435138292 11.593057228181785 0.66020401310025 1.1177472472700425 -0.3842397974899512
Ni 8.428119790426283 0.35814276819811386 1.9859387551564123 -0.22719064575102163 -0.1646066523712133 0.06533121710764232
Ni 8.17348790815972 0.3840705315957063 13.065270807544294 -0.5155802316088669 0.5408703736342233 -1.004146139412419
Ni 8.57941861012332 7.754411311579652 9.030657959920136 -0.10272611281633276 -0.05348845883644336 0.026771354556573247
Ni 1.1254915398655454 -0.01913975223267285 9.444816018167428 0.5601310216360483 0.9320182110979175 -1.2086118327620992
Ni 3.0542233091435254 8.498513635465315 7.988803916008583 -2.273336505088524 -1.362962354622943 2.0132215978056553
Ni 8.268469789800799 9.143816927006817 4.663126262146301 -0.19089001154777446 0.8955345143495866 0.4381895122335292
Ni 4.512179365123842 0.593991475968415 1.1432813241666404 -0.9131239452965757 0.6738748257191233 0.5859032455041457
Ni 7.576196924364056 2.873132093715118 10.159910789746766 -2.1069272522909324 1.7532095346492387 0.2420372238455509
Ni 5.928081592504596 6.444579323126248 5.034062071273939 -2.3619608883961516 -0.6230729125759076 -2.6476708705393044
Ni 2.8685142723767556 3.8915385911737155 12.968578656185764 -0.7989140002103595 0.3528473992215988 -1.441481531175769
Ni 6.39224711799936 1.4437674275132513 3.9582921778593194 -2.699211204510442 -1.6248209840697954 -0.10254510715377824
Ni 4.1955886098596915 2.640844508247082 6.164718867749411 0.200642462948848 1.7945657289985222 -0.6635446474377088
Ni 4.9379778709908 8.617757699380128 3.838612400156934 0.3200912878365003 0.0939851333989091 -0.3539750850681388
Ni 3.6228856626660746 6.6724445998529065 4.316528047294094 0.01919379931963146 -1.4663497551723585 -0.06780821789322515
Ni 2.16353308813585 6.593448200546443 2.5712299205589004 -0.29114349445389853 -0.31527201207098604 -0.40267692114921616
Ni 4.581344273838954 0.7022886964766828 7.431787596179899 1.610974565105006 0.5666994188821853 1.320711416373532
P 2.152435420725914 5.016713586834615 4.965031228339619 -0.2810308314999289 0.476722892422037 -0.020545171141203328
P 6.649588246252746 6.882862704829383 9.686737719605095 -0.003241646865749256 -1.0938079628456259 -0.0897250725709745
P 8.699128180221436 3.607877743316396 1.8749797702920197 -0.4844423725534819 0.7978603621348646 -0.8438334864308693
P 6.0785983618136825 6.30149203250267 12.852673202617597 -0.3623059735313373 0.33011087685603147 0.1057625856498114
P 0.9504612149437389 0.7761552176431515 4.0555299024646825 0.3616156323325321 -0.9792318926692425 -0.283238380674209
P 8.00549603672945 6.945752590193575 5.296436252381193 0.9808486023370592 0.43616759670749394 -0.022533919436457963
P 3.472415443975318 2.932791366167189 1.122448991451479 0.3763732502576808 -0.6721732696469844 0.8331819202542942
P 0.3748981977599104 4.427485170133753 8.194711266068856 0.5139979747234116 -0.8315618681523679 -1.4105629872200418
