# total energy = -340896.47468009137 ev
CRYSTAL
PRIMVEC
9.04507423772927 0.00000000000000 0.00000000000000

0.00000000000000 9.04507423772927 0.00000000000000

0.00000000000000 0.00000000000000 13.23838043703802

PRIMCOORD
 96 1
Ni 6.591896273186888 1.9156472088426568 11.50848109822425 -0.9074340940006501 0.6166060739046413 -0.5849812479105087
Ni 4.644347087822372 0.18579758160716403 6.1116037404074515 -0.5023753028828187 0.7654294952996689 -0.9446652104379666
Ni 2.7366414540821236 1.5121826313734041 4.8356232708413005 -0.4228420832431814 0.2729143730403816 0.3717645478410759
Ni 3.1911473849715213 4.332979455333435 4.9542123334952395 0.74267780342545 -0.2652278030294013 -0.5637693897195839
Ni 5.014236350052288 4.697269816665411 2.7946086207777965 -0.43555258883131437 -1.13422904697515 -0.8207364954020898
Ni 7.062439120541627 5.9330530722080885 2.578306526604721 1.3169650619572224 0.3208145391557701 -0.11675739409841827
Ni 5.011884630773671 4.747678014895159 11.649986760740902 0.40477005623281903 -0.3575494326829584 -1.1306215321295496
Ni 5.770693991242006 7.874722959376061 12.111529759317854 -0.35010171815566155 0.3047909100340041 0.9680833322515907
Ni 1.7863569189635935 6.556801385490599 0.3653703431853109 1.5338880072336487 0.7930917371016276 0.7533440248900445
Ni 2.843065796513707 1.5604833273265453 0.3139120118469187 0.05336710276723067 -0.31129502970110906 0.6614049753868867
Ni 0.38457303560263645 9.070943060593075 4.696064108281413 0.795028034892392 -0.0968907370814783 0.1536000168480645
Ni 8.56504301839174 2.3802474424818123 1.3584697367858996 -0.22565466872246942 0.680652510762589 0.807442606506661
Ni 6.806336891100197 0.7242825034285727 4.722116635351419 -0.3370834515191227 -0.05518590114352432 0.1517141126792613
Ni 0.8687929395773645 7.3543055731663385 2.4753392115127046 0.11366744231918488 0.5774160339687411 -0.039006463170184434
Ni 7.488344526973378 3.8199066693323167 3.8031352928461155 1.009274718888236 -0.2724862843640275 -0.5447401410022747
Ni 7.790721355758679 3.859704995585841 12.57016024401898 -0.5663140105183085 0.3648824760092619 0.023713798677172063
Ni 8.076690420038549 8.833482728971763 6.940790109303241 -0.8658015060615283 0.5249773565530508 -0.17698111477616615
Ni 6.881320555791497 0.7703345939483895 0.4504673052820799 -0.7446079305686273 -0.8590883557074108 0.12488362274997847
Ni 1.7133812607332675 6.646899369084089 9.18793928568946 1.3799905137498234 -0.21995658989642766 -0.3171550880263118
Ni 0.08821479915576666 4.824615415602541 1.2765105109112551 -0.08838604204457681 0.30955002198554427 0.7879847548923655
Ni 6.366673926888534 1.8780558806813734 6.942723041648781 0.6741337358074648 0.3678240751360891 -0.059896162135000076
Ni 3.484976618686463 4.385748417915949 0.5172832680172583 -0.5161355898917046 1.0049195272433338 -0.09268595497151133
Ni 5.9733126972431885 5.338040959495452 4.882738157573569 -0.1665288090945906 1.448037587126732 0.2817445697375019
Ni 5.2002482999167725 2.8715577800815715 9.224291438692395 0.2915558994009688 0.16724203311153132 0.26607703840357405
P 0.19216350479289826 5.807579803619704 12.499969564118986 -0.5918640910732711 -1.6096116233192086 -1.5314513727676982
P 3.9760246491359146 6.353513344002426 12.656407739547443 0.10383425827884699 -0.011593875485186483 0.17791262545150005
P 2.4778799728410266 8.548011143770061 1.3905987446688868 -0.32634498205569606 0.3996239932555053 -0.9995315234585431
P 6.242331292568716 7.856406684225291 5.744768999717494 1.6133721188029053 -1.055752293624485 1.1557741201357772
P 4.785079396499325 1.0607610707686546 12.563156643105776 0.26752302682148116 0.03492663667385598 0.8713399193812542
P 4.110163098758589 6.078461684219829 8.14585357951527 -0.2833620507362668 -0.19294586563553867 0.4033397515441957
P 4.687338325250328 1.0136814598255648 3.8609866825926873 0.3324161279504404 -0.26535790084936234 0.5825803517785
P 0.14773319606791246 5.618791015991621 3.489822064907829 -0.4374955714902981 -1.0312856759416886 0.658206265943931
Ni 1.3749869466885272 1.1646889727352445 2.443845167834944 0.41696505563711417 0.5274690126266528 0.526803611128512
Ni 1.7580367918045516 6.509794135140697 4.80815338065222 0.6185102329058896 0.03352538545095517 -0.4102279940235968
Ni 6.080198338456347 5.534825592670834 9.168041931577527 -0.6068587647098903 0.9087625830040865 -0.008074549478018353
Ni 8.692424797625463 2.324810183025482 10.213543057750199 -0.18694542507772965 0.18025181510763794 0.27031575907526995
Ni 2.3551564067937947 5.185993263058692 7.062265455117975 -0.051199662802266656 0.040963329786239136 0.6029123784676327
Ni 0.6781960416269913 9.037693368023085 9.002416674336411 -0.43406777675567176 0.14210101506952946 0.5176342859244182
Ni 1.470747146698996 1.0421824884675774 11.468633928570323 -0.2203278571929173 0.418122566280325 -0.052503726325670866
Ni 4.051605288721017 6.854311964383991 1.762875906474014 0.39959211157630536 0.7002474021753811 -0.7600150091523169
Ni 5.675539811199488 7.778836128327513 8.007988559343403 -0.5475863522018182 0.6078733220173337 0.5063944513445408
Ni 5.236871805144164 2.925891540491781 4.868665831213289 0.003238304431639584 -0.1687067905825159 0.42411375086675346
Ni 0.7534239233203011 7.286250435272811 6.824609749895054 0.17233487425340643 -0.4758507742297289 0.6393893903477441
Ni 5.262966844062668 4.300598089881704 7.09419637587711 -0.5787026139906485 0.6605621677706173 0.0976785230900963
Ni 8.350964203444372 7.117044233176292 9.013099811413237 -0.5017608092272713 -0.25862778121438035 0.33317897425839393
Ni 4.684516262115987 0.5228903094819309 10.52310891146875 -0.35360073244785556 -0.6125912963182933 -1.2704347796061668
Ni 8.145731471014265 7.162947984480073 4.766518904346545 -0.4789597521723558 -0.8227941492620668 -0.25604253698570745
Ni 7.2775671640902235 6.236967563598639 6.948693695094224 0.30284252805838163 -0.9592644484083802 -0.32462542826142804
Ni 2.3381516673945617 5.316287556168242 2.710081498352385 -0.6474042902324205 -1.1116642743007565 -0.6418633058095332
Ni 2.3746485415838734 5.351156317010818 11.520117586116331 -0.3273677668932556 -0.6315583243390994 -0.3185823073911417
Ni 0.8690154484014183 3.302962591595628 3.902369705837034 1.3971855374718711 0.6862058364806505 -1.688931698506775
Ni 3.690851551381115 2.6398139353221284 2.8458543928736986 -1.090107116955271 0.7932349475477113 -1.0819320373436465
Ni 1.145368694353988 3.264285854536521 8.350545416511297 -0.7013681460433856 0.6009490840936748 -0.46959142358357836
Ni 3.69272388172986 2.4577637279346995 6.988369008339329 -0.11003035978722986 0.5633359017265911 -0.31789607995739444
Ni 4.216044736741261 6.744966063002432 6.013825584354446 -0.052353831011367896 0.15766004585005106 -0.037368156235813056
Ni 1.009195103047895 7.501821687454685 11.318338262996134 -0.9305544820681974 -0.024779520937525064 0.47623541126265717
P 0.2824785701659532 5.3519703736841855 8.087406119382312 -0.13385677278286626 0.5825996350522095 -0.47392501796192577
P 8.543235344619637 1.683604876636312 8.085235301586664 -0.5283956382059803 -0.24120290086971366 -0.6578175151459446
P 1.7772937546667682 3.1486355364734386 10.552709821127223 -0.3415456010555344 0.5703089906103146 -0.49476149509130274
P 3.9549677165181407 6.207055503389455 3.8953534418200206 -0.4631014449838606 0.07186696134363106 0.3939559963364505
P 6.7309281079239165 3.9166256472025296 10.451052232771913 1.0054548309215134 -0.22285576582109362 0.3053375265660935
P 6.59692533441347 7.765078570547601 10.088996004754623 -1.00813083509178 -0.11808614021217083 -0.19062030282615558
P 2.269725681460945 8.475777181619915 5.633870963612049 0.22693867764121559 0.4425732431235217 1.0652052115072685
P 6.72433424886964 3.9490793732474487 1.5037471952224866 1.2737751568333096 0.5497098263027242 0.04033855171804666
Ni 5.188335937263161 2.870363830293966 0.48659152241647213 0.20506244639341462 -0.6571675402667715 -0.4541635190642824
Ni 1.3678142028887441 1.13177394790875 7.015693272834618 0.5006408366902152 -0.122727238528608 -0.632713263879149
Ni 6.8307043208563325 0.8455724252232627 9.15652393415679 -0.13481630848265813 -0.7999689238374352 0.40148881437838596
Ni 2.839492992225039 1.7695421261214794 9.145033071958501 0.11335402484382413 -1.4064124553867776 0.8500619838390844
Ni 6.167148636246149 2.1175603990602534 2.6858162779341286 1.3583233131890349 -0.02653866972047688 -0.5782508711652106
Ni 4.1130484774119696 6.942953691039569 10.33939983748248 0.038736754448565544 0.04342310418064134 -0.8001738407593896
Ni 7.942135897005042 7.135848942331083 0.38190473872882064 1.0589510030674407 0.7937609952545104 -0.3738232301423175
Ni 7.554328342886892 3.838512386855839 8.167365479362715 0.8908949586950464 -0.3909236372680299 0.4349136696957348
Ni 3.181152578037398 8.375602985424964 12.252226792205626 0.2827871520694033 0.17685153117683736 0.8900691203596413
Ni 0.18878516959842295 4.773103718326673 10.320098553756935 -0.16483393789067097 0.22920253397472787 0.11839852924626705
Ni 8.704906999950433 2.226508317179277 5.631872002225223 -0.8195147071798466 0.24216423634171844 1.1743621675506097
Ni 3.636336889487935 2.9415576089170314 11.507064639612592 0.16438039529302012 -1.2294688787167665 0.3029690263339169
Ni 1.1151400565496066 3.2127741572606525 12.71223393719216 0.42790227137490827 0.6492061193278498 -0.32146579958652377
Ni 3.025296905384107 8.402096007606003 7.709026246049172 -0.012344380497965837 -0.42376690905029596 1.1402410574971846
Ni 5.760708229382031 7.683573407395213 3.6295666514877616 -1.23212714227522 0.25065761852471025 0.07937509679521813
Ni 2.9742917322605558 8.601639388396686 3.536090332699796 0.8178172648727658 -1.2812136153892257 -0.14688121006699217
Ni 3.2952652334952304 4.361181996528546 9.349553052545703 0.20658608212679258 0.49470158838764483 -0.050696497913603006
Ni 7.258735319712987 6.01115728748063 11.331259151417308 0.5637971576337257 0.27082586594246905 0.14802817918724184
Ni 0.3852251854487454 0.06513900598804129 0.4789113499569568 0.7822982460305494 -0.4427933295541278 -0.35289959261577286
Ni 4.72511959996873 0.41643430929082736 1.729448930450713 -0.739182645787998 -0.7910762493334956 -0.7028876680117055
Ni 6.03168960579779 5.709920138038044 0.2877057185163877 -0.8124742553932975 0.0663318904580148 0.8770876204983089
Ni 8.03298462175286 8.883655755273649 11.2831248848285 0.4635876405916596 -0.01855899394910997 0.2634586269441205
Ni 9.26242728031742 4.751612622149769 5.818717907926202 -0.7698412512141193 0.35764636327213895 0.17482730165795696
Ni 8.000141957519554 8.652554110778752 2.6146993824413247 -0.7883287684953455 0.6334434571769543 -0.23017055431495198
P 8.5059696391277 1.5851673346778787 3.520019044952691 -0.9260684212723858 0.44269177097925694 -0.6794878010305265
P 1.861991828993587 3.368557469320755 1.5603946855998896 -0.004166215562547663 -0.9084249971590097 0.778506383088285
P 4.743010756634519 0.9476071931705657 8.231598168921074 0.4232359762474904 -0.024872851982279745 -0.10199103442252114
P 8.562365676443775 1.6754552648284884 12.489577678429741 -0.28775709448016895 -0.6139154144463557 -0.24826263592997244
P 6.2504537691540945 7.812664705643008 1.453520802983124 -0.39740744522016075 -0.1110711423469184 -0.0775149036580278
P 1.7629392219930538 3.1080774239914377 6.051276713866428 0.008522949869346612 0.14409850511553246 0.11398060268422952
P 7.126351614475128 3.8569010225997973 5.975447334742241 -0.7514581207212413 0.033257733611865306 0.1805382359998052
P 2.4528522526720486 8.670291501184016 10.114175682169297 1.1462502398057421 -0.384945308197408 -0.19913656782728284
