# total energy = -381165.31974478695 ev
CRYSTAL
PRIMVEC
9.25065828604093 0.00000000000000 0.00000000000000
0.00000000000000 9.25065828604093 0.00000000000000
0.00000000000000 0.00000000000000 13.53927347249239
PRIMCOORD
 96 1
Ni 0.9472766744658435 2.6299066892959297 5.863318009339064 0.32973395313258697 -0.9173027592646137 -3.2017328031631376
Ni 8.700494026477635 7.537667759803428 2.9755260895041604 0.18512714092206825 0.8331441250378232 1.3691720829780807
Ni 2.9905991123591584 6.073760313025123 6.604200468250277 -0.26489381672875023 0.2670885103872239 -1.7300503229239559
Ni 5.746527521523529 7.017716001112579 6.634420519227758 -0.023290080876192148 0.5906718705373827 -1.2431525468514462
Ni 2.598667215758843 4.411148723049717 4.796165752469406 -0.4800851240260506 0.6291458582428648 -0.5423829536240078
Ni 6.796995290838705 0.2889498666316276 2.7455611962555717 0.20159917043516246 -1.706178915622997 -1.468086278247491
Ni 2.4070675782402984 1.0981549135507929 6.257148141050369 1.0105682408886791 -1.9536211125342033 1.7505612983931138
Ni 2.084228849495623 3.9793372379334473 7.152026310939334 -0.20199897697674243 1.354412922391035 -0.08473096179049279
Ni 2.56925937259201 0.005253448925588153 12.137024828989192 -1.9000922873781274 1.0471259854080548 -2.446979299520076
Ni 4.356051801407169 8.392326842011851 8.111554557437312 0.715539295337445 0.7576403382725533 -1.1737322472760945
Ni 1.1677661182788273 8.97254664041076 2.2080119100226443 -0.824699850925212 0.6895097040429028 -0.053672292712475304
Ni 8.722621601455636 1.2151479907860692 12.029265759004351 0.40179374721331446 -2.939743304565376 0.21137476176468759
Ni 0.5076992615928717 6.4373204402033934 12.700448206866547 -1.37014241731115 -0.0402750454699629 -0.4898080077407693
Ni 3.9168120375670967 8.16321578453687 2.1303914852210504 1.4343320646151814 2.1389246311331354 1.4514957208786616
Ni 6.962767090005 5.368619623111613 10.947193115143882 0.7560089733167173 0.9262936499093144 0.40555964201364997
Ni 4.250585044582674 0.9898389539281274 13.22126305198944 1.6029987459883814 0.6489595505346824 0.7903740810601484
Ni 1.5860068874700435 4.136330162244341 1.3763351636316727 -0.24254398827864032 -0.2532451767462284 -0.9645069277542422
Ni 5.561912131123877 2.2791587240509914 1.6765005285506451 -0.9650098355325898 -0.0657294809873255 -0.38649619762429566
Ni 5.256187120485097 5.751291610617872 12.750110366678168 -0.43927863153264995 1.0122993646471727 2.3967294022255885
Ni 8.20735067593321 3.2763889540691786 12.012531317894314 -0.5983257875382147 2.769922712093391 -0.09983105065672485
Ni 6.916874573505893 1.040763828616211 0.04589529169663762 0.696992128462877 1.2643062981109259 0.5407114794588559
Ni 4.731091995704043 5.098787167203036 5.499747706436515 0.45075192227957206 0.4226554211536721 -0.2086419362145568
Ni 3.81572084218265 8.339366822467932 5.753487716930489 -0.8947367010386397 -0.4203501700592631 -0.7991150604775722
Ni 4.178642673928863 3.2814120615997195 7.222024193189977 0.3389585570546485 -1.146734121420696 -0.7193908078730514
P 4.229586049933818 4.57582894452061 3.230145837615362 0.8712077646787642 -0.35349531721824284 0.8534450413787042
Ni 9.055774814356027 8.566054207432781 0.3072291677004112 -0.7279600375993012 -0.35617594937419955 -0.7704619155172537
P 3.7362854381959876 3.984156830978405 9.253294873273369 0.39139080671243565 -0.7368324003882666 -0.06195073067118363
Ni 4.850147969770462 1.0946859166374356 6.335784288148194 0.38827154435716354 0.39268741403667207 -0.13413316637270448
P 8.14011689042313 1.9580128658000346 8.18664400209092 -2.633443156975697 -1.083706869855882 -1.311416107114535
P 2.9455669070945643 0.8329912649546729 1.5300866572267253 0.6742895446590387 1.297767663093165 0.6155452367402947
P 5.354845392700975 8.747376363429353 10.083631199257018 1.114092681236591 0.9847983310134264 0.3850437814484853
Ni 6.966421100087071 4.548900277814522 3.6548185896168635 -0.819835066633743 3.089617278712105 -2.8742560214958437
Ni -0.30969076791012945 0.5611541913630973 5.6455390084477175 1.3116544483775865 -0.006917295945123571 0.27523145120933246
Ni 0.8946496786256057 6.161206787217031 8.144251934743851 -0.7554700700941118 -0.8844723429981541 -0.21252301643651786
Ni 7.469740174910677 6.312908334902751 13.511910414444003 0.08321915313165668 -0.051313048451679374 0.3687183048155844
Ni 5.806721555964103 4.906715746104274 1.5893213983875258 -0.7471216981294165 -1.9898456420838766 -1.3575473542549588
Ni 6.576774116120354 3.453289295333525 9.404501510732782 1.0150087931585359 0.17066237164698994 -0.28665589099619015
Ni 1.2692550919760057 0.3158803834694022 9.9202118425309 -2.314279008939156 -0.6171218371987953 -0.47632539987330225
Ni 5.734640425433758 3.216333679505139 4.871945296242313 -1.7340663860618846 -1.7686310114106314 -1.1172371404028434
Ni 6.954941032968467 1.2224097576580302 4.874761196670114 -1.2026191055137738 -0.557237245028021 0.28168157771005037
Ni 4.9737830197625135 4.087347925827737 11.078456258081946 -2.1450214880594927 -0.5447303708102618 -1.4533093770486325
Ni 3.2536970889266046 1.4720110235679078 8.569142077218592 -0.2804525903989557 0.07023431083621452 -1.6448313657534512
Ni 4.794745776399539 6.9171335919420915 3.915273653069254 -1.1106394325806679 -0.48407521902205014 0.4407133070966474
Ni 1.003890704091833 6.486432185838096 1.4541045240340797 0.9637903613031917 0.6881434198229955 0.3710816628414383
Ni 5.492855965901978 5.034180568688671 7.876648887518259 0.43857852014183174 -0.011572278218631682 0.36656963390369773
Ni 3.5706709002230967 3.4415779617540307 13.28671238548729 1.6977408121579731 1.5807108811244583 -0.2283201313697745
Ni 1.8623518069172964 0.052762980519241325 4.259361144240546 0.8001213902548995 0.6525344123701343 -0.0928553906698401
Ni 1.591945810185711 3.4221793310145374 9.224604881201138 1.82439772475829 1.9385960998802805 0.08430055912129351
Ni 8.269089570332532 7.169204783654279 6.503603258026292 -1.5778011636768312 -0.13557735501839877 -0.2550642322328381
Ni 5.750616312552072 1.3680613747268546 8.69607221174541 -2.244253214569322 -0.26248212196346404 0.21473390804490758
Ni 3.0402473961831267 2.2476694827361436 4.466241019363047 1.356015748101781 -0.282666567331139 -0.3695842523603054
Ni 0.46302228161220504 4.988639577210118 3.747318698512151 -0.8935110561616547 0.22589429553710128 -3.454732696667779
Ni 8.878763465190453 3.769245534202099 7.094620424951256 -1.7770673151034428 1.647490143532537 2.529891720044591
Ni 0.9274247614630046 1.6885504362288826 8.025323619763844 0.13262804258208774 -0.8304953745610664 -0.9911558978003381
Ni 2.46916724831861 8.264168220044784 0.46164855883451567 -1.5234210462640538 -1.7572957889034704 0.6544046328096536
Ni 8.318164313333494 3.2976007138620536 4.665592708650641 0.7405499584491698 -1.8464151095696457 1.8200983260519878
P 6.569910127561124 7.736103633905897 4.657712997795181 1.2604776683934549 0.6725530215839063 0.12794940615949577
Ni 6.150309511579872 7.057077552756139 8.940036126404621 -0.21466834491429482 -0.3770242535781184 0.6171909998738339
P 6.148450129234312 3.898449480572393 12.726484185033597 1.837677215476016 -1.7626112875791127 2.301768535176971
Ni 7.703846587940892 2.5684915679418534 2.512834981463951 -0.35869331647941455 -0.17034329774467438 0.6501893091767255
P 8.758708420012987 0.963419073435999 3.3304174246624125 1.5880002156970199 -0.7298174025230142 0.7897256488428722
P 2.3513878651163065 7.737759501765871 7.7168169361334735 -1.1876935945521934 1.738493568595303 -0.13307361475993856
P 7.912448935664105 5.283624573405143 8.968022143369899 -0.45354619719525757 0.136257668914875 -0.7174108013285452
Ni 2.0489005849299935 6.595599206036839 3.6940423064497327 0.9869436594912036 1.642095711989843 0.28614012770203623
Ni 4.715856161260578 0.8261670542267167 3.5365664977684994 -1.049601957752373 0.14262706277632856 0.49175998926081765
Ni 0.14504939920466575 1.7044615687381475 0.9010548345264284 -1.3391557391216484 -0.2986146060199631 1.2858261744605726
Ni 3.8254987881491 1.7575788494754732 10.631552323727963 0.9275699455185767 0.7366231125909378 1.8723603686804982
Ni 8.292863762512074 7.418408271251425 9.479577079398737 1.3465636015499456 -0.5307679950928988 1.0293480925993432
Ni 1.4881349212211923 2.165865910189963 11.028536929965812 1.8999339074233925 0.7723665887391342 2.7233520634227033
Ni 6.531899172049164 2.8098227452102877 6.893927390190497 1.3623023524414408 -0.0030986935299817603 0.6637292526446892
Ni 4.305681966225222 6.671241840064897 11.005561069609264 -0.1364600147336682 0.23450234892108646 -2.0102324332703443
Ni 6.555442097767815 6.8550709244975225 2.3224055522375116 -0.20376841017233938 1.636011453468976 0.15153413545797126
Ni 7.017345974775154 8.14811870996994 11.536760703891984 -0.1547755252134044 -0.04465620525679406 0.5400010836553926
Ni 0.2904244215862653 4.9760216791039324 10.42993884845286 -0.9831381697021843 0.459769295286834 0.5582641436306385
Ni 7.046356039629256 9.243516927306919 7.3270894714383665 0.23809186604455773 -0.19861900476091598 -0.7011416318548764
Ni 3.342660671101955 6.087275524999562 8.851489748924717 0.2778094963491538 0.0996130211086478 1.2599693612984688
Ni 8.121051283387319 3.724333587497168 0.7022646602058764 -0.32425441807525446 1.9326455387238004 -0.16734539145861504
Ni 1.9705752599556055 1.9594467178575556 13.30096857520242 0.01694974048046113 -0.0035146980214778175 0.2543569217531684
Ni 7.25504164327839 5.167889585717111 5.7983293586313085 -0.1552756047782745 -0.14613996102559346 0.9588705554040713
Ni 0.9603201028600665 7.80778698612351 5.615183897857077 1.3835332367957591 -1.551315715791793 0.6585500224365949
Ni 3.5599678884130856 6.063889860474317 1.8462963641364356 -0.15699824389633607 -1.9198848966240225 -0.4163245938396378
Ni 1.058404834252937 2.7781947440189056 3.3629797423557926 -0.3915085632372225 -1.4838440553023802 -0.5952245229050716
Ni 1.5260811221241022 7.103756375222273 10.592992804170771 0.37938915426586917 -0.5846961125699222 -0.7285593617461968
Ni 0.1877689398603553 8.626211239239613 7.880358401550942 1.4732174288264694 0.6937535669209214 -0.019282502378695825
Ni 8.927366424611197 2.5994627723843067 10.001610236237601 -2.328009728261687 0.09023517943817362 -0.6791898101741335
Ni 7.5913770826806335 0.57798668945255 9.763020954129484 1.101524100542961 -1.1071928687929642 0.5656676351835613
Ni 2.5591021496297 4.803052867674725 11.130758555811093 0.871925359571079 -0.24676368278694272 -0.5956916923494773
Ni 3.2171754894227798 8.713759470674313 10.095356408824165 1.5818591357962886 -1.182030996949777 -0.65567732887449
P 1.0221515038437454 4.203915472774975 12.52648217445798 0.008843566433558962 -0.551350961450573 0.9173696079468073
Ni 6.207127055691445 1.7540265966361954 11.36902313980812 -0.045588230152760194 0.18829345446519183 0.3191703186841277
P 0.27756045596569323 8.446683710979551 11.671002558846316 -0.7718166297729352 -0.05209080715796835 -0.07926171114580544
Ni 2.6375847357974935 6.028469089324331 13.264818852167709 1.5727772280996783 -0.9059824491557882 -0.7779265993254151
P 8.409357304191827 5.657702699224713 1.944415322965518 -1.6418766540005014 -1.22640103842472 -0.3579255850754545
P 0.47285480646342476 5.189591630407073 5.690068902959257 0.2879576405267492 1.438150409920007 2.9914268489825964
P 4.139678900598035 7.846713756820595 12.698118891072458 0.6052042598256029 0.027385076881172192 1.124875887895024
Ni 5.825500392588411 8.4417623606918 0.45856993970714155 -0.34702513611286684 -1.6516126503413424 0.02210325965694258
