# total energy = -381172.57028182864 ev
CRYSTAL
PRIMVEC
9.21153209990874 0.00000000000000 0.00000000000000
0.00000000000000 9.21153209990874 0.00000000000000
0.00000000000000 0.00000000000000 13.48200834414613
PRIMCOORD
 96 1
Ni 2.2179711296117026 1.2019667701380627 7.100758364446546 -1.1604643265225951 -0.46275203206424176 0.20194961179604573
Ni 0.9949928546824003 8.236298012926971 8.493948251249153 3.418160811081016 -0.6289178013924588 0.12311470377501377
Ni 7.407168005798743 2.640587012258476 6.824282517907856 0.004449036910289112 -0.7162977707700244 1.3679022151267215
Ni 1.8588134918166836 3.3383513596638337 2.074718908826746 -0.6798729522840872 0.4941976521680328 -1.3688895187406556
Ni 2.167795914093122 1.131498549334475 11.943225801989966 -1.9715165047573853 -1.7466480793816372 0.13134017700859962
Ni 6.141890375323025 0.23542004782998416 10.173308201005309 0.3750067089274574 -0.11822215156940284 0.07075804455016846
Ni 0.9176003251757983 7.6853010069678325 0.027358250429628285 0.8340764070441056 0.5267856134063831 1.6788753427120378
Ni 5.390284622610873 8.757237789542046 1.2684454763756332 0.5247462143788512 -0.46112169554967036 0.9288482980103681
Ni 2.404983654939081 2.911341576190484 4.940199029995685 -1.0789441583599162 -0.225369790492199 1.4112409871236726
Ni 8.269450317067118 7.610217808566519 7.567262591932363 -0.32642648602590885 -0.8879209636683869 -1.297811628957223
Ni 3.9198938061699926 4.37510930102904 9.006399601005336 -1.561229118250763 -0.8914456889921939 1.4936024202407245
Ni 7.266213141127304 2.6438939522935723 4.559723143389457 0.012780182483803795 -0.753582880373728 -1.6255347223073682
Ni 8.113572770343154 5.136737200699924 3.3561839647166005 -0.28502684003319945 -0.813666990149818 0.5170465317417483
Ni 5.040596439846716 8.437247586368837 3.8485062744597123 -0.9807650414843173 1.3780369895678783 0.5810752279878831
Ni 0.47578392495477695 5.563479849741469 9.180048035516787 -0.2017333820201816 0.7610884447221539 -0.8214265794905788
Ni 1.0134896112018257 8.214752239272123 5.7756656500769585 -0.058663575279479616 -0.7798068470672636 1.1942568495920078
Ni 6.029878144607779 2.618930700218053 8.886166999016218 -0.7490921915922261 0.18418406028250858 -0.5100549309152635
Ni 6.078505822728321 1.150621690038821 2.925447195342972 0.010822030316168458 -0.09841385859422405 1.8548087329499796
Ni 5.554434125188643 8.215286508135732 12.28649170455226 -0.06857903462097867 1.3693482035446287 -0.4725973002894377
Ni 6.010322061893267 7.117658762447636 6.640400992351869 0.052994807029476475 -0.3511036770576147 -0.21474573511944953
Ni 6.787250316434054 5.42911123054383 1.36853153644063 -0.7701670099846543 -0.4547702994103458 0.41612224802084463
Ni 2.6768343911947006 7.068662623041847 4.062291196773176 -0.5768943571373162 1.8434467709699416 -0.24615227445518897
Ni 4.867742039404973 3.297866675947263 5.088190584062137 -0.13326310506292535 -0.04058614895247849 0.6768771028805568
Ni 3.0688311410374047 2.7141595193902743 13.372804004170403 0.273185110203265 0.25256794817354566 0.44291674250586943
P 2.122696252778826 0.7891252442356933 9.452479098296672 0.35136130159437556 -0.04478938840054867 0.024927102258982876
Ni 9.357258569503367 0.9347678576086933 10.395625765531893 -0.2494859668141123 0.6324957485517042 1.535668496172839
P 3.5287721518797515 0.4431262800900762 2.090628145970521 -0.30076379115248203 -1.9010914180666034 -0.2985297596156407
Ni 1.747547395204064 3.251145784977877 10.130165069115678 -0.8434784170842958 1.151857044469558 0.15713554080514874
P 3.0714103700341373 4.492528701105293 3.526799041697251 1.7070538620287827 0.11986662915136131 -0.4146572334395439
P 6.270704440645558 6.78372229962781 4.371757224486501 -0.142104100393323 -2.1298311534722996 1.617710598277259
P 0.4145272362823769 1.312486732648056 5.932569361480335 -0.5250089811219345 0.3270798033391915 -1.0738605731894215
Ni 4.568081687645297 6.430625849975112 2.757448193487579 1.4630849683781577 -1.3955667709215256 0.23156280667678827
Ni 4.084881558171701 4.324620893417999 1.5272821600363105 -0.04464334974098763 0.49065184379830346 -0.17049165039708059
Ni 7.243755425791469 7.586166498171988 2.7353377529130887 0.2746542385496238 0.7357425097581973 -0.7955769654173267
Ni 8.36220123409605 8.420703674661224 12.295604673289642 -0.6148371549296766 -0.24696422883352306 -2.7278795189794116
Ni 8.487643878658567 6.804337708537408 4.9107405502401456 -0.1207839987593081 -0.0895083285744781 0.996832122249509
Ni 7.6119495766071825 5.266325034721477 7.995370390035751 0.8336277495424611 -0.538186399044157 -1.608057134347895
Ni 9.148202847786058 3.2122915424485265 8.724086406555113 -2.2192474365536037 -0.17816896443668023 0.14190483989832334
Ni 2.9639578477238295 6.945108342566223 12.644142335690617 -0.018308825611516855 0.4512111213041778 -1.804920332759969
Ni 3.543630353207358 2.1881349770387852 10.69121922585565 1.9046323413403263 0.7539284366386048 -2.3723363180932044
Ni 4.137949194779475 1.072894781915857 8.410697187307115 0.7118734164500837 0.20212418970069704 0.48794524350041774
Ni 5.986915558747918 3.581001539063587 11.244736507005882 0.15812747240477282 -1.2907830042452157 -1.2242572526088398
Ni 6.087652874134591 5.092798192434158 9.573304922955037 -0.23983173155379983 0.23914910366447842 -0.30735352855485776
Ni 0.6773202729933993 7.831497233421917 2.99594489304938 -0.6575449782108481 -0.0756426263359794 -0.6933313917818381
Ni 5.930559405169311 4.137166214548324 3.0909526354504524 -0.19605304380595268 -0.7067373807750988 0.4463895315458183
Ni 7.892274922423495 9.074197398644094 5.747824715363656 0.20402963425352605 0.6599232486350377 0.19215679407534003
Ni 8.634190143333637 4.276066907554507 10.982565248713716 -1.720566808913553 -0.20088491797695726 -0.9327355488799163
Ni 7.462087160364886 1.323595840398269 12.327840429982734 0.0985329006705916 0.7777350521398992 -0.9479922179286705
Ni 3.7693957942106437 8.699997328878844 10.520146335728079 -1.0258092262081495 0.6713471742012631 1.157047587531562
Ni 1.8072841810748184 3.860359674006125 7.610876433113899 -0.47199360526716777 0.8435797185488504 -0.6227944621035403
Ni 7.646971821769959 3.5102109146354077 13.199452180993577 -0.40555038604226934 0.2771199264812969 0.06317483288627185
Ni 7.699385439596418 0.5612669431322014 1.150868559099937 0.8738770839808111 -0.17648257787319283 -0.08820812170581584
Ni 1.904935633197542 0.3829003618631561 4.29105407033195 0.2813491340712961 0.8801420910539165 -1.4973762854608599
Ni 5.980504332384611 2.180056463359733 0.9591489408535216 -0.7721195057253347 0.9095179731128724 -1.22750815544597
Ni 8.754004541764 5.959667846703864 12.620953224703563 1.084368671809597 -0.8785040412298614 0.7795507651923994
Ni 4.383722083571701 7.849947932280687 8.491656422054913 0.603415029135664 -0.7295389520506468 -0.8793041685336535
P 8.692729430027336 6.535886027638196 1.3733178485359951 1.3313773807278104 1.4755926139268651 0.9172024862413235
Ni 5.138763737768786 1.4713211811861304 11.925469652653886 0.25340329959064745 -0.9290071921857355 2.030133028849013
P 6.450412220992904 7.366572783696597 9.058265132669991 -0.6144265497548193 -0.12777482825484446 -0.9176603997143485
Ni 6.863217821919961 4.638135389502982 5.612263202755028 -0.4699014986248294 2.486951726147956 -0.47385276996309356
P 1.3511843791311768 5.260420442625386 11.151859391986752 1.3363707201773436 0.7736860788815062 1.3292883594092653
P 5.017908436207599 3.667912344721346 13.162309441134202 -1.18917480708341 -1.7330361450251572 0.2066992106658892
P 3.6126984211270052 2.9251128167266103 7.113848872758176 1.720900795214204 -0.07756375461809223 -0.46651278465825463
Ni 4.966517298447702 6.456279966960471 11.010122468237377 -1.0213810152334668 0.8356167549480318 -0.7604590386682709
Ni 2.640614646854869 6.512203178528913 9.628647807999215 0.8949660434406265 -0.6525053589044116 0.3842745073826285
Ni 4.213299527612593 5.852583785678804 5.190060917900945 2.6421198588140884 -1.4856014043131187 -1.339360398933287
Ni 7.435723755405426 6.604438249758498 10.930916188054143 -1.6434900212342083 -1.4326029977392165 0.8039651894810219
Ni 1.2246179276486542 5.534583273445933 2.8649937522724116 0.33325739290481315 0.3636185216951738 -0.6839880028937253
Ni 3.7565457068876364 7.9329254137184275 5.993817759773818 -0.4888289316569516 1.3541876937541064 0.7572914395735667
Ni 6.619932046803156 0.29639854823202233 7.85634349903937 -0.5138087415307409 -0.10713735451015097 -0.6982895071180619
Ni 1.9685044164348702 5.126899284383816 0.2645671777994892 -0.019651969902972605 -0.25654878719816465 -0.35651327810896016
Ni 0.3928653973226753 2.4178705883906133 3.5770461071664554 -0.24539122791944834 0.12766452792922528 0.8189110121575768
Ni 1.0656084600000872 1.035016961792412 1.4837622764825127 1.0021051977229902 -0.3553125729326397 0.937015921422825
Ni 3.571771583868137 2.2374166739406407 3.0045199083103027 1.6288684146662915 0.0802983799404359 0.8240899852553548
Ni 6.125659655707872 5.270903166190678 12.687594975059856 1.9843558226138984 2.1528769795481697 -1.1360203345476176
Ni 9.067288749545702 0.9792687693344624 8.119445122076788 -0.9015750641167117 0.026552039456915564 -1.92022376802068
Ni 9.038594826957052 3.8886114430524787 5.532908616904483 1.3541311294845582 0.10667969814744208 0.7742977443235761
Ni 4.784230289103623 6.5698489466058865 0.3120332817182877 -0.45148391534959026 0.3245426387396346 1.70863200514918
Ni 1.8664866980819632 5.167089199072189 5.0822583573696525 -1.6109686515677353 1.009812079448945 2.093489638728788
Ni 3.6559373529508017 0.17174809543278666 13.455017849594471 -1.0456684270259218 -0.2883031967916261 -0.7543200156500687
Ni 7.105389001648893 7.465311196610801 0.2631928172055159 -0.6929529253964969 -0.7160707423608829 0.8172053423203796
Ni 3.850696776800509 1.1509164590670191 5.391091552825565 2.042964633396043 -1.1345470924362007 0.1749849102817438
Ni 9.062802733397813 4.529706444786768 1.2462502897055359 0.38862121438709846 -2.550323248426066 -0.3424218330129006
Ni 3.173953145718522 5.784436870972275 7.1089824203332705 -1.2088311478617568 0.9739793860210518 1.9119512435992427
Ni 8.447988232833803 0.3975328806535482 3.4399748244415256 -0.0006386620252634162 0.24115867789533954 0.3440493413139946
Ni 3.634935059691693 4.608953255711378 11.500841050236449 -1.0937935646679227 -0.3781568245206649 0.4962859021556291
Ni 5.243775204064329 4.680057072232018 7.310524295291171 0.9813047160378713 -0.6866534655410302 -1.384090651961126
Ni 2.7558693368802936 7.271694002745361 1.6599319073382697 -0.15891114464833278 1.1114930388302149 -0.7689691330218111
P 6.094801023068392 0.921374289889946 5.26520951818039 -1.0715164984372771 0.29446407418669934 0.09645210688216291
Ni 1.3519489362980655 7.8540839102075894 11.087253390231455 -0.4152048784128978 0.3449104037627092 -0.22853096182899996
P 0.3233920219892556 0.7122706682055526 13.038895175946971 0.3506336793997316 1.1758876030562007 -0.18494073594287505
Ni 8.375032898354794 8.07041674230854 9.75288466300576 0.4358670347479397 1.931530708393067 0.24996342067116306
P 7.836038518762592 2.6854932313980173 2.330297473572622 -0.7667474427801441 0.19006880119805974 -0.5256530424638367
P 0.45718307812226905 5.8811763814140114 6.945607607607733 0.04965442980233384 -0.06885105733544271 -0.6305365679428044
P 7.556293499470545 2.380886286883893 10.271538137345873 1.0221001527876785 -0.635296451225293 0.2576222227680015
Ni 0.6761992295330337 3.093039047478167 12.495570455099898 0.9859051909243601 -0.6861001641407215 0.9601807895750624
