# total energy = -340891.3342623288 ev
CRYSTAL
PRIMVEC
9.08606151171190 0.00000000000000 0.00000000000000
0.00000000000000 9.08606151171190 0.00000000000000
0.00000000000000 0.00000000000000 13.29836945556680
PRIMCOORD
 96 1
Ni 6.726929285189173 1.8339942695585763 11.258160001629903 -0.10146164428161236 0.6480648066345548 1.2547685338238197
Ni 5.104531217454157 0.4177689334964638 5.896297891443614 -1.3066513387360401 0.10822698802990392 0.48642212198767193
Ni 2.8791548458022334 1.5983836070076172 4.928348849202715 0.26223786716314196 0.4613268695819409 -1.013471787688719
Ni 3.823841753213663 4.861533586847437 4.735881532800795 -0.6037798686742505 -0.7057976425696489 0.2417261203630353
Ni 3.9045986684407237 3.0527803963281013 2.2953917448918744 -0.37769325462068504 -1.2692317604370011 0.6736580817226269
Ni 5.205813545766043 4.902829736679457 2.177275670310728 1.5090156694720012 0.6988129837216996 0.17803423863102885
Ni 5.679106492905739 3.2147848741069605 0.27772819234883483 -1.2172466256189616 -0.2495165629417316 -0.6250840294686654
Ni 5.971723105741868 8.234297813458099 12.339942857634385 -0.7184310150629434 1.096719480065466 -1.8124516081400077
Ni 1.9525219427288074 6.825149610752239 0.2792700969971283 -0.7232734307569092 -1.0156381992124186 -0.07086320266946505
Ni 0.7735618410294055 0.08098770119091893 13.422709734106808 0.1680943538094976 0.6436378812114527 0.2769029253744844
Ni 8.351517093762366 -0.003985146604251693 6.795161064543089 -0.7560094875373496 0.009617725595422146 -0.21534994436235166
Ni 8.884305572057192 2.1854340449937135 1.4338032307738895 0.4898979963514144 1.2359853396790457 -0.7144234365654469
Ni 6.95299958309247 1.2190768807397394 4.858812311407461 1.347872550169356 -0.16843631052994862 -1.3431412061319579
Ni 1.180379344516511 7.710722601594444 2.487460183190907 -0.8087194163365556 0.18346775094177437 0.4953986144546695
Ni 8.028689326208644 4.324674552969608 3.664644868459687 -0.16721992162434426 -0.6452252803032307 -0.11543970372825925
Ni 7.838481713318984 4.0779788953042235 12.570257254896656 -0.9329054987988772 -1.1572280789734846 0.10472283153138738
Ni 8.130071601197793 7.3527953781988975 8.918578196296219 0.11548572647484627 1.3695358940754028 0.5159905796734082
Ni 7.19485236994147 1.03739199360199 0.3130875095515387 -0.19070180679636833 -1.2432235092986976 -0.8278134568535293
Ni 2.0026315722829526 6.659619741084529 9.252061188252146 0.3952132657823194 0.20492000727827936 -1.7683173368249545
Ni 0.06976368933448455 5.09503628311434 1.2688130731633904 1.4209276182838173 -1.414078713682784 -0.7644023395867352
Ni 6.737559977225138 2.1545141774737218 7.086581043070553 -0.8210830801082311 0.30816985380856604 -0.4685434419350382
Ni 3.373173099381278 4.635735870791215 0.31701087093711977 0.6033026719275159 -0.1888560118368812 -0.05220136459390365
Ni 6.256507533505343 5.865861402399102 4.494316774103537 0.11228470303904534 -0.2641870204697127 0.26623593257894146
Ni 5.528668571504473 2.929418938403055 9.511485509569823 -0.5003559584599446 0.3671627874030064 -0.6094398951735052
P 0.06628917939042198 5.690827512330009 12.232412044781357 2.0919084102845975 0.28643811855842927 1.0110276970236007
P 4.004763411179599 6.440055063264779 12.54203776487503 0.5250786580176053 -0.3008326967172045 -0.4255281147157769
P 2.6068364945117013 8.743517048042419 1.3159470175536223 0.50140625410133 1.067826708290516 -0.42645319763320744
P 6.723640130901121 7.871445944692046 5.650503571085893 -0.95639278328754 2.0926491451053635 -0.3304250656623406
P 4.895424596500558 1.36570774234351 12.381832327286874 -0.515538579737654 0.6803776598346476 0.2602421768893518
P 4.224255400506795 6.253718112603599 8.020206579127636 -0.0600321734922321 1.00092043338627 1.1262241743928023
P 4.8664400600948055 1.4770210826277954 3.7169742228551876 -0.4961838293601261 -0.515444477361951 0.41871854799311115
P 0.73041758627421 5.804875757146624 3.3729850179067955 -1.0088851967593013 -0.1926530169854682 0.6138182267468589
Ni 0.6798545622477616 0.3272935668149849 4.545981028792173 0.535373097965078 -0.029799342749619647 0.7635106810104013
Ni 2.295584369397141 6.906915078813481 4.690334923366701 -0.9981909502702486 -0.2747388278436301 -1.2931833861565922
Ni 6.008821495128916 5.755247688855646 9.052891992836782 -0.009273197771809835 0.09949217926006736 0.4492809941610004
Ni 8.636610447619196 2.655801280308127 10.092451920729182 1.0325995096571055 0.036718695577272246 0.1146218358126542
Ni 2.6611529705723864 5.77999812057015 6.725118433118431 -0.7572245908913733 -1.4392883801791923 1.2433075843720716
Ni 0.8291967046237821 0.138334378784933 9.148946201321749 -1.0584288120153837 0.00627040638974404 -0.7031560911817438
Ni 1.7425067156182883 1.2862955642286906 11.166587947317023 -0.8063925679755919 0.8580007790701868 0.6018962784982924
Ni 4.193317360863665 7.120074083226944 1.359213025533845 0.32043864387359006 0.3296902443788451 -0.07792190928845935
Ni 5.797779543061077 8.097625275334174 7.983117275802158 0.26543863348862673 0.014824466607342213 -0.0940427261097219
Ni 5.591644064240607 3.3671490405608977 4.657953108540226 0.5821370935934942 -0.5563067627939515 0.06496637756905585
Ni 1.1713023690088789 7.71564724696495 7.037244637355947 -0.9405185352594446 0.016489255904274826 0.04165367098504439
Ni 5.286388739761721 4.905373833918833 6.691739877337812 0.4917800438654756 -0.8726241854103165 0.43463007701704504
Ni 1.0740088217258714 7.479282441303748 11.351474762551758 -0.8984411464734203 -0.4208373941083268 0.516815903788181
Ni 4.784229375016671 0.5785277122341858 10.304800448450672 -0.36576205040073784 -0.8310484188510591 -0.05468556446833808
Ni 8.585192425199086 7.29837895546095 4.620279571455846 0.12639877384292425 -0.11412329890968088 0.20534629618242053
Ni 7.384987294338577 6.320273513597999 6.818978357734437 1.005265854839159 -1.1223238108971316 0.603820749214515
Ni 2.7437543562979956 5.45885127440673 2.6923881244288297 -0.6855247512532259 -0.6094856608097762 -1.6821193035706319
Ni 2.7530857415295653 5.34190457594954 11.034442085066873 -0.8767119823264449 0.15194782595662218 0.8736796232580243
Ni 1.3082202307951734 3.6216677972373645 3.6435806519238074 0.4313151537111991 -0.5292890965545272 0.11964757116201975
Ni 1.804691720997902 1.3913758662765037 2.503963196819047 0.305774356993196 -0.39092029483392027 0.2487344333600684
Ni 1.1768448665660918 3.598998073622207 8.182925221345837 -0.46155595487361156 0.3981965167803594 -0.8630928488811135
Ni 4.021191010496715 2.684068017849912 6.852835748959752 -0.4291438570914932 1.2398054847560842 -1.1823390151084991
Ni 4.420178146123483 7.1714194171545005 5.858942366514156 1.002480321674222 0.22387597955549185 -0.31551138177530175
Ni 8.441196521450383 7.388957903244318 -0.11234279106007572 -1.2533814236683058 0.25189843291034686 1.0839914909758364
P 0.30997462485793026 6.007549446509228 8.014794012250864 0.43978616729668774 -2.370242925899286 -1.0800214505844947
P 8.708172268538226 1.8674673203795138 7.958409548577028 0.7586014166342419 0.06644064812173718 0.1226868722089758
P 1.8568820586513943 3.4391106481889717 10.29847018935541 0.09557381804226767 -0.8089870681756455 -1.0846170403749773
P 4.371031639095673 6.609473767284107 3.4912610071715595 0.3873654876031264 -0.6709311697097671 0.8017252444069096
P 6.996621764686206 4.137074639750308 10.513504556876756 0.13296100044147421 -0.31300275642083514 -1.032196874902048
P 6.472328753958582 8.074283183162896 10.17313342164522 -0.33542123332535134 -0.7154418505276324 0.20755230269480385
P 2.615849867588349 8.634829579551631 5.8013203812545955 0.8050388821611748 2.147870527472514 -0.30740675039029636
P 7.251758373549379 3.843267752848615 1.5730643878388808 -0.271315661094694 1.2301329946633266 -0.22187668973727592
Ni 2.7190220967066296 1.6191452576932421 0.06384775464677758 0.6601574761330308 0.8294191107777522 1.1010638730770907
Ni 1.643877517284608 1.2696862436801908 7.062551136038487 -0.19231414558881074 -0.14205062144756828 -0.47467655141596965
Ni 7.2445076964171555 0.7344190877892863 9.13873255951181 -0.3683742912126043 0.3506002550586349 -0.34467000561712896
Ni 2.951307260723261 1.8178937684579517 9.009578737336398 -0.5214246062047859 -0.3730290163757963 0.7515450240080928
Ni 6.497715209982931 1.9012947276016503 2.3685327233116307 0.3311933112869328 0.5503220059654265 1.0617061972150748
Ni 4.078932931768989 7.153801543771819 10.31384289692434 2.1077667174730923 0.2547567282947483 -0.09725454817880025
Ni 7.497754404473934 6.19353204076921 10.993230435607448 -1.1575019014601615 0.835085307924594 0.7968108378244277
Ni 7.620797850244059 4.181278329284472 8.171728467674109 0.9163565933012606 -0.14173463286904622 0.037818870619986476
Ni 3.295532703272453 8.526023992260447 12.496344869849674 0.7041891604319485 0.2720859636018153 -1.2682493419190737
Ni 0.39464490680284653 5.060054946072916 10.098436000878658 -0.43931771230070144 -0.04108520007608408 -0.02545494973799487
Ni 9.060538822253422 2.6532935273150273 5.831175362358677 -0.2764599242997948 0.5364100238700246 -0.49215851025081686
Ni 3.4625617730990803 3.1654384737246284 11.584608564718954 1.8892784845920754 -1.4379979435025427 0.3299535253425607
Ni 1.1708389798688497 3.787070462043105 12.535282278098329 0.22278840291826793 -0.673184227410002 -0.034906582069197944
Ni 3.4516130689081925 8.532147997758088 7.863485646151268 -0.6059578501621758 0.09895533291999087 0.8403424425584752
Ni 6.114874005764634 8.014033508897521 3.4754094641579307 -0.6084600477587391 1.1620622671373342 -0.3236628072378426
Ni 3.5464806377522233 8.667185044799558 3.3744742233979874 0.17815430914866093 0.7261517807459688 0.3175908900121498
Ni 3.5708131106345444 4.17027510872417 8.830928594762762 0.032988282000562544 1.3536935277265072 0.028684255308569953
Ni 5.16227313872643 4.952239739492773 11.366289585940342 0.09876352862415894 -0.41716663012495897 0.08721747565777238
Ni 8.195336781449365 -0.09842112752374549 2.7167505813143293 -0.17537700351383992 0.3936970862481091 -0.9745031197350056
Ni 4.930405933541982 0.41713563500509054 1.0268630654555995 -0.8145383370111778 0.27785269088226344 1.0960581923323833
Ni 6.1709622638313135 6.120198437844186 0.07634018069827246 -0.05226255684914225 -2.158809800092837 0.005448424709080939
Ni 8.333871962194976 9.082917791898364 11.296286933186586 -0.06678980393103981 -0.745355350257613 -0.49297097884978325
Ni 0.6087752111980569 5.218088814946034 5.607988980397444 -1.2021575924963233 -0.1849718462911266 0.32135601348153686
Ni 7.763430844757381 6.412905911296006 2.3839317804591134 -1.2500554446188668 1.294870286940712 0.12142626032899731
P 8.652084010471546 1.9442263685161265 3.5479516711202774 0.29249126673104464 -0.3612129975774747 1.0992093363668554
P 1.9144695168769923 3.3360565378710905 1.36951934517179 0.017253387763808994 -0.006374536067776118 0.3800427286894681
P 4.867148772897203 1.3217948067795602 8.155398089215783 1.5161006013432405 -1.6666003819994264 -0.3287487064011822
P 8.83676729792713 1.7796141910669065 12.334184111811824 0.20991051851433526 0.7654883735620623 0.060173069945470566
P 6.498696504632405 7.917430502293773 1.0729221287621948 1.5143684491434823 0.814976710100177 2.4314632061623476
P 2.114635453246497 3.6357330205464877 6.0417948125635474 0.5469708301050064 -0.8993580018607349 -0.5076211246627903
P 7.388767095951365 4.310473038736946 5.818808323956837 -0.7717168709702774 -0.47034090015509317 0.4202229004527795
P 2.4877182273394722 -0.512974503830869 10.264133962685397 1.4127733646077991 1.0670690041888848 -0.7694951807286102
