# total energy = -381167.7699369753 ev
CRYSTAL
PRIMVEC
9.24860488221041 0.00000000000000 0.00000000000000
0.00000000000000 9.24860488221041 0.00000000000000
0.00000000000000 0.00000000000000 13.53626810842079
PRIMCOORD
 96 1
Ni 7.778215280823178 5.802500599235704 3.2230120316730746 -1.1518927828035002 -1.2538827887847566 0.9846967724385556
Ni 2.7253140924311796 5.485920860393261 9.264668600375071 -0.4804543344400113 -0.25413812087414295 -2.5489628777434294
Ni 0.968153188482787 4.228832012512964 2.805472674216787 0.6575292944815644 -0.4271833909310127 0.26795317238036437
Ni 8.456702170137245 3.3702285466883346 6.920633785817775 1.4971947655776734 -0.1458568825675359 0.47258367344268293
Ni 5.019338001939786 2.3098667693577775 8.100996209116216 -2.5147024138986627 -0.4449209174200918 -0.015607881740586024
Ni -0.04386890666816713 2.119373258375078 3.391647390310456 -1.0386192334886242 -0.04766645283802758 0.6840779915043702
Ni 1.0887457451514 2.8849080151149424 10.653570412144655 -0.11169206376036893 0.6528953952539788 0.7141874092952409
Ni 2.7611246898252184 2.4545889356857518 12.816868993676563 -0.5191052140429899 -1.1402770529414428 -0.8716209409567828
Ni 5.387413971745558 2.195341297371626 1.4111289834423864 0.23368550944674593 -1.612693347568326 0.23507493359510484
Ni 8.266550857528404 0.5440954144347337 1.8234438041042798 -1.237881528260494 -0.41647166094046345 2.483505419470568
Ni 2.9329822623396873 0.9303263952643941 2.049674848503897 2.0581451977912235 0.5610800158128788 -0.9520082810665992
Ni 3.6975089211673744 7.928782565320841 1.7602564119411055 0.6675224011385342 0.7152837276832132 -2.033203440244221
Ni 3.2303341520131723 2.7703917917334895 9.525390466278198 -0.3645718867473786 -0.6673138846721539 -0.02208140528007165
Ni 4.031873726845752 0.3798753396805944 13.261251501410861 2.049070232073148 0.7196926553841864 2.4004659864498854
Ni 4.234630887659158 3.683275318535808 5.522472271023679 -0.05217925310671658 0.15011848605736727 0.14946414030282
Ni 8.101343031792425 9.123776281252901 5.379772774543349 0.050106686848404025 0.6891062979568972 0.3509167578577892
Ni 3.944169208486333 5.131172129958566 0.28764825362342683 1.5639542304914098 0.32821468827458317 -0.08291884828241848
Ni 0.5286511694480847 1.954544625431753 12.931359320964859 -1.6050983088298874 0.9202276462208926 -1.949676268953842
Ni 1.173823659776338 8.240562278324568 5.905927745583208 0.6116201906542756 -1.2474588875362838 -0.7016949332551852
Ni 7.138137846823535 7.823995874082603 3.6786704382562387 0.07375312262275041 2.4348025549482264 0.46579441843499136
Ni 4.761533145958685 6.406110784907689 7.573298570812586 -1.2319916451386201 0.10123487298278692 -0.6355080530154668
Ni 5.304167280850996 7.494542077499328 0.07587185350767944 -0.16715050183898955 1.0110341247815038 -0.16481491172727744
Ni 8.057717363427837 7.866428472441035 7.289185133905068 -0.2734265367901097 -2.02957072858764 0.9587515133277038
Ni 3.5584006578916165 4.462479513020607 11.081681849632224 0.14747230668377184 0.3927961717003945 2.5354707567942656
P 3.853616119879662 1.1721589109305408 11.214987538319908 -0.4781089741362862 1.3399808061261052 -0.4781477977940217
Ni 7.95572375080866 9.376327929765043 9.395280170513974 1.4964005518111518 -1.4501199235770574 0.829063012989914
P 4.839646861245371 4.414516249052249 2.538876094608936 -1.2030469370798118 0.02161834960072406 0.8954954335815353
Ni 8.877976114170936 4.6779165108761696 9.053055900562493 -0.5192409682899057 -0.02111852714617008 1.0789837533485998
P 8.760352359610662 3.1772564096463367 1.5746063952392062 -0.7844998816675586 0.05094563780993162 -1.4910822249220321
P 3.212299372850369 3.7108176633290535 7.3059297327123796 0.28589021647475926 -0.00011981340731592269 0.9381739462866682
P 0.22704492161311784 7.095843977535585 2.775083608897228 0.11967791017932293 0.5756077771154087 -2.527025711350706
Ni 4.846120884534583 3.0677529300116735 12.875738212305833 -0.23851995472091184 0.7281608407561976 -0.2960838691783094
Ni 8.607306449053702 4.140942522059568 4.497709298039556 -0.5838638464766138 -0.25580625260518525 1.7515881969957316
Ni 8.84839907634394 5.4051435469532985 1.3180806212879588 0.4878192594455148 -0.9326082792734326 -1.8480282196930367
Ni 3.4808603560962603 9.124562412652304 9.254299989647164 0.7854288212397311 -0.0732962375909899 -2.2187347585832433
Ni 0.34020622440618575 6.785562538493076 13.132494276514082 0.20043188959993868 -0.024404139875977327 -0.36555019150024787
Ni 4.460010135566008 2.2084928132534243 3.6835028342114002 0.8352601429395615 -0.6598430302164056 -0.8516100450524947
Ni 3.1222272116880387 3.404624107563445 1.6299694678271333 0.7173871471794613 -1.1749496646229636 1.7117039592062844
Ni 7.484044911166106 7.311271726786448 1.263831080705776 -0.20552704473465894 0.444255515921951 0.020996399746009003
Ni 0.7983145863740819 6.122197117861667 4.475970452694854 -0.07581103359304363 -0.39629955686796264 1.103050050269184
Ni 8.116029816054235 1.960158528483969 11.067672063234369 -0.7377595401882262 0.12773369060426387 0.3122784766603009
Ni 1.329745886394648 3.4982107385113475 8.215458790590416 0.27343193610674843 -0.9377921374672172 -1.0565668191059803
Ni 7.007612288708331 3.1335382552347615 13.082302098813296 1.9304675572358752 -0.4867046862250973 -0.23754036441646187
Ni 5.197586360301178 1.3566315802542737 5.895275202691044 0.5737082460998506 -0.5164808890462653 -0.32352113945365574
Ni 1.699024174811273 4.218122128271668 0.21706197770115368 -2.2248239022001166 0.7303977005065163 -1.7256287968174926
Ni 4.768330870412357 6.2266416107260465 5.218745318131261 1.0691102029886297 -0.516987910589671 -1.436104840244888
Ni 2.6211933007312602 1.4456216546668355 6.586896960398451 0.3726338378199066 1.329623117040865 0.2773857785481739
Ni 3.4593573501713792 8.547181269906325 6.599079222507807 0.6837936274947319 -1.0645495802011409 0.6221797113376768
Ni 2.194601408995716 9.072011840753305 12.387268530832474 -2.8879209205774456 -0.09967986979084123 -1.3050346290682233
Ni 6.585986897696082 5.755462195737233 12.957565242379117 0.4560008293833372 -0.6968784857031483 1.007641039939555
Ni 0.9191966243697696 1.426708258057639 1.3926521209749767 1.4238769307201284 1.0464803814042558 0.27117219353829425
Ni 7.167955348372703 7.95670410290674 11.279298635953996 -1.087890054699294 0.2959247178926258 1.3268093017411535
Ni 6.959306826366115 5.252504575003089 10.808885930294718 1.359301360831588 -0.9394101326866143 -1.185060013584088
Ni 8.908126565489265 4.44997539946773 12.445623527040487 0.06951594461295124 0.18020810635389609 -0.7601260808088844
Ni 6.037563136262276 7.500858874508658 9.149826826108217 0.2661986515831028 0.6215428490846263 1.3110975474328517
Ni 2.3245535536195887 2.569567589302148 3.996325789825161 -1.297923729055055 -1.639768349408247 -0.1541018961851475
P 5.079259711783789 6.139510505857959 10.92677327008891 -0.8232404927708661 1.0318338351356744 0.7166494976824884
Ni 6.423211454995906 3.4437642026490782 4.241359247577588 -0.8141431584552883 0.6716405370719659 -0.5944899587318924
P 1.3304765261658593 4.974916953571097 11.056721715270905 7.353355041277658e-05 1.2958398499428327 0.1098462688008818
Ni 0.5431964500580032 1.6158052297308085 5.5589931612585906 -0.06981547813124105 -0.12295915203375597 0.2979265788140031
P 5.327538504925051 9.061616409071771 7.815705424830532 -0.7090392894353982 0.45842717943664274 -0.05741221937088176
P 7.405283793550498 6.310027030691091 5.517423457718564 0.39952937665917 -0.7018674542773075 0.24898820124208731
P 2.7463454195164183 0.3054656905758068 3.981232991817069 -0.2907120633434348 -0.0916379733229712 1.8021569110822186
Ni 6.252177008299637 3.7020962290980157 6.76507502936413 -0.628372213301634 0.7900377807666523 -0.718728234588388
Ni 6.27826732215516 0.7716527087481692 12.421624322707379 0.33274368649318825 0.2752520200346227 0.9486334510570953
Ni 6.093581934923353 7.9475572328595545 5.987822290470794 -0.21016557194793484 0.619304703782727 1.1665074473928814
Ni 1.6198006269607217 8.389797763745593 1.2554240990344998 -2.20758362706243 -0.7703315605869765 -0.45902418959069335
Ni 8.629688072424976 6.8271997568474045 9.94799250994665 0.7066381361930734 0.32420402445329327 -0.8346564479172915
Ni 1.5731414162549044 0.6827014784753427 10.020303650645262 -1.717993905980054 -0.2974468109641071 0.5048595027572531
Ni 0.6684872979136439 5.7187729808968015 6.88028212351659 -1.9760717282282356 0.47727747937392634 1.558401933214613
Ni 2.730770769203515 6.8071487818602465 12.71755377697818 0.6175738371345493 -0.5469258357996839 0.7762296712389664
Ni 6.600960388703559 4.264938565257366 1.5796283875906945 1.702035839988901 0.5116281889396543 -0.36897258691823553
Ni 7.001008784953336 1.2683998914270194 7.688477919150947 1.0515865922825696 -0.8117998550340924 -2.009083921488198
Ni 0.5880799286616368 8.961111821809112 3.7935390334767187 0.44103932297749854 0.5194304585928925 -1.3223926607306968
Ni 0.3368915244821094 0.16069265692198897 7.523403273322632 0.8880544039224576 2.29157693935595 2.4484152606356546
Ni 6.904869539108545 3.0971727415587904 9.045732855361925 3.0492553299552903 1.2906814456703448 0.01337025065931891
Ni 3.103138091589564 4.820252537191833 3.8242795457748344 0.4750856139289302 0.552474533532055 -0.6085127553735455
Ni 2.7227337317201936 6.045008263044869 6.033344847659119 0.13774350943178212 -0.018002607225007704 0.7454512524055291
Ni 1.9006345086420187 7.198864185276339 10.551412174361836 -0.8092462353743032 1.0550676088526345 -0.261716190331717
Ni 4.627039936427665 8.660208467931259 4.450237134980708 -0.3128888565507902 0.7244152576708363 -1.1875573260846453
Ni 8.551222910159732 9.028154957271246 13.346881557736321 -0.265539163622233 0.10467655167448424 -1.239421104833472
Ni 1.3825739164346142 3.9645161388238552 5.4912979991651865 1.1267399376869562 -0.23077913443322837 1.2758088994338868
Ni 5.404505393229076 2.864736808266699 10.574667790877154 -0.8643256928469503 1.075381123599006 2.69951613734537
Ni 2.761004457964133 7.179488358432199 3.6455067915270183 -0.3592052231188265 0.8176144048333402 1.519896578050563
Ni 6.740003911746425 1.1075111640854143 3.684274167843286 -0.6714852424410243 -0.762480439973674 -0.7325090904225642
Ni 2.1069246364503944 5.9180341691340335 1.6616311411532572 0.09934922592429986 1.4829053455381944 0.03171764281825505
Ni 4.448634351786393 8.379864762299002 11.132280965939762 0.7935169975645043 -2.5836365178662146 1.4815197780445775
Ni 5.2184419638971375 4.759073017108785 9.212635025478738 -1.0707361686278272 0.055266890893104825 -0.555281921073863
P 1.790853570866389 7.392363492786172 7.9283007130160295 0.6279901473718669 0.2794966542435896 0.11044302184461625
Ni 6.995052683527262 5.7232400569663575 7.961288636255972 1.3973426318750255 -0.6363377480056138 -0.9585630514659815
P 9.057380548119687 2.0611810376097655 9.038585533650636 -0.26562863801224573 -0.38781157400160954 -0.6690149265236607
Ni 5.221697472751141 6.9410130862717425 2.9066024671570903 0.5101492904012827 -2.537145316283211 -0.2520203032001918
P 7.520539905307862 1.9641354285044847 5.464469646654694 0.1808100016039531 0.8306175019612276 0.6838944147386544
P 0.07763278784234498 8.282967130868904 11.578883138801789 0.9324362724719425 0.18911003682921623 -1.9233232328816103
P 6.318924188411408 0.01829836439672141 1.2921031404097627 -1.3460300976439787 0.037466886597206435 -1.1768995892604828
Ni 5.847485812491025 0.8378902907410319 10.053643020863761 -0.00015735151347069675 -1.8571800613956337 -1.1331702666933323
