# total energy = -381165.8382451893 ev
CRYSTAL
PRIMVEC
9.33668208390147 0.00000000000000 0.00000000000000
0.00000000000000 9.33668208390147 0.00000000000000
0.00000000000000 0.00000000000000 13.66517799607335
PRIMCOORD
 96 1
Ni 8.45188200425743 6.386159782513717 6.711761628983549 1.2154730786583066 0.36605515616112444 -1.6092231296315385
Ni 4.404953206340695 4.069654281933422 7.448137336239329 1.438772102664406 -1.2978769349775197 -1.638445002611133
Ni 0.984226334272461 6.147794290752811 9.922012612128283 -1.4241705507011473 -1.557078586417499 -1.7454915971796907
Ni 3.316706897774922 0.219835912640315 2.0272429541685373 -0.6034800780456445 -0.7101975714095575 1.598340164170447
Ni 6.8310620170573495 4.652505993201199 2.480270903067028 -0.23563389142236837 -0.005868542965635055 -0.23804507196702226
Ni 5.09442048950106 7.180449994620409 3.5405519816710984 1.2180776061606895 -0.19803870677741378 -0.7607421171263284
Ni 2.0158269930727264 2.533527337262257 6.221154468655819 0.18248044732784055 -0.23865596607814385 -2.2433512715803428
Ni 6.9559214656009685 5.320433550960373 13.492955493747745 0.5074809995405003 -1.1884104181135597 0.8210679105995794
Ni 9.065227318975701 0.6282419908680759 12.959548983077987 -0.8061179741579665 0.12251306563527288 0.5893950607074881
Ni 5.724161017832028 7.6294977159772746 10.170664326461575 0.6332825061190577 0.1492013735597366 0.46697532611696996
Ni 2.349333274533736 4.687415847243269 11.013040318265368 0.5375364241649838 -0.7136161101728031 0.8752773067624474
Ni 4.3496893855129315 2.51174485812876 3.837345495793562 -1.2625924007436127 0.838476335884014 0.9355388226566663
Ni 3.0511996714057528 2.8798995665355083 12.441488242962803 -1.1380167961523562 -1.074752745986388 0.025729286445304072
Ni 9.11268567364161 6.0394140859599945 3.3250520241570567 0.9381430930487327 -0.45029837968192127 0.2575214355240791
Ni 5.287512410186815 8.933524082517442 8.103027151237244 0.5918424938067162 -0.08919593954038188 0.1514757714162101
Ni 6.5666098357555125 0.8282561275973683 10.011054681138287 -0.7871393761729347 -0.725818051555634 -0.6908631327470037
Ni 4.2189851740299344 1.6403429892867252 8.354083061188572 -1.78828323842392 -0.28304117706173837 -1.0135396648121768
Ni 0.606123391182154 4.657697188399752 7.053336671039143 0.6331956028322063 0.44382228503927434 0.13869404627050952
Ni 8.008081498191189 0.6572174498234538 7.830652795248407 -0.3747495986113288 -0.8125675864380523 -0.9695989975651689
Ni 1.537331376650686 4.688106761712141 4.665414889750695 0.36149993269027425 -0.9448495585346308 -0.31236178040272655
Ni 8.87053882566593 1.4172896560251484 2.238588088187334 -0.1982824473571037 0.1351729204911285 -0.4771391540238492
Ni 1.8618837800623924 0.46535050181764603 12.247443047043644 1.2420631704420093 1.0911383864332629 -2.541268337312649
Ni 3.6110644715605114 6.856168354987044 9.895720515583093 -0.043694098453840875 0.15312564831480724 0.30160274211400956
Ni 9.16306640977721 4.25105667674042 1.6404092797290089 0.3493422142818177 0.41501615944085946 -0.17443212310206732
P 3.2185690331490355 5.5699843877714 -0.00540127054381842 1.3522051161064388 0.827053181648737 -0.08120006581909886
Ni 7.839853161702821 7.461605500041331 13.37892006066039 0.7292005948746216 0.7538006528114889 0.885487671636546
P 8.536406986510132 5.005143136104359 8.855144504364898 -0.2155854574119255 -0.16280225217262284 -0.6430616969930086
Ni 1.9149908273454332 6.951934702381936 5.146716179117277 -0.6141990071250454 -0.18644328863033052 0.4222167909543567
P 4.972250005376835 8.304474468655346 12.153809197820243 0.7019813541473523 0.5154210803231833 0.10633234211035236
P 2.8110415366985837 3.903293281847413 2.986429240953589 0.061353720517133045 0.27469923285494624 0.3497829013636621
P 7.3339450468941765 2.7747218436727343 1.342562587875615 -0.49017901792694296 0.12145274269155858 0.207608609854036
Ni 1.6692026733851568 6.838755443035063 7.547195797711578 -0.18493687928813313 0.7599216781075623 0.6729083480407959
Ni 0.24201239975470998 1.400754392182275 4.590037988533141 0.32718856100291394 -0.6558344232776447 -0.2650884492380596
Ni 5.75762368616227 5.2222676762884515 9.228026374874213 -0.36171050603918353 -0.0762262667535913 0.4745608517737117
Ni 6.953512601641928 0.31191146963594873 0.5154287294560634 0.09885685966891361 0.11638021326465764 0.8659398314116055
Ni 5.145762903883874 6.843050316760484 0.5847470577161691 -0.1659060879089272 0.7105595827346666 -0.7155542077357806
Ni 6.677408241189382 8.296407575397163 6.173886582302949 -0.048543713236658334 1.8153009046633448 0.3698087096662857
Ni 7.586782395773351 6.226614560296312 11.428707534093695 -2.143951394923766 1.1374771215988022 -2.780447265773798
Ni 1.3803724153505452 6.121530204253656 1.293296651572223 0.16217387456000457 0.6661797710677108 0.08630396270456749
Ni 2.9525389525872066 7.604326021273498 12.478535263517369 0.6076030990750827 -1.4736195493608943 -0.21527332548814537
Ni 4.999578473625334 2.1731034015612676 11.86576135373822 2.0247810205084806 -1.052427600126626 -1.4341723991088655
Ni 4.898947714902301 0.20539766757728853 4.403576045743957 0.45491865206275206 0.3963396660772787 -0.058535277231731436
Ni 6.926464233853784 6.887642310048776 8.160229267250655 0.2406182320108372 0.4586020144516102 1.2066277124525349
Ni 4.411516893794981 5.114466345780365 4.8039796538194155 -3.260635491036617 -0.25851285290307097 -1.0995361235786547
Ni 4.229983785439819 7.692361595962632 5.670228607859145 -0.8110452362562548 -0.15141972136729406 0.4284476023554169
Ni 5.9702852923447285 2.7666829604605865 9.044776250697083 0.601475646021106 0.5559774044789909 0.3347175223901074
Ni 3.9344031063106852 0.11879433990876279 10.523881277317665 0.3100405884687176 -0.010699131585058995 -0.1422632516790066
Ni 6.282139808220405 3.8935551225091203 4.825898448510285 -0.8835014944444527 2.440678554113029 2.0496860112802766
Ni 0.9054779571804512 8.960469746803456 8.110119294893398 -0.172761934488496 0.9282489738634723 0.14032952499140347
Ni 5.039623502773885 3.9719832514081252 13.393199582129217 -0.5267719865596283 0.5369568975124301 0.35219845278369016
Ni 3.54975048078911 2.5095694112200135 1.1625905727528232 0.9412217319740563 1.6538335692520614 0.9270618955339066
Ni 2.4316267897856205 9.179274889749673 4.7041555844222005 0.2483325699359594 1.0016974207616103 -0.5165775625251298
Ni 7.65764781224281 2.311286295335706 11.37982720275739 0.6511534728622076 -1.6767865785038092 1.0888002252183893
Ni 7.325187239167121 7.310958135781157 4.253094874423594 0.9249209379315038 -0.9641598288274686 1.3413267786310383
Ni 1.903553391880995 8.134556192722846 10.168368436354877 -0.3749252049572446 2.895973101457961 0.26197638597163914
Ni 8.862443922361713 3.276335084755958 13.301192182912269 -0.8682617946765628 -0.9258431926354571 -1.186899895006304
P 8.989805601684491 8.686680883489835 1.3578551393427198 -1.0235780228847855 -0.212425314516389 -0.6197003965592489
Ni 8.342512111171365 2.434791924987616 9.164141995544968 0.7204999817768302 1.5605763151581125 -0.5866807471001187
P 5.320452224324397 8.65493616464976 1.9303020521765617 -0.029544289316020083 -0.6526853361257017 -0.2485202604667333
Ni 6.19906201167953 2.1383522711133987 6.399375855901401 -0.3916967679886286 -1.2817568894872053 0.77203414510038
P 4.071540291699804 2.27989637041208 6.128668097651667 0.5046548429456148 -0.4945452653154386 -0.6044604396810428
P 0.2989549560081928 7.462632535062628 11.407390021724384 -1.1628114865985328 2.218928362651288 0.07881948140206425
P 4.364161242631201 3.6207279374427097 10.185340656915901 -1.1272762698064005 0.32924287242878136 0.5942727005147637
Ni 1.6122582497952718 8.642163583657636 0.4119950987930916 -0.5450527871466871 -0.5573105214681175 2.1682079534782854
Ni 0.09948141316738268 0.5671025960502951 10.312577224699721 0.7897644725006076 1.1791382487830144 0.8256388177997136
Ni 1.6615185840894566 4.209741858838266 13.536807088152504 -0.9716432816887073 0.367408070644593 0.5279058430537553
Ni 4.435857623799708 4.976526205738234 1.9814101158408792 -0.6016713069716799 -0.3213529281577433 0.1879232156099667
Ni 8.956632370496614 2.649656988124856 6.3947980807110225 -1.3966756877149882 0.07910770206644441 0.5806533099591161
Ni 8.713757261324014 3.5743339645261436 3.762132920179416 0.759777182109898 0.13712927288655094 1.2800116246613247
Ni 7.124308525683537 8.956893797592944 11.894908607642614 -0.814114876320514 0.3221628256535484 -0.8284775728000893
Ni 5.44047527158591 1.4333207390393858 2.1004882908828004 0.5510560559179736 0.8445184283130358 -1.2328887030315927
Ni 6.763100308693557 2.234099945144268 3.8427028839319255 1.5938579600293774 -4.046805561317747 -1.7191843267437295
Ni 2.9542662387593865 6.768954408314947 3.1576397136765197 -1.2303170856496746 -0.12860580879657205 -0.8553743971909334
Ni 0.45294485242858545 8.37933598502585 3.3279351915622963 0.41775746963142246 0.1604016131509302 -0.041634901931967
Ni 4.65334629458226 6.6745792265398105 7.812505086422098 -1.2446607559658562 0.19533287781047648 -0.4238646109704249
Ni 7.424809636232881 7.033210519294537 1.959750880909937 -0.37514503427753454 0.14500224787672447 -0.6829235661849529
Ni 3.840989602782763 0.5160356137868295 13.526325728926071 0.9598935973519468 -0.41159839200856213 -1.2577332728790984
Ni 6.0284061378680995 6.041972336831224 5.988135161014862 0.79957477372281 0.04088979623582636 0.7083412349271091
Ni 7.060286897128718 9.194185570922494 3.1700210876923496 0.767493062696917 1.1829321686078078 -0.5275829124966979
Ni 0.37430197984330876 8.685765888652679 5.8135905591455215 -1.1739973280120233 -0.3879910370022673 0.37360982857993075
Ni 6.474988975173853 4.141322653055895 11.072674639942848 -0.06131592530066214 -0.20709284655988205 1.460420534172117
Ni 9.001000283416621 4.257256233596246 10.892417856018698 0.49432363622293585 -0.7388427459500759 -0.3197303049526558
Ni 2.9296267349302827 5.066186363097418 8.754760234046975 -1.2804014039005756 -1.073614004396254 0.6258882705375156
Ni 7.992666636189728 8.362175163488187 9.667115591197307 0.24505749872911342 -1.7616990601774885 -0.2193510951019448
Ni 6.95670574688996 4.082762983477971 7.453753350469419 1.6502648780641966 1.5536243093203115 -0.4574792137010767
Ni -0.03342812260679877 5.850701069137768 12.64011214774054 2.677861792300388 -1.6567646268559273 2.517234950512529
Ni 2.5061615222857117 2.1574737958735373 10.07476166350931 0.08859327295937647 0.17107143415995052 0.8679177810735828
Ni 1.4827958170198419 1.9060742960241772 0.7352002189904971 -1.1953387698022768 -0.9219263740795541 -1.1375853650418926
P 0.8282710662885873 2.3434324915022864 11.62107212725073 -0.4088871637249861 0.42138066820630654 0.1632226275394931
Ni 4.696995282987361 5.611308542355566 11.491061631241209 -0.19861617654743857 0.3377948757638505 1.4562548328302014
P 3.072057819020084 5.564867886028941 6.6000211523346906 -0.27344402029160647 0.03221772238312516 -1.7525500466883688
Ni 1.28558641956689 2.8121059184479273 8.205666230261013 -0.5460020384338339 -0.46952688889423005 2.0796799865392055
P 3.085810751623445 8.942776734391122 8.066978221989737 0.2102715013981798 -0.23048602867284176 0.778306351262337
P 7.737756543903937 0.8556947686936062 5.5019013025414525 -0.11358696679023664 -0.9698617643082523 0.15399725228648317
P 7.756252510969286 5.304831955318678 4.8965472539570705 1.7690696416099467 0.15952049609755753 -0.07898377489407044
Ni 1.8471131491197463 1.8843851837107974 3.056285362097573 0.6638657782225534 0.6904772101624947 0.21373683423896095
