# total energy = -340889.7482805623 ev
CRYSTAL
PRIMVEC
9.06764336236602 0.00000000000000 0.00000000000000
0.00000000000000 9.06764336236602 0.00000000000000
0.00000000000000 0.00000000000000 13.27141263225843
PRIMCOORD
 96 1
Ni 6.412837011289982 2.3725398689053967 11.811464438139891 0.36505911079644227 -1.5277448704503882 0.2013037506819307
Ni 4.768020876008649 0.5698751013574841 6.079740752300678 -0.16402121218138851 -0.9894294020275346 0.4831912737552001
Ni 2.5303440697185495 1.7285558235252831 4.7183320028479345 0.36826964731393996 -1.1152267948410342 -0.9644953577900164
Ni 3.430688533727029 4.095337738772325 4.5299707500138515 -0.7608889271168381 0.6539284645041835 0.5299429280884422
Ni 5.153286915435715 4.310948167257939 2.625921566625464 -0.2106566526517404 0.23974817070105806 0.7705321066335569
Ni 7.30289876750543 5.736136907958144 2.5700621620245756 -0.3953155956881385 1.6610923076970037 0.8248371478340246
Ni 4.973085635038095 4.707938669803515 11.635990120328255 0.1597488100582797 -1.128014690634322 -1.1580575168533151
Ni 5.965575492867367 7.717679986708789 12.663967107980108 -1.5800339096620917 0.28707755191464107 -1.5962727401184573
Ni 2.03544115205027 6.581866954826038 0.2244658891828577 0.5362603856660377 0.3198573174488233 0.9347371526909772
Ni 2.5484249509701398 1.8288983671211203 0.4012051432706198 1.462438078822778 -1.5976320823598291 -1.2810369806020454
Ni 0.5350734853877731 9.310747080213378 4.520787040619864 0.3146965991834903 -1.2028515332395544 0.6985067653351905
Ni 8.778313185864892 2.507339458015799 1.4010234706222269 -1.5037094267677393 0.39193665191357663 -0.6072585712514703
Ni 7.000420313748886 0.7312855040130429 4.9572308602796165 0.0005165346251023362 -0.4005678452260134 -0.43471543764199977
Ni 0.8562893177893964 7.163964332933281 2.220931588934376 -0.06489232979801082 0.7060884343371904 0.8365333532250302
Ni 7.389141125370965 3.757141837046866 3.9112310242949353 0.9568195864123136 0.0032161929444525254 -0.48798766670257887
Ni 7.846367984062133 4.252833639704558 12.704272783588594 -0.5178921675714951 0.028501192763486397 -0.5974408138301002
Ni 7.958625411291165 8.788713773024156 7.238520311783243 -0.07957101485610812 -0.36438342488565634 -0.5488683042380353
Ni 6.658325325294147 0.491079999144874 0.7009560498453802 1.564164546730003 1.2368546296578762 -0.8336758291715772
Ni 1.9556458887533819 6.5498128348539355 9.261707450331308 -0.7885252007768678 -1.0916276673648555 -1.385000308259589
Ni 0.12522597104348693 4.973947061175958 1.386186085470784 1.0996140280044417 -0.01633550393522993 -0.29773606006975173
Ni 6.755367246635431 2.0396666739475826 7.0813472189616204 -2.169010651885239 -1.0393442845801069 -0.3014114520388099
Ni 3.386266147943909 4.527374683663635 0.24605594849079981 0.03328395886411042 -1.7343677193523872 0.4205669140557596
Ni 5.859756092563425 5.4769655198272735 4.942513168023119 0.5240705284680652 0.39541689715269324 -0.06340700350173596
Ni 5.31098230452619 2.935250625088918 9.439664488948702 0.30942120971716386 -0.636905961804258 0.7496346943592573
P 0.39196068066480416 5.8006713271495025 12.353919892146983 -0.6579751237697314 -1.1714233966372598 0.24169680978699667
P 4.182495928637063 6.315142219612632 12.635154670579443 -1.3728942690246744 1.7735179071892875 1.0354714318882619
P 2.392815119897651 8.614923316620956 1.2497089823024357 0.42908652149099646 0.30251111286089194 0.8214990845997271
P 6.355003580686851 7.909868691888056 5.896820992364829 0.1759434175402712 -0.8202652121926259 0.4810320613203522
P 4.939344933364491 0.8140522341033843 12.638273939962867 -0.49019547298717514 0.86322191825981 -0.404652042597716
P 3.7838913855384364 6.087843598582735 8.295083952511206 1.521362363962812 0.46773534421144614 -0.9449536882126628
P 4.775247787923151 0.959828205738887 3.9917090811516256 -0.4732974116802558 0.23726217105441072 -2.1093122075833413
P 0.22115619928474814 5.75130707562811 3.7753723344171384 -0.10431376901842679 0.17977693235374842 -2.2766084909715762
Ni 1.4888708013972556 1.3476150500746504 2.388284018412486 -0.4436376798322941 -1.9143320851265935 1.1861509326554216
Ni 2.0615106272751054 6.605923413181339 4.983295801682673 -0.24246994050759527 -0.5621830190690704 -1.0509533295739448
Ni 5.710974197088955 5.609480062761447 9.27813802045562 0.7432886975365716 0.6404641114691614 0.35443454120306056
Ni 8.441504633603573 2.4702709311569713 10.315603390324958 0.6845927263572598 0.025411240984253014 0.8981475264924016
Ni 2.6662136407686146 4.8198061883596175 6.900523898216027 -0.17323167503606293 0.8439059915400176 0.26104487529630527
Ni 0.24556720250310637 0.11689189985074035 9.31547041574194 0.7389743864319338 -0.7986394063927342 0.10668535457439692
Ni 1.4633091142115817 1.0797840623473567 11.414874725439512 -0.2796362651452474 0.09493001381068168 -0.19437874142732328
Ni 4.246250530482564 7.126170394589936 1.586995399379181 -0.31532214858263113 0.15677841457604613 -0.41216917691036753
Ni 5.466628406172904 7.768576669991225 7.895349581025444 1.5403314488661473 0.5442963685966368 2.020572381743772
Ni 5.345348673605192 2.8423344815658256 4.863176727490187 -0.10453951187598769 -0.11932644037717513 0.542980992219323
Ni 0.9987102613090071 7.395089499544006 6.930889622957915 -0.8361893396220501 -0.047582634874969665 0.7253891915483314
Ni 5.1244880795003835 4.213362187303267 7.508355248736515 -0.27504607467140374 -0.17837490979989926 -1.937784916832895
Ni 8.046563418501758 7.006395890852595 9.114925877025392 1.0388717158190623 0.5182446658149075 -0.806252957073934
Ni 4.330298518607435 0.51700983265894 10.099200449792507 1.2836044842189054 -1.5966051837572115 1.884867242898257
Ni 8.174444395578577 7.232923762180193 4.873010586927173 0.016774134134545305 0.32574822901196154 0.2272207276580087
Ni 7.180630661790063 6.0768445469487435 7.060577781395538 0.32254746268647677 -0.8154101980931698 -0.4369263292503894
Ni 2.938904885442173 5.445809096567261 2.4339105872599047 -1.7338159606139751 -0.8174745368213664 0.8934825169165644
Ni 2.4795108599410094 5.50588223512884 11.424947970666388 -0.38314784997735307 -0.7984054360050572 0.40823744595612915
Ni 0.9736200915882696 3.6095115323040665 3.4982379444009117 -0.07703899246287377 0.10051933497300108 0.8843766979605544
Ni 3.494307120919184 2.584387225315078 2.6205462675251923 0.9525420420828822 0.13498368729845786 0.03577510071708032
Ni 1.26074702480372 3.1604546204572723 8.160393175123481 -1.6361767754022467 1.5174743417623155 0.4557650592234473
Ni 3.2476400132526786 2.212840530588943 6.897431831763273 1.3017153348870034 1.3105460458047558 0.5540017688098589
Ni 4.155048171591644 6.936765455982504 6.231060681206604 -0.1814571482696488 -0.17797124660357738 -0.9173102154637814
Ni 0.7473887322049683 7.537741667974306 11.150720667174365 0.06631646383904707 -0.7156997321747094 -0.0036625364532517565
P 0.29336456521794235 5.414453185149008 8.030558120860244 -0.31766905154825287 0.5372075800706555 0.17871815207193092
P 8.454190266939067 1.6857928165129963 8.195588326823541 1.491046229477774 0.8793157384978791 -0.05656067000386388
P 2.040872670540592 3.0291914123338906 10.385026176157606 -1.6931051131581745 -0.13116945575869024 1.5999882412968316
P 4.06370073040382 6.20052720505892 4.137575729222693 -0.5996365359298382 0.16653549396280995 -1.5218992103028888
P 6.721037148130655 4.1058108670800415 10.631742249099316 2.4202058880809743 0.5858711067146297 -0.7964768515237766
P 6.287277350963617 7.922799151599573 10.14724263888337 -0.6291034350407037 -0.7121518669224509 0.20119113636346642
P 2.4518454794502356 8.747510400703582 5.68682706229809 -0.46615360154662294 -0.5090568286680522 0.9260100572306247
P 6.89832771494665 3.9204228945681234 1.4245530988868966 0.7730926682718815 -1.4383401573333099 0.3377977039773279
Ni 5.122420656769509 2.7070452397033744 0.6126698451222187 -0.07576681061866951 0.49306148168106056 0.2978412181890483
Ni 1.146757677655404 1.075612946311383 6.923124999780514 -0.35162483966840735 -0.8305550241544083 -0.1724713998312707
Ni 6.814497350267136 0.8366986738856547 9.413320264124106 -0.8990026754038453 -0.17879579938740173 -0.31713297653912476
Ni 2.5558332157557713 1.4401140819941454 9.066352324022123 -0.8151392038199704 -0.0030328732890528413 0.23525285393386583
Ni 6.415312477980897 1.8154057135091008 2.750685994611927 -0.12280360029249819 0.2697915111406837 -0.8856306249723135
Ni 4.11961182057298 6.936194194438447 10.581390531194623 1.0921886820746478 1.5358937248097677 -1.2378799855985971
Ni 7.989274046512016 6.987299433522681 0.40815549205664986 0.9272035633180935 -0.37189336010945634 -0.09735867785683233
Ni 7.579071987304672 3.8551267933180218 8.455840578066343 0.5009169731697374 0.9320572918659691 0.008311348079172784
Ni 3.2362510529457595 8.508986036950782 12.33179665539792 0.1684386245227938 0.11272076213519942 0.16761201485644037
Ni 9.62992813340093 4.745451511196609 10.330812548862216 -1.2427036322394855 -0.5244042576584002 -0.724664654677481
Ni 8.634173923891332 2.5012641368329676 5.589467773432331 0.5983666680784792 -0.13676623312017738 0.2086900158436729
Ni 3.9166779577793034 2.583018011138052 11.60104614235471 -0.9850114754654972 -0.4208651620224687 -0.02637154801499329
Ni 0.9977490910920218 3.259192191143615 12.585918272832195 0.005761070853493304 0.609781337673324 -0.8322524664614892
Ni 3.2407667394368787 8.585607625002908 7.842051785729257 -0.9982002062416292 -0.2830020962936868 0.00997768003800217
Ni 5.762025030311851 7.929618019554035 3.6014503971823695 -1.1741459377747456 -0.2287731597467931 1.5852992718260892
Ni 2.955154102695358 8.371792589941473 3.5609987325126253 0.698569757362642 0.44079275418433117 -0.8206318515034254
Ni 3.4442899990617257 4.296829846240524 9.533506438878911 0.2130004702935687 0.6517602532082711 -0.7187272061471235
Ni 7.371976076118577 6.2120703153063 11.126367696874768 0.1575890834027996 -0.6829294797222238 1.6490826848306375
Ni 0.6302619803861156 -0.46999772787609384 -0.005633726941631433 -0.030688944443424564 1.1101550367450816 0.564057610383964
Ni 4.503508645823021 0.47452066848205837 1.6307649148262355 -1.1256670163377516 0.032380473213234555 0.5295775743292235
Ni 5.856310388011969 5.5147685258141745 0.47710222660258383 0.2352348562117368 0.3228894194069278 0.47434847865258944
Ni 7.950491735021016 8.845731115707206 11.354370873809001 -0.970940856305044 0.40271985857200965 0.6032743897927417
Ni 0.28885341254860125 4.991220922151024 5.698598677163091 -0.6900871738129276 -0.11069344729252548 1.717172438520023
Ni 7.9452778399760495 8.673382414629485 2.688296979886028 0.6253676221473552 -0.04974390419234659 -0.012400944767514127
P 8.50798859615957 1.6427940507682415 3.4152653788018386 -0.37411813567491703 0.7753462401927486 0.3139512363770335
P 1.8083510868221715 3.478202985962903 1.4794966714885824 0.27402303272352807 0.7486887855062203 -0.11823012198920282
P 4.839773139470953 1.2855379622870942 8.20130819637896 -0.08871720013175044 -0.25992901652430717 -1.0234438112997666
P 8.443145877087293 1.3196504373465139 12.795353636055856 0.514178980385966 1.1141703285520617 -0.8164437815640069
P 6.335553485258234 7.623258614355323 1.6065579335878977 0.4391660172141856 -0.590330428037564 -0.3831614768241079
P 1.6127166770914487 3.2992439727325187 5.805672132570892 0.48790410584983707 -0.5774857108644119 -0.13896041255801875
P 6.900259123024178 3.898243438429011 6.086230464794041 0.2604992872054804 1.4720205803048907 0.16163599977866355
P 2.2921642764208947 8.439246790358013 10.010056445988905 1.272120651949022 2.263838335790101 0.5146186390265459
