# total energy = -340875.52187070454 ev
CRYSTAL
PRIMVEC
9.26392873001447 0.00000000000000 0.00000000000000
0.00000000000000 9.26392873001447 0.00000000000000
0.00000000000000 0.00000000000000 13.55869610864170
PRIMCOORD
 96 1
Ni 2.267513278617816 6.6699081699086715 2.7498119300403907 -0.12005046302739324 -1.0427147437142363 -0.22605858902910744
Ni 4.412325822763426 5.518614913736351 2.215707537031144 0.21396566242031537 1.3989392869381843 3.382775232492871
Ni 1.1661340698095015 8.571820505835236 8.255158118825097 0.05028280741495211 -1.8632334666785653 -0.9777817904862774
Ni 3.7320199611778513 0.2886732794932743 8.935940146341354 0.776886845206991 -0.5342330708233638 0.26090475017401515
Ni 1.6405213261970242 1.1182766145974654 9.567137922352208 -0.9349574962318994 2.8092569909166394 0.6360047901462272
Ni 3.5252861302619016 2.182488941812538 0.66898348803541 -0.44465609379447935 0.7075439358367944 0.0641438816677605
Ni 1.2882974964221843 8.58030626444426 3.482930522252813 -0.5321661609920061 0.8638628942779186 -0.14746896424966216
Ni 1.84165974423104 8.525380431700908 10.837384653872988 0.49386932229433655 -0.5375677916235516 0.3876372532072744
Ni 6.0393496049720765 2.119123670103222 1.236640904086173 0.10395767123058869 0.03656391516696284 0.5730397592779163
Ni 7.683891476186915 8.247342142254753 6.850965169889429 -0.10814291295652989 -0.3142376572692008 0.8623955657037728
Ni 2.73962160856667 3.0164092676501415 5.625584571031717 0.2867841890439384 0.7527166757186907 -0.7808190903818617
Ni 7.337716991796019 9.011384654568472 0.8339722038378334 -0.5918820887954 0.8301354201184864 -1.1366661956617328
Ni 8.950585491084812 4.32038133128463 9.624993009322823 1.884235265741213 -0.2672844284481139 0.30781735556515377
Ni 9.015507102801024 2.3438758421704318 10.96048373727553 -0.5378105037619769 -0.9381364081805134 0.22276423454855185
Ni 6.362781144619349 8.204088859563116 9.073926363024139 -0.050666416006615964 -0.45353308456913505 0.4724312070252186
Ni 4.3393168013685255 4.755044861781869 8.968223084770099 -0.24041357219919884 0.4156612492240261 0.7121230705670445
Ni 4.484992078799665 5.684152054112633 11.553581754081867 -0.3190240229142506 -0.8723241376713945 0.675855860704894
Ni 3.980895403351941 1.1526828454641906 6.277892987564675 0.7596527407168916 -0.4583559598790751 0.06119714033461073
Ni 1.6473210497985795 1.856046625366211 12.419806325384025 -0.1054000601040701 0.9072808562522373 0.5573277478592983
Ni 2.761503007949332 0.09864879661564233 13.360223848157759 1.2126042417509437 -1.089233713211382 -0.23869453262556314
Ni 3.2825526727578813 8.177001132300244 6.724137355220366 1.316533116626126 -0.9238122782483573 1.6171773514816086
Ni 7.59996954688652 5.448839003427204 3.441698628784418 0.3093988411196607 0.5330272234407207 0.6506155980808667
Ni 4.807812199158516 4.254746397065259 0.5143926057076263 -0.97621958820548 -0.8673541952606288 -1.1261197876044542
Ni 0.13064918522170815 0.9593168635360395 1.9087389249210966 -0.03377683934012893 -0.0845044476019835 -0.21917523164571287
P 8.055069303902874 4.1255794404215465 11.970091690070102 -0.9457949531670355 -1.1413605158136086 0.20614976592032236
P 8.912779398417308 2.465298154494117 8.662596815915999 1.4069495588371705 -0.9003676740721719 1.0003555620217353
P 0.7402082767795483 7.285746352280046 12.23601831924831 0.1099318865361526 1.6171243867564857 2.454526515739715
P 3.1592497829258646 4.095971924576082 12.53232970788257 -0.2193922327525254 0.25629424798519734 0.0947189262411401
P 6.39810450441871 4.451021252577727 2.0053718906706646 -0.5471243249637352 -2.6242568624907388 -0.1580056021149279
P -0.01755143914919154 7.912108357555189 5.446921370204422 0.7281868088981266 -0.2173201807148451 -1.2433471793607553
P 0.9523781810052971 2.8659815948408034 1.054601927672493 0.609983426381801 0.3333916044898323 0.44131545945702055
P 5.44668977198911 7.437035570450344 13.193817751277626 -0.5177782677014502 -0.4177461567775128 0.4096934616763654
Ni 1.100156370231468 3.824353537658371 7.076785472925657 -0.9141457016928708 -0.8645239249006853 0.6770311119599179
Ni 8.238402451143717 7.045245501571632 13.702010935957786 1.7305786846236002 -0.46254274426691305 -1.3838073163927522
Ni 5.170226350407075 0.37387177815646694 13.027954520614186 0.46136466479841187 0.6665610656665294 -0.44505101524005286
Ni 8.16409647974307 0.007362970461193621 10.337420616979287 0.5261222687907713 0.41542779305698135 1.751702868196725
Ni 8.445034378844928 0.728048444082816 4.669072825079534 0.08563419033105253 -0.167621270827821 -1.3035181924236972
Ni 1.406681240160978 1.8721380693660765 3.817301835198556 0.12420767972887642 -0.46331510365656337 -0.008828911145539634
Ni 9.341745612817876 9.34748924855761 12.553495005583487 -0.5952407208549878 0.06134215055290725 0.6155871457218237
Ni 6.348977890986765 8.545742546791125 4.758383581653804 0.33473089212654605 1.0538645896834689 1.6396035416956085
Ni 5.186243682978041 5.692017129504623 4.922511678488128 1.9299777620836505 0.907260030316631 0.15103122767962374
Ni 8.350764641284403 2.3813762251937227 13.626760970231528 -0.379712599043559 -0.17605731741031616 -0.9004044408473784
Ni 6.537924978966767 6.468130540800394 1.5798731647497466 -1.0358504124942352 2.530511613016777 -0.25720518983524093
Ni 5.819460995426415 1.1734340455561303 10.253113308248617 -0.38433030032122845 -0.7637713908709556 1.306921047457659
Ni 7.031303289009859 3.5868264080345607 5.281640840650705 0.7049723184548762 0.6011012934008229 -0.9947896378981836
Ni 9.172854930283878 5.375227826672492 5.15249426464994 -0.10027945104805311 -0.42323237670306463 0.39242541862453706
Ni 7.612262780155273 5.944348017051165 9.01500036590592 -1.1705024274848872 2.8807362299035484 -2.140643156486139
Ni 6.056172899332328 2.979724110344748 12.564585780918339 1.2314023482940535 -0.8734415391052892 -1.1053797268436252
Ni 8.46481286643256 4.650770081319871 1.146964222331711 0.08855264952942814 0.2955058851876523 -0.5220560691411977
Ni 6.527660546064147 4.499925531722972 10.3108998421475 -0.7759761604672636 -1.0460574349342242 1.3066461965297176
Ni 3.014037701925348 5.323044116798432 6.863574303123866 -0.09702494866649741 0.37285803801557077 -0.04679382042508716
Ni 4.504946581030932 8.023988823408027 11.148068101356637 -1.6260065197374642 1.3706599803775168 -0.5414223894829514
Ni 2.4636306473438716 4.566320108088567 1.5603077475202034 -0.36037944593258575 -1.0388717158190623 -1.986181562968728
Ni 5.3022651249206545 6.3931205108252 7.294483163354469 0.09857609520370121 1.381523148344266 0.5854661579667273
Ni 6.369340006076981 1.3052226939971725 6.2228448709636375 0.7390535764093014 -0.06455294418072109 0.09398384784732847
Ni 4.4890404156033155 3.086166650102064 10.811744878652247 -0.969123343480331 -0.1296897858893702 0.027656071154371725
P 5.883178296423005 2.879553250258076 8.860892134258846 -1.1785610361233059 0.5738712540402762 -0.2626865246647863
P 7.223928156649013 5.698622310605317 6.592468211458424 0.6043198003381205 0.381184298493079 -1.099952385180467
P 7.305265449866527 0.7637173484194212 2.665775128025202 -0.3576075396144035 1.1552580997313073 0.8995235809043217
P 3.1923683277154558 0.7629938355947871 2.3174254731960984 -1.014225378025292 -0.39563261270792505 -0.12106579166578504
P 2.138587184118028 0.941956261316265 7.419806516016866 1.337423329811574 3.0791675441336905 2.243347672035917
P 5.264181114394778 7.4493843872907695 3.5011674921193277 -0.7302460054200005 -1.576241532499195 -1.6232502971485656
P 5.248108198252137 6.464119259711193 9.676204006692576 0.5716228243257316 0.8023178836855859 0.08297309855912162
P 7.2335626424059845 0.9341838252104 12.187721753820043 -0.04707407066966732 0.18672765263996877 0.30089697429623663
Ni 8.071142220045514 8.009185065485294 3.151067881175328 0.6161982969432613 -0.4047988525882254 0.11853659748602811
Ni 0.7753889720782762 4.001776298444455 2.999468321396512 -0.45389895254898605 0.7230116924550902 0.7658285305103004
Ni 8.616231779603432 6.076581334065606 11.263357692938865 0.29538221512559454 0.1185725929302861 -0.27932284766988674
Ni 5.020669486887309 3.915584706634006 6.735580159842492 0.748160423806576 -0.45169243181597046 0.006035664671118637
Ni 7.791556854521077 2.9707288356620367 2.9094386839619144 0.17833891435564125 -0.899766035932431 0.2519696524679144
Ni 4.453763375447019 8.103658609475296 1.5302212865654745 0.6031622896949096 1.6952378432304611 1.31747259772126
Ni 7.518363599739245 3.835220125920802 7.583446403813313 -0.20340717017817872 -1.1332569128698677 0.8952012993798841
Ni 0.7651866074973596 4.270495075706463 12.775206756280083 0.7125190204538826 -0.03102858717103043 0.35302146290561787
Ni 1.6868224414021646 0.27014634866118936 5.645908704014621 -1.7048666245694766 -0.9136551352096975 -2.137980007831679
Ni 6.466935494009385 5.426346184756119 12.844830738159985 1.1158577435568138 -0.26973880352587737 0.4979370646058069
Ni 3.2224019842770932 6.756859403865344 0.2932783784065347 -0.7155233544978451 -1.5182058206117015 -1.5661185851325803
Ni 2.044595364415876 5.982608042220679 11.39179928397222 0.8266662306229633 -1.2033742385122437 -0.6040976570249854
Ni 3.6706093784057674 2.9484212955632016 3.1341463891717845 0.0266962783442637 0.4536924929651348 0.322455931413935
Ni 6.708548016151296 7.402425533154144 11.433627774443258 0.5293996539904625 0.4586112704229908 -0.3414702677329087
Ni 1.229230687589056 8.155870111135194 0.925714741672877 -1.037443468012968 -1.080989470924719 0.4567739601039359
Ni 2.0282723222006984 6.969234967306289 5.285532617060806 -0.8934930584395258 -0.811261723142435 -0.7049224390535472
Ni 0.26415443963464175 5.98130182828632 7.411779321874158 0.01840061399437476 1.6539785794703579 0.8321570785342055
Ni 3.6245028057014888 8.753967870213682 4.345683899503878 -0.3594199102327939 -0.9289318588631098 -0.5596219432101136
Ni 2.067180822373085 3.3883745292981615 10.678178482310472 -0.08834233329083495 0.877879777382301 -1.03990195685579
Ni 2.956777359171652 6.926806174261163 9.239532982865015 0.23251051530203828 -0.32828256539804107 -0.6765158628863962
Ni 8.981249094792098 1.5500775911534492 6.722292907033622 0.48225050710848555 0.23476511566416988 0.7731291779367717
Ni 5.1597210553605315 0.8455169116746974 3.2637274434244747 0.7062699542203772 0.6346192226526103 -0.03428720331764418
Ni 3.409616717606563 2.8908274513794563 8.191337061828047 -1.3517716281134462 -1.72646311979333 -0.1484799220126798
Ni 7.364693551915541 1.0109169459075147 8.50145170409489 -0.6076815177215019 1.0096876380559385 -1.802125286513335
P 8.952364165378405 7.633477176677835 9.310389993643238 -1.2841644704874335 -1.689597100004916 0.11739451346178492
P 5.326434714670596 8.949584986794665 7.405773516954692 0.022785373325631724 0.1253513064150164 -1.0737780407779443
P -0.016734360645571413 6.501480683805298 2.0805273643250755 0.8998118015687019 -0.07916452344630882 0.3218771760923295
P 3.348882401623189 4.929493901483349 4.562203218213184 -2.441681027235614 -0.12564621194761585 -0.7980195134205482
P 1.875964071883028 4.896486523837107 8.966053472689058 0.8361029505558311 0.24963509079746687 -0.2505115798651492
P 9.347303969985358 3.0687875200250647 5.174418278104219 -0.01153808254658658 0.21759606008405105 -1.1486411086354216
P 3.43013631948319 1.0710491065310777 11.298136333735812 0.4658671806544557 -0.67771502540082 -0.43093900131870294
P 5.052528137385605 2.5779753182076273 4.934131424146754 -0.0333682910478006 -0.3636182645848577 -0.5616487438321552
