# total energy = -381175.8919247079 ev
CRYSTAL
PRIMVEC
9.14406252866968 0.00000000000000 0.00000000000000
0.00000000000000 9.14406252866968 0.00000000000000
0.00000000000000 0.00000000000000 13.38325980671938
PRIMCOORD
 96 1
Ni 8.453621834106483 0.2658681911464587 8.8666371944761 -1.1388932852200386 -1.1133642877109986 -1.478325439476996
Ni 3.3631222034472144 5.503728962092937 11.607020390564323 -0.43405672101207826 0.6890314788549037 -0.41243528608756064
Ni 0.28561022222710064 5.861600138750225 1.4487779577545357 -0.03681819726961401 0.1651434987112898 0.10132486159343194
Ni 7.649886166716403 4.271721980347625 2.486529388747625 1.229225909468025 -1.3970001609339424 -0.3202548099975582
Ni 5.7446018582144145 1.8939913912326083 10.13277347534387 0.23197264052069727 0.2195207879105897 -0.7459040236722315
Ni 5.1906362598228215 4.170204597736561 10.815172918916689 -0.1553689358230292 -0.35871542796660155 -0.9045539442393775
Ni 4.003252303401053 8.554261386711183 5.632064051398445 -0.19010556797326614 0.20511078313284675 0.07821810037263949
Ni 1.6835682234569103 0.017771485597604254 4.9241965647659685 -0.9413482302495917 -1.059231767532653 1.409485952105779
Ni 5.880921542952816 8.651755381793075 4.0895228760890685 0.0014308189092556002 0.5149274285162163 -0.2211125578777418
Ni 4.080126437395939 7.853716465381798 12.024109430807226 -0.4087483241542767 -1.0422185208041082 -0.17125526803598248
Ni 9.102173615683885 4.4305086268114255 9.274652581434463 0.9883312838673495 -0.2826794228469454 0.543454846531948
Ni 6.489632643928847 2.786872524581548 12.288482567724094 -0.5559714909417199 -0.10825372750278131 -0.2263208415515586
Ni 7.833197188983021 1.0638568152136194 11.021368786567985 -1.2475007965178126 -0.7754765951230257 0.5680145381491831
Ni 1.3203843464486027 8.193985321598959 1.6620001230817782 -0.24034518085510867 -0.2848887717934384 0.8765479459447548
Ni 0.8551335286689966 7.0656902974806215 8.876406710921934 -1.2236790115078668 -1.6951519683848744 -0.20593019371034857
Ni 5.835256094496714 6.185921749851756 11.781095909638978 1.5502175976316075 -0.21447422662561774 2.1114063711082087
Ni 3.566614171797657 8.426710857973863 0.9658388653466787 -0.03643536000889854 0.45713571431872885 -0.41776698271311924
Ni 7.406206043387071 8.450750598460665 2.4430475424323546 1.2795187441853062 -2.0348342909794246 -1.005229859394901
Ni 8.058022255300642 1.4955845852189127 2.3146347285950326 0.15741527682909665 1.158257034458631 0.4343454558970907
Ni 2.974892739069811 5.296350767151816 8.807978033113285 -1.7645972076608902 -0.20393913142224876 0.28900845038876677
Ni 8.257170793932092 6.152655650235556 12.19169449427232 0.8459698160475817 3.8047210291740283 0.8815245732237399
Ni 4.481166733428728 1.2778918877030059 8.125819992792218 -0.6584849735266143 -0.2483215141923659 -0.8842746251650514
Ni 1.9056957913174724 3.558457667988517 11.105897415337122 0.0025286799591246775 -0.1824421378907374 0.9422658569678547
Ni 8.375412666976919 4.428195178982151 4.691033027794139 -1.6708265042656323 -1.4150392778238403 1.550116553277369
P 0.5171900075624472 0.4604465273072719 0.1048759967916658 0.5891837160276305 1.5856168030665079 -0.06335301033534894
Ni 2.698833490193211 6.655661387945159 4.608097294724053 -0.7186001936509561 1.1119517236341883 -0.2411903024642233
P 0.2112936825320098 2.681340898503879 3.7134531861123308 -0.4178855105688545 0.06205306057700281 -0.49818337628865816
Ni 4.826419103744521 7.1668510616516 2.5852980661512586 0.8672639495396678 0.6175949201804718 -0.6734032853993435
P 0.9120854935506835 5.229013890413583 7.549001553234928 1.318503867199252 -0.45655798743838794 1.158976686233475
P 7.092637849863508 7.971217669358754 11.503018566153994 0.24987317495020192 0.9235618528004482 -0.0037296422457613184
P 2.495945029972144 7.416996037215306 10.515481754743742 1.5675018386333521 -0.0572389270178111 -0.047362291334047464
Ni 8.333148809795478 3.604781488949394 7.094961356161606 1.8272673329966014 0.5740725714178049 -0.6415246915231919
Ni 8.432453329265499 0.19769280387089502 4.453908282918588 -0.012140492017275866 -0.1686327428114709 -1.4392634404785276
Ni 7.625498951852081 6.646517325378859 9.653545957931675 0.05221319166844556 0.48771281577463754 1.1392144160048834
Ni 2.6201762639978976 2.565961117042304 9.193376495720162 1.8244717725293351 0.15492979140308158 0.1812188070065976
Ni 7.152805781549763 6.147269797384006 3.441773028798732 0.5812858013367924 2.957368730956623 0.7088145750191018
Ni 0.7493211798705417 1.287182255270367 10.13435265494907 2.0207238197199717 1.9584056784070405 1.4995293272481207
Ni 9.120617189880111 6.388142693505483 5.437765523552161 0.8903874229310085 1.9460525561583262 -2.669391550045848
Ni 4.7120543132278065 0.8753912848783778 12.604541603890718 0.49032737057934905 1.578573265956165 0.8586800645253985
Ni 7.905115241066972 4.357346982218459 11.390063790085003 -0.6533006011121975 -3.608083830729831 -2.9455144027211984
Ni 4.4661613267574305 4.0508105728083805 13.13354116825754 0.07081795125382642 -0.44237809639358006 0.577251997587051
Ni 1.7468085601654417 7.069850845948289 6.837882437953874 1.4149390048005503 1.0099619747632476 -1.2468675338091881
Ni 4.774051057427322 3.9235435100106155 8.147822436139249 -1.1957213499526762 -0.53983987548718 0.042958505839396983
Ni 5.0429962256273395 3.159474786033145 5.489880279336275 -0.38359367926552 -0.21618401022787284 2.2782331710591928
Ni 2.9907759757474746 2.1103947759266664 4.327129513061863 0.15322823533094254 0.16325425210837688 0.12847442542503035
Ni 6.898738003145114 7.377091348175972 5.821811579305482 0.7552535832079315 0.22182938143910827 0.28100460624768375
Ni 3.9377991035514777 0.30690948716278343 10.367181519230973 -0.48448505286595916 0.5502716123434652 -1.334310495214205
Ni 5.945752946547884 8.152754743487511 0.31139007782027056 0.62975983767778 -0.7836964119296569 -1.5526508896634486
Ni 3.4852045827698874 4.5597782393112105 4.3088075548977685 0.7787706924932652 -0.7584481788858293 -0.5575606898057107
Ni 6.534319677690357 9.128782837751817 7.328418417541813 -0.36775902622610857 -0.07633271042446854 -0.8751785764010539
Ni 0.49820144723726845 8.017504914069367 10.824327039951811 -1.8996284603678317 2.225374118276632 1.810587044127443
Ni 2.795486231519003 6.081908038160092 2.239340688611604 -0.4782575838990086 0.3865555901073214 -0.28426245106334913
Ni 2.1908991027603726 5.002323435332437 0.19944297744608486 -0.33116862869658453 -1.622924795488347 -0.1553815342285195
Ni 0.9572187575654276 2.082551105412283 5.695580538796479 -1.026924056538883 0.6909078699420101 -2.6742715038459686
Ni 3.083972261423205 3.0542723462078625 6.719386359969705 -0.5768375357574518 -0.6133559423984598 0.37910916113160514
Ni 5.170848508429347 2.384488051351512 3.337035107351817 0.007102929593368413 -0.3512409739664274 -1.4450455943779437
P 5.535861197950915 1.018017629568757 5.517717549006862 0.1989560763853606 0.4999160427090487 0.7796291838388186
Ni 6.57988454145823 2.3572021686536724 7.640463210241831 -0.7352223755886692 -0.4366789891262738 -0.050620907480661205
P 3.469138464840898 1.4539882446048136 1.711933105537573 1.6986054741511132 -0.01441668964596227 0.5078651223527962
Ni 5.249149116184575 6.352087654806561 4.747269926983141 -1.7681730979376065 -0.8384629661475752 -0.04019019906564046
P 2.5763944924304525 0.8154153785060154 6.851171504081478 0.11195714449629753 -0.06763903930521255 -0.0010338405811530582
P 4.468017571458389 6.306001579472409 0.1774460205365933 -0.2391694153794526 -0.46844214047048355 1.2843179653461623
P 6.112613800257728 4.309358941870516 4.114937883585843 0.1409105943058541 0.5295742318951138 -0.25691696917086077
Ni 3.8633481461366617 5.681644987445438 6.586557878319115 0.2196136047347121 -0.10297371005076458 0.07200143003896632
Ni 6.027436857452642 8.528429409961385 9.493255113175717 0.1630087117564741 0.23291109317456662 0.8582458052014573
Ni 1.7947325920754207 7.091065071102105 12.913614576256688 -0.15208563708606712 1.1020871721352825 -0.387498670746881
Ni 8.233076189069891 6.181395438881437 7.402428631140933 -1.6056133007930926 0.7698263388157839 1.7305347187595423
Ni 8.877714311868916 8.694759908042384 6.484108715732545 0.5187457738210421 -0.3745364541592582 1.9711853466702118
Ni 0.07357587062722053 2.573815866786756 12.406148364827244 0.018396500229316704 -0.4621920457957137 0.6358505239565501
Ni 6.352261391995322 3.1282112361189647 1.1453724753671584 -0.39995360868078217 -1.2289328037076384 -0.6611164976121905
Ni 2.6373305253722763 3.58699628725794 2.066308507075764 2.2663443900414064 -0.2234021252428669 0.9808617149631818
Ni 1.06758759274067 5.781424998168905 10.91747486209594 -0.01343427112803493 -1.2629526122965087 0.16938684736867604
Ni 4.754994831039152 6.438809944185352 9.912298239589038 -0.5137143820447218 0.6476701422992974 -2.093461356594014
Ni 0.5016953935438517 3.3326541869763027 1.4695486958738864 -1.0710655269427876 0.18472630593922382 -0.8734222558315797
Ni 0.9485227540648763 2.0322953375478976 7.792496966500419 -1.0434009711479837 -0.7872902999285022 2.3568130256466246
Ni 2.054021630205426 8.926223563783138 8.836256961005825 0.08461886169266072 1.697947271741824 -0.4155658612967424
Ni 1.1521884596040786 4.779007139338256 3.6221926984818857 0.2607800516706928 0.7659540003445712 -2.870688358749243
Ni 1.5080296543716472 4.564286262156396 5.738313486387569 1.128480831637463 -0.9551334569591421 1.115060701576815
Ni 4.950915515584698 4.828183907819817 2.1166429138782195 -0.39671119048408454 -0.386826841490837 0.5454456517097316
Ni 2.2771001805728837 0.4492541947261206 12.10865177567021 -1.2350857106829118 -0.7962403100329385 -0.16040392714377535
Ni 3.929377421927915 7.963088597737314 7.87789519561961 0.8684425432288011 -0.5528028634057511 0.7999270148559062
Ni 6.4425224335872695 4.968664141025886 6.563070439211317 -1.1101468092149656 -0.09164080153644863 -0.7895816670658402
Ni 6.718307360586881 4.537247269147847 9.009061455383764 0.9691158872811633 -0.08552260445385271 0.42573303163773135
Ni 8.609720126175793 7.796319184653132 0.26701485659227275 -1.2629999205946765 1.163049570751268 0.1634709961048733
Ni 2.398963102393965 2.384853813854164 13.366504450259168 0.4194546548281873 0.47626343628711526 -0.012370605750210954
Ni 6.783733128248758 6.143063528603507 1.0524157641306646 -0.15236434466875048 -0.49157641249510176 -0.050560229446054865
Ni 7.437871932054168 0.9907591790586164 13.363693565426289 0.7422237466071668 -0.8061511413887471 0.24591470452308614
Ni 7.336555718819564 2.235576992459315 5.086201006846851 0.2037262440804943 -0.1066709563966937 0.08750698187373317
P 7.986268796342885 2.5408332331101113 9.32657988393597 0.05651721836043815 -0.5558352224741717 -0.11857747802629255
Ni 3.1672472392145004 8.872849670583644 3.385670547329454 1.9327391268788714 -0.4825814080853431 -1.8039502555372158
P 0.21256013519744238 7.2798625309085025 3.350887447733505 -0.5862819689998031 -0.18036854319116033 0.242215401294628
Ni 1.5298016673420076 1.2594848897570439 2.595616226351072 -1.3463561135248299 0.2605149709347642 -0.16021829349553052
P 3.9028322082979456 2.4833445117557824 11.305187686938348 -0.6083903708630684 -0.1569653337758716 0.19372516700372444
P 7.949015885447778 4.537292989460679 0.19693750430291862 0.6525863486539922 -1.8802433709730009 0.7804408811068366
P 5.66172007511347 6.597633166899418 7.919918563955555 0.776047122914515 -0.0875504335171589 -0.5380632432027315
Ni 5.842297022672764 0.7476057537331038 1.6678888993744754 -2.3171067081959387 1.244637873147721 0.8501501726775165
