# total energy = -340898.19969774346 ev
CRYSTAL
PRIMVEC
9.00586094931760 0.00000000000000 0.00000000000000

0.00000000000000 9.00586094931760 0.00000000000000

0.00000000000000 0.00000000000000 13.18098782570590

PRIMCOORD
 96 1
Ni 6.361866334157059 2.113450444029008 11.42089077234778 -0.25688534460197693 -0.6811235368617365 0.022246470103026206
Ni 4.615062505563478 0.3589493059882705 5.922468571914536 0.13934273559810198 -0.011497716226954391 0.058288194217931875
Ni 2.6203543395978453 1.508544768415754 4.885375226422622 0.3021588717277957 -0.05156604500274991 -0.2612032552510405
Ni 3.217560004005624 4.289608698612076 4.790959580251912 0.6757854124782748 0.21768733424627673 0.10873349535267725
Ni 5.06649930286972 4.6203579518661915 2.550969583654617 -0.46281348142979645 -0.23153709564517547 0.612184804908494
Ni 7.1358570511536925 6.018058582367344 2.468231837519158 0.7147185992083627 -0.5704033500963337 0.5578327125201747
Ni 5.148092404064575 4.542529300594012 11.547362780958125 -0.4346622158065611 -0.375633800988495 -0.5713556867072741
Ni 5.712138488052988 7.889746686266561 12.401108502907466 -0.8098229338133796 -0.16543197648598604 0.3470588175642797
Ni 1.7933281068245548 6.499800102137237 0.3231203883510062 0.8129095431585032 0.13669784177608715 0.09866711225561071
Ni 2.8124493559870585 1.5886699142579874 0.3655361927668486 -0.4079664516829296 0.09707714206067153 0.9873905172206349
Ni 0.5828377136741951 -0.03684748052304117 4.680780074883468 0.12018878837747043 -0.12404544311939926 0.33140388463584214
Ni 8.52203918536034 2.331077076520586 1.4138985722019328 0.7335979526113688 0.6803054118358155 0.27222428895189243
Ni 6.967330373155973 0.7156219303008171 4.838727567895139 -1.940956629692657 -0.47560677653972283 -0.7469273227304233
Ni 0.7971159670240237 7.415516054619903 2.511413140125018 0.5053683240728716 -0.9556697890785864 0.010942100833800511
Ni 7.658269039466188 3.846772498617214 3.908031266126875 -0.5258150219629977 -0.21153108483689376 -0.6522047969448574
Ni 7.592409177541466 3.8194397103030426 12.49333572484083 0.5059535071523803 0.18021067745705738 0.28675693535042873
Ni 8.046835920719307 8.745501615818172 6.8312184908680385 -1.0123806115070693 0.9353153937919504 0.856523680304028
Ni 6.830945613277949 0.7094051844117653 0.4346363635006114 -0.03162019800844232 -0.06551273699082912 -0.012973786551848623
Ni 1.7285579540879759 6.644587330383341 9.077087513564672 0.8092722035162321 -0.39300597371835544 -0.1379977915344333
Ni 0.05805448214485649 4.921189734682192 1.2967980626096203 -0.0268554296299473 -0.5204277895091554 0.11307968813651494
Ni 6.3352179912833755 2.0022010423667504 6.9397769412458565 0.3295310930931615 0.3208034834121765 0.1674844881396406
Ni 3.288012855070454 4.196298972179416 0.1899498202849517 -0.6906751851059137 1.006291982110828 0.5074339483526487
Ni 6.013150388090169 5.6966664187535665 4.765111858426376 -0.7500540412848631 -0.1464459223017865 -0.45958109053542784
Ni 5.187493046197853 2.979400008299447 9.248505973548447 0.19362695086296333 -0.6982162306779652 -0.4264136026445237
P 0.20063167208707294 5.503094441150671 12.23243142703006 0.21480641315405585 -0.7366488236225507 1.0135106113464545
P 3.9650644836276365 6.173040445332275 12.537821976714143 -0.6882668327747372 -0.012034305456714758 0.6174388542185817
P 2.429781313727608 8.525794629421958 1.5724125338742176 0.7603677645060453 -0.5249922689513862 -0.980116609267041
P 6.349005964564757 7.842582991900396 5.775342521551401 -0.7774362899525579 -0.8363618606441724 0.6754293146904368
P 4.778680989284023 1.0238223086353202 12.587197510556408 0.11415800880235823 -0.6266480315216756 -0.604988544270371
P 4.048539809783831 6.055288811985394 8.123192113708333 -0.24382054099821882 0.9625480042556585 0.7107974097770855
P 4.8166046702036205 1.0309549505940758 3.6782998557858484 -0.3758924539665204 0.32596317323624513 1.4441302816525259
P 0.07460725477136258 5.527860559063017 3.527785800492304 1.129238278628778 0.14479861650635065 0.3619218507190412
Ni 1.4360385810294642 1.0790912779546171 2.6545189741113995 -0.035612864107603184 0.7202714107057917 -0.24012406598323807
Ni 1.822056803602876 6.558725451046502 4.7288110336696185 0.12161883595577763 -0.3843506120362026 -0.517339894612451
Ni 5.974263080037257 5.590316205507424 9.155488037014099 -0.041067202353955085 0.029381795596226817 0.01211041011028882
Ni 8.573318558230484 2.1860196724427112 10.222251191765004 0.6167503127919893 0.9983853256692419 0.33392048041010874
Ni 2.369514091520547 5.435955746955566 6.908985902285016 -0.7859687529036012 -1.119385039983782 0.3220309280613744
Ni 0.4951341357507841 8.950988347602172 9.321792068502448 0.24176365846919007 0.4609692291322061 -0.09821742631270182
Ni 1.564840405895781 1.0703195692831173 11.469516117963826 -0.5434795291222962 0.2195207879105897 -0.586417723246719
Ni 4.062660999924398 6.868563094921538 1.6823155593081496 -0.23914061902404618 0.3921158578039182 -0.503997411867274
Ni 5.7395163056724545 7.7278843454525274 8.018127036835315 -0.5330791597245786 0.6669477595819868 -0.178420418325854
Ni 5.359099728677763 2.9427911830944704 4.742744001314051 -0.7185569991178464 -0.17340959537482395 0.09765846848543827
Ni 0.7627847240808768 7.3535647363948025 6.745001780605474 -0.19343797478060878 -0.9406188082827349 0.7017697523571785
Ni 4.882698684515877 4.460458888763027 6.986148119838827 0.0957108578407642 -0.5193947202589506 -0.4544149729534561
Ni 8.092567683177085 7.126860195955717 8.954991452842913 -0.5224288790995842 0.033148975948142916 0.3544944479067185
Ni 4.719359382488162 0.39282125001740664 10.379711467693381 -1.3065019576423693 -1.0306508705711668 0.24645257930442718
Ni 7.973438153088171 7.186632095804532 4.528908836328328 0.9082303646497003 -0.013387477050499525 0.14102835083064102
Ni 7.228779525560815 6.005630494105875 6.8255105761288215 0.558642867126296 0.17652294419282502 0.9580313473322276
Ni 2.311003012219997 5.232630421825736 2.571149016529596 0.0236646906067915 -0.23625198462234157 -0.0608775522116629
Ni 2.2497001159911467 5.174605659022374 11.202060056232607 -0.08727121171384326 0.00319356723663321 1.0342306175026252
Ni 1.075164722532878 3.339022052108828 3.799367447174666 -0.3046973218789333 0.012374462404952881 -0.38809619512156385
Ni 3.644906122978947 2.715573308575021 2.8336617611255095 -0.3497463916987719 -0.1920999726954756 -0.5475752964582247
Ni 1.2300114975819236 3.2384536016625853 8.202370743553262 -0.8426646629337488 0.685253242759394 -0.4126916250727409
Ni 3.409132680453414 2.4370850670464854 7.16886263134895 0.565003262126685 0.564619139314389 -0.42168097305554475
Ni 4.110103875983393 6.912358597251624 5.9993795259448 0.36455388902524954 0.3257726544919938 0.1228503943700336
Ni 0.8453963881615096 7.29451330543071 11.2726443928689 -0.5646929299751178 0.7593688909278857 0.22007383220058227
P 0.25377976112696726 5.522736224120425 7.96793377080889 -0.2948762220234535 -0.5099703416212572 -1.174490465598358
P 8.547913024182948 1.5910834850218087 7.998935546918512 -1.678989756802715 -0.0452357319093479 0.9402567969576258
P 1.7429763376434906 3.1607240148620557 10.518613365737405 -0.2939783927995324 -0.07174714793631515 -0.42591429441060197
P 4.065452816852699 6.243466278813927 3.88539953728552 -1.1021673905539149 -1.1695570328524825 -0.978368773337999
P 6.865681219382647 3.9324812783160485 10.240836587232534 0.678714927420244 0.07126815141736759 0.7251169117235512
P 6.300014080403607 7.736358860709079 10.30386860878472 0.4169578565482625 -0.17868292795862128 -1.2269695093336805
P 2.373233512137928 8.48928486868863 5.909907196909394 0.9876949358349313 -0.12001729579661265 -0.7304617209752323
P 6.845445049582995 3.9092641685058567 1.4252603665140113 0.08821403524308678 0.37432948035477465 0.368533699608604
Ni 5.045542664185346 2.813331930370844 0.4645358222166072 1.4827675344087496 0.4424066356386704 0.7356093266144428
Ni 1.3616861921260726 0.9053412005426575 7.233264444368214 0.6004466905359594 0.43811263624900676 -1.1843534744353668
Ni 6.745254845301233 0.8248297032609917 9.307043169846068 0.8194185479216146 -0.4462280662672896 -1.3386787994852298
Ni 2.63794278624614 1.598117062508915 9.343277351230988 0.7175632677460093 -1.0407846165710593 -0.5334044042744813
Ni 6.3823996973716595 2.0775260642645184 2.602230044216537 0.2470709296147164 -0.012847288276313358 -0.1470082225631597
Ni 4.008499751515362 6.686923883221863 10.389926815892645 0.5619706459479483 0.8752356548912347 -0.4811374765499649
Ni 8.153663444601579 7.156939771892894 0.10331523806924803 0.10383194428600183 0.5149778221381777 1.0051090175463204
Ni 7.732270199788277 3.713782948358446 8.181030455187773 -0.14933044293843314 0.27116190912564914 -0.6607673418028878
Ni 3.1767814651303143 8.435339760945011 12.418823932196691 0.28130105444218007 -1.0762121041407335 0.13175335328661825
Ni 0.038936840288737264 4.865695618836419 10.044822220110428 -0.1980345930123557 -0.7647214134890508 0.40201306231297224
Ni 8.550938993498784 2.143611072715716 5.731845113222368 1.0946949934362695 1.3332951665758135 0.775213057048994
Ni 3.7242567647701033 2.5363566735002268 11.332274900699089 0.04019611260291142 0.6441117355240779 0.25398488312573037
Ni 1.0386099324942555 3.2793492167316627 12.665083799339365 -0.11328434794815329 0.2355117640222073 -0.12069606703119212
Ni 3.218010297058576 8.47940543910687 8.030819897411918 0.41077512477631833 -0.7384126003911928 0.2315414665205496
Ni 5.62086408621967 7.897518744360508 3.4672988352754026 0.7439371297538477 0.046995137802615834 0.7052764799588563
Ni 3.284392498924722 8.373667624412741 3.752600911281204 -0.7237580837028116 0.08632864529491584 -0.21041882560932149
Ni 3.2412634303130043 4.232403469165087 9.181599630568664 0.10977222102983676 0.5956364136315098 -0.2545541253656391
Ni 7.198744978928934 6.030936963681764 11.418742874485199 -0.13836314529365204 -0.14170943605806563 -1.0174955641361316
Ni 0.7149185725521064 9.054132474311297 0.23216209224085993 -0.11342884394581756 -0.9411227445023469 1.0660647312940865
Ni 4.692611975142828 0.3685900802519674 1.6013978976927215 -0.648018783887968 -0.587267215731208 -0.2905212874888674
Ni 5.847019269134154 5.6284830446756136 0.4392752825321203 0.2445342792357917 0.36283947743730416 -0.5062504695675087
Ni 7.98643361059636 8.856705988175136 11.298202125968336 -0.22629384496836513 -0.17210116097604553 0.19435457305760723
Ni 0.1438001858740334 4.709155741908275 5.758588918223278 -0.19865191488138045 0.3832100706738561 0.5067896299004304
Ni 8.01889973971418 8.774761658398976 2.574154272364996 -0.8604986057913762 0.5816431846762112 -0.44561280128079384
P 8.425802554083493 1.6214962778181694 3.579837876241314 0.6571595698469714 0.7268197533472708 -0.34080769444824527
P 1.7953454197017786 3.2010702724065316 1.6680142519464023 0.2757191894790284 0.054544925125415734 -0.6741471055439034
P 4.810894954292192 1.0383487625235435 8.156527308418351 -0.058405436522086504 -0.13142142386849626 0.43031833701556854
P 8.47911725155298 1.5737201848999895 12.52145112248103 0.06816662967390841 0.8986828301705813 -1.1004501507524918
P 6.440631594979378 7.731396631265551 1.4325100846665344 -0.7067443227536344 0.11830057021582205 -1.0369708992519238
P 1.6948490161440084 3.1303202279267532 5.941435815890969 0.28110770748445135 0.3723029368430491 0.6506325673617311
P 6.78213384633798 4.032545400542984 5.978579589242853 0.9855519213499992 -0.6805563515043569 0.42524426492677087
P 2.4405253059710366 8.35875391849898 10.2436842404994 0.5545638119609159 1.3692253048135192 -0.11084719926157038
