# total energy = -340861.9764845046 ev
CRYSTAL
PRIMVEC
9.34579596932495 0.00000000000000 0.00000000000000
0.00000000000000 9.34579596932495 0.00000000000000
0.00000000000000 0.00000000000000 13.67851708864135
PRIMCOORD
 96 1
Ni 6.783571282621215 3.6294025053948635 6.553460027329332 2.7516768785093255 0.9348456532443836 -1.6086634004733265
Ni 5.499879468804383 8.393076237665396 4.770519527863127 -0.2796668612728667 0.2437922588634447 -0.46109624162837365
Ni 5.939113190662076 7.111954517757045 12.360537680826825 0.8546735144691668 -0.48587627678653095 0.8099448041032246
Ni 3.2667108530297977 2.0872340107529275 8.188658444821513 0.3541833444242029 0.005634829688274167 -2.398200073233844
Ni 7.976468687998379 5.883870190323746 8.876646415893422 0.12421873547246992 -3.580478410307737 -2.382506573757987
Ni 7.870412594640341 7.804823798095864 1.2476460131054627 -0.19323357207928657 0.43657254545539653 1.4742371283402351
Ni 3.975888547442443 2.8633369505424597 11.743116077265421 1.699029191952093 0.4687943816035797 0.8106821964898812
Ni 4.507897986498342 8.503814574834887 0.7978935978150522 -0.6268418927000365 -0.1679683697545946 0.3232689142335336
Ni 9.055048316326237 2.4469817373682767 6.043934704364441 2.0046641951539472 0.8214234941667853 2.3295842718376587
Ni 4.5216643440517785 9.1339642180107 12.258864765807251 1.1666303461239906 1.5331053634313532 -0.6809001079970208
Ni 4.727664380163683 7.545524687220046 10.614365412105172 -0.56442913479077 -0.20579675345627782 -3.013478429465997
Ni 7.1853096708031545 1.1055983246530334 9.094189444683023 -1.9403436786990065 -1.3987045452195588 0.37183088230263706
Ni 8.60880524744541 5.758365495425518 6.503984317721637 -1.3324276763691956 -0.6533813337514619 0.1316001155382056
Ni 7.406627466609615 1.226093672878729 1.2011039488718502 0.5044825790338086 -0.3310346742218815 -0.41699282355125605
Ni 2.920047240857632 3.8939726452320786 9.612331591588353 0.3844657974578282 0.941626937832275 0.6248001796796595
Ni 5.4991972256941315 3.3284211442214726 1.5656563492266578 0.11733692075097212 -0.7254796943796087 -0.41840847295186007
Ni 2.9454210770813787 5.0589728494571675 5.523426201904099 0.27202759956005407 0.02171630863116905 -1.7972196216816014
Ni 7.916627556012874 8.756244525628034 12.732401297416562 0.524136091598678 -0.382945761268876 0.004819789986146537
Ni 1.9423274432946627 0.027290658989672974 4.984178443822309 -0.3623383694311695 -0.45012688710106347 -1.1328316524069908
Ni 3.0779725021868654 3.143589336119434 1.2050020803963162 0.8434583624796377 1.3108116407613166 -2.7528040501352335
Ni 2.909935089552257 1.0001403622409688 13.513021060427803 0.1595210103181898 -0.44035772352944164 0.9451249236832047
Ni 5.826645881226877 4.647907356836444 13.12028360840317 0.2751358061717326 -0.53999594144907 0.19527914175440564
Ni 6.745103986158253 5.493804701384334 2.804738809429056 1.1207837201035213 -0.3752769318697085 -1.022163401925446
Ni 8.879805294951847 0.23722994812857875 10.471685013261455 -0.5865077118573641 0.40873701130036705 -0.17478744955895703
P 2.1593368271309035 2.84754255525033 12.904354598588094 -1.7205542105080627 1.0074286668184327 -0.43785424038129755
P 5.8626178501496025 3.009103331235562 10.426107435178226 1.6192846276325983 0.1521815392339831 1.4811875915161394
P 6.203935666992124 0.9922057814107808 6.043114143472932 0.7005703327324386 0.08214340356897466 -1.224393263966072
P 0.14523927779696305 2.8241593735811534 10.822880401928977 -0.6097126892189177 -0.5869810519493568 0.9034373141364312
P 4.252206352890431 4.424243766226241 7.512433092634028 -0.21996867408128568 -0.8052720812179034 -0.6445089709624965
P -0.04460187697760875 2.6670752338946966 3.7874174863659924 2.2062733928914393 -0.6051620937337577 0.08745761669303648
P 9.180310020527664 7.5756368420314315 8.790116494182628 -1.830353428121093 0.23831658046085405 -1.6390600104873125
P 6.69279556577361 8.85808566497616 10.981373887656886 -0.2937577921482941 0.06315529250224607 -0.9873401235986737
Ni 7.948580832642335 6.048262742506324 13.207538763885955 1.1652992860173932 -0.4353060200381471 0.1859447517273572
Ni 4.526486774803695 1.3762993066864837 9.89992229620875 1.8728792172984454 -0.1912877612068254 -0.02988856002931627
Ni 8.245721071647049 4.363804503294761 4.585682112283469 2.0320155905837067 0.014681513271574714 -0.5056254343890002
Ni 6.772982495718267 7.785291084391397 8.849097812933296 -0.7798767810732504 1.344951005647187 0.6280253714851765
Ni 0.6599178726932626 7.583991983683007 6.735862863042953 0.24177882797784167 1.2679482657388872 -0.3463669337035777
Ni 7.605945258559465 1.7337666590703067 4.606268097200614 -3.246188205263035 -0.7046545301041413 -2.324433580874655
Ni 5.501935543931169 7.338038669539238 2.5015135226286596 0.39616483106231126 1.6391417715678416 0.8467043802207611
Ni 2.9804491206049892 7.569618149387567 6.159587061086952 0.3481883031830326 -0.5130926893003227 -0.4354317469827339
Ni 5.944449640195689 3.5569819319518388 4.0994109990025285 -1.461521994766412 -0.06376850060621275 0.20262812592030907
Ni 3.856776377029312 0.6018019746550508 5.860533737634724 0.7608025380506187 -1.6602502714116825 0.7206192809635138
Ni 0.5530814053666483 3.7145613988279305 0.8267010795005315 1.4308171094833875 -0.8676102771354928 -0.5450679566553387
Ni 7.201412477364302 8.426440729495514 6.474096462014992 0.6414699270258565 -0.41828094623506035 0.57186733623637
Ni 2.0044676411037567 4.463393305799454 7.366743347468377 0.5720804806884405 -0.44647874882551497 1.404095634328143
Ni 2.9305425698002723 8.923898760625377 8.411043530534696 -0.02813043968762897 0.40041615013949744 -0.5962444795291538
Ni 8.238683687235822 6.708085288080073 10.824686009722136 0.44463423941760843 2.2274600542713827 2.3274667112740235
Ni 4.554851265757312 6.052468350720206 4.212011953320969 1.8151294120824868 -1.5318483510958005 -0.0076464608016642505
Ni 7.8524686662611165 3.311720206714351 13.577145370734245 -1.3668277511156202 0.4425210497293476 0.13386217209950493
Ni 5.567748639580385 0.4806720468788608 2.4805032385717145 0.3898838831496059 0.7384267414585799 0.5942112511492089
Ni 2.2511779647260255 5.202440164326682 13.193203247354242 0.03896172597517806 -0.706849480872931 0.3549050530815758
Ni 9.084431499047216 0.10165422342751033 5.148634547417898 -0.6749423477516893 -1.1385731828764585 0.01633730370744283
Ni 6.05152442532109 5.799215969876344 7.271595667237542 -0.7742748615054407 0.9517902515185223 -0.46656703493495777
Ni 1.0675048600313057 2.077308775368169 8.873869779892656 -2.695578749964177 0.6588696105595427 -3.3246220211909066
Ni 1.3366357483315738 0.07033272260973354 11.831123569328689 1.0177238780968536 -0.7593807180024277 0.9341838512906686
Ni 4.044346503368388 5.945720668455884 1.171245065132901 -0.6213898684465299 -0.4817625117284735 -0.09663851186135615
P 5.263907464821556 1.2000469393407616 0.24696546385391088 0.11668257499642484 0.5828922265919639 0.6837002964499774
P 3.2143089746848448 9.297319386833854 10.543756988512529 -1.7134721068503007 -1.7195769341964577 1.269107833264627
P 0.48852251554477133 5.903318791863937 12.115281563066954 0.30726174017199986 0.02750051941311393 -0.696518017039936
P 1.6352619689051913 0.9307936211124895 7.076840492909951 0.6732389919073373 -0.16326967872734463 -1.4800794460536253
P 7.547020014584982 9.020693170116848 3.3501837648589 -0.7646584214615992 3.084012016710185 -1.7454257769387618
P 6.184449682267811 6.378169342395183 0.7057963854086848 -0.5167737376963357 0.46799142608631017 0.95559317020438
P 4.391327872605602 7.531291039865068 7.658656482753039 2.5674663358642555 0.38801751936482853 -0.10000948521611808
P 8.895571652855883 5.0288887320338755 2.119459250046887 0.01886341256340622 1.9376486483653468 0.03111420490630125
Ni 0.8186879939836843 8.717478163692086 0.5106655100806544 -1.518729040105023 0.8207838037002574 -1.7071801031940017
Ni 7.98630981121886 7.312571375355183 4.152154933482211 0.7142941100764343 -2.885318192847276 1.729849005546427
Ni 7.821907913240251 4.421206382516217 11.399143119770537 0.24396580832683148 -1.1731156967380183 -0.6312459353050032
Ni 2.8185051669824923 7.633917226079787 13.052711633940948 -0.14542416590549148 0.19381952648974363 -0.5247333588630447
Ni 1.3704581841672048 7.999188318149366 9.98429146987721 0.6120562497504298 0.6063165190531751 0.9424772016477124
Ni 2.3014583473719763 2.3433181677941346 5.512483209331582 -1.1017704122258123 1.434827259084045 0.6959816849204917
Ni 2.185318140096655 1.9424022096629092 10.560034561459453 1.0325272616582735 -0.4516744340938415 3.804829529727434
Ni 8.24219770654342 3.0310285687239267 9.05638196141984 -1.5486152861414941 1.3163762793332876 0.7199045142846763
Ni 9.110412812012967 0.310951456379097 7.83260604595676 -0.8298983644070158 -0.8025246003797534 -0.007574984133780502
Ni 1.6931124463361271 5.170187822224234 2.6681864490427647 0.436399510212642 0.07264112050549425 -0.00983575514349919
Ni 5.731449602856681 3.0302528676533664 8.342226696041166 -1.1877144204877996 -1.146520205637677 0.6177530430248909
Ni 1.0674114020709973 5.606169207063193 9.35466986417714 -0.09907360366541001 -0.10716435109334446 -0.04826860519840074
Ni 5.274561672296721 0.24095331326726777 7.646373303029699 -0.17084774818491869 -0.6647582081298358 2.854469582897536
Ni 7.711421912563591 3.3578417101265754 2.4315069683004022 0.3097302563171504 -1.8634152436720681 -0.5620169258048515
Ni 9.197749275921224 1.3936918330998878 13.228248113310705 0.02569097700820092 1.1355421093596185 -1.4919725979467853
Ni 1.9647293163806 2.2653555373048184 2.799158434619038 -2.134530358720182 -0.5528838531553317 2.9958491464200083
Ni 6.68683294790593 1.6024114958567681 12.154210541853839 -0.45176262293227354 -0.017901305760453044 -0.40219355375489446
Ni 2.6697668231515803 7.203879767516446 3.8475343193344087 -1.6875664427281323 -0.11740376943316554 -0.5892677911010045
Ni 2.655523830000571 6.484141323588944 11.025363614994474 0.11731403793283667 -1.9992353108288925 0.8040906593152927
Ni 3.9649165829022293 1.9105704283818483 3.932108165935945 1.2515451417905155 -1.6995953488682083 0.014455256193381555
Ni 3.6261875515602524 5.993244041272735 8.848660429679054 -0.28204127504231424 0.612936338362538 0.10539491789774752
Ni 5.841982332513496 5.072430795741586 9.664214778253596 -0.22621054122593942 0.6026195298175622 1.1231869302283752
Ni 4.8070756090377795 2.6067574663116173 6.127209485317689 -1.1481397435189709 1.4752473147723042 -0.0008677473169339895
Ni 0.9033347377942613 8.621197772982311 2.89876499413619 -0.6479488498819809 0.20993725798721263 0.02674872884875393
P 4.214234383617105 5.035514901419744 11.85937030325232 -1.2596657140151208 1.3565626217441864 -1.0253091466432793
P 6.639823593870775 5.575384154937587 4.976436386390357 -2.1187975213659573 1.320505471010313 1.9222863069766636
P 0.7513711597531048 1.338990888931347 1.4195292208067642 -0.4300069764227369 -0.8423443034798526 0.04779449377545963
P 2.126383550326141 7.455169531193829 1.3419927586164546 1.5855805505119338 -2.330255843983387 2.2327572981145805
P 0.07360748953894193 3.9896642507919093 7.694753685342578 -1.3034570001684584 0.7060688939531646 -0.6460549752933777
P 3.6729258775105125 8.997898773597615 3.302280952723197 0.5669737555894945 0.6292759560628259 0.5684413412739565
P 3.844346468308287 3.7462810305566214 3.0590360502691656 0.42814035552764323 2.869808013026819 0.7609537189165024
P 0.8657253854069314 6.019683298243998 5.107517717780191 1.637857762649095 -0.0168828917982677 -0.7805475818880299
