# total energy = -381168.49260996917 ev
CRYSTAL
PRIMVEC
9.18174253815180 0.00000000000000 0.00000000000000
0.00000000000000 9.18174253815180 0.00000000000000
0.00000000000000 0.00000000000000 13.43840830935260
PRIMCOORD
 96 1
Ni 1.925962333947332 5.090036752758928 11.111413469216274 1.952336846505141 -0.061232364447920344 1.3003464795639346
Ni 4.313848957838201 0.9411378012582735 9.636238889577255 -1.536068045604103 -1.3478391258282594 -0.05232477754564537
Ni 1.4677658315113398 3.4728656051816507 3.221899197543163 0.7057022546423652 -0.5273957361865563 2.446521643157367
Ni 1.6902302736795793 1.820491656363174 4.872941793680374 -1.929750733674509 1.6726643288053196 -0.1835813937015032
Ni 2.710266789352467 6.477673516343311 13.305798539889148 0.3764246723209066 -1.8047696661147177 -0.6530910562045527
Ni 0.46472931231682507 6.727123100099418 5.581185611317649 -1.1851551444010557 1.0621401994286999 -0.08996084273086442
Ni 3.417426243185207 2.129549113269482 2.674014514928724 -1.5667675315704888 -0.7631895502255566 0.0077544471344382585
Ni 8.487501887467774 2.120303098441655 0.5834510808637634 1.3912820275032427 -2.1051279942986647 0.9815407433080773
Ni 1.643082025277503 3.5168369706339475 12.755118934818313 -1.0248450625226673 0.763800187226362 -0.28960083255712704
Ni 3.954815275799955 6.592702388004696 11.298597065330965 -0.5423657272328272 0.011452979031948017 -0.13179731915067625
Ni 0.6186483730593856 4.6534265272447035 1.6474011170103826 -2.093279322490195 1.0311105838164047 -1.9913096282239124
Ni 4.048074235686983 2.1352050667292053 0.09806009310795248 -0.3556519585499294 0.16245746723869442 2.2989004696005573
Ni 0.47076538992140643 1.3325830347783758 10.518228822991063 -0.3036534539954512 0.22888757383747033 -0.7801104943506112
Ni 0.29939459096310556 6.209869629070991 12.972257048087226 3.6655330739862353 4.27643875507199 0.6511041076815108
Ni 6.418313550244105 1.035507752003462 4.524645241472972 -2.5641372714910227 -0.2314730751764594 0.43255236855240986
Ni 3.8514931259910807 4.1132646083558715 12.128271265590856 0.4810078929506361 1.050279443435372 -0.797327115339214
Ni 6.816433910655796 6.789715039604181 3.866767873029386 -0.453724888864967 1.1513374245206622 -0.333173060721123
Ni 0.34645928550725424 3.7714466937477895 10.533857985294862 -2.5506016988984332 -1.4301239400711048 -0.6451142086466631
Ni 1.7504165966154335 6.678184411884605 9.791869427145938 -0.9544297460238981 1.3359326041986606 -0.5527699532852867
Ni 3.178168393747757 2.032415457992838 11.531054916177066 -2.287918002447124 1.581448530621431 -3.555372102158412
Ni 6.681691837569044 4.679787310333772 8.51841865124956 0.2999325535004383 0.6046859254282877 -0.34979395710725564
Ni 7.317444878972778 6.962359346265183 11.95533222499145 -0.13831609410580048 0.6765837400098541 -0.719905799836257
Ni 5.362514147029623 8.469248583120486 6.096979185267998 0.6154591047843917 -0.8359646252057538 -0.5809322746521156
Ni 0.3008039884567217 2.603170943322901 7.659462955570181 0.2466857783611558 0.5286758884505605 0.7249294783030935
P 2.773400451672365 0.1869136528813846 7.94465247251131 0.07193535268772126 0.11741071141170102 0.0873318897484496
Ni 7.328086518680276 3.0604584532385806 6.7632954933622855 0.14900828371232402 -0.6705992402916451 -0.2446216967432755
P 3.898678101363675 4.573958544787066 7.348498450719743 -0.016340131920920247 -0.4917620461433467 -0.764207964187742
Ni 5.5128192738732436 2.1851445648906256 11.648063371549352 -0.7190614495580907 0.21511880218815213 0.043406134899776856
P 5.113514468662357 2.5839168290290053 3.86344867306885 -0.08615586716247742 0.6945202698836168 -0.6866724917044239
P 6.2338523408190385 2.3763268099204278 0.20069453039388244 0.758281828511294 -0.19939522080530822 0.17838570843317667
P 0.20274297717450623 7.560311153263591 11.169494418567202 0.6373157956481669 0.8486265369441385 0.02517469949341471
Ni 5.513902719503514 2.7392902778040664 9.31356949922283 0.3116092185074182 1.2788134905881652 -0.7256689275722793
Ni 8.50738036026047 8.42333068823075 9.212512485320634 -0.432312741737778 -0.43482445241603823 1.25642483848032
Ni 6.610744512271508 4.239091209349456 11.023553373995345 0.023974251427410324 0.8629542664207203 -0.7836694153464633
Ni 4.159650772119706 6.805011822824796 1.6933465571280046 -0.6359029744610404 -0.7985247351917408 1.3131302615921643
Ni 3.5720284255793966 7.652954936394448 9.1982146756981 0.9595583254997151 1.2627402391753866 0.260140618314481
Ni 8.422935873297686 0.958096479894814 5.3427210644433805 2.0466955611933844 0.10768551370413712 0.6187786560759279
Ni 9.080128283741118 8.16298237597352 3.8888068098627846 0.19344234565598298 0.1993854506132953 -0.8710678966667901
Ni 1.4459041023106887 8.211250796976387 0.05257741281885301 0.008335259338572742 1.0934150982825814 0.6966437439845228
Ni 0.47553071434607586 0.36561515515501514 7.605588162517791 0.7491767808862323 -0.43503965375063786 0.5954618357268584
Ni 3.5467602698632303 0.7636859341565072 5.297648808049815 3.2141563736384713 0.3218671487900005 0.36842777015835904
Ni 7.407141322719591 6.455297609555412 0.6724175760715374 1.4056154134067793 -0.6297055874010768 0.19570543065854681
Ni 5.237587356813722 3.3514737858780763 5.8105124879271175 1.2807744709692783 -0.21727055842383225 1.5301835617988677
Ni 5.638609147896309 5.252287326763424 12.99285812402486 0.3475617253426272 -0.5225877732749515 0.5499075441358272
Ni 8.632775419350471 5.879437075323391 10.107564365799055 -1.1691286870658122 -0.08993513169925156 -0.7543354422690364
Ni 0.45565407790190543 6.728546270206978 7.920087638280557 0.38796558308097057 0.8907620326616079 0.5770612217324836
Ni 8.609068159881307 8.439738462309526 1.340075336763983 -0.2023396481456128 0.09167011211248728 0.29877350019533055
Ni 5.0705163679287795 3.5388272442314106 1.7298054207609095 1.469698102819301 0.7548182954427258 0.7382868734466059
Ni 1.5846953238970152 8.944862851324489 5.784468474958765 -1.1673240297569059 -0.9886094772294005 -1.1693102069489991
Ni 5.966479995450301 6.516337834555802 10.108787373917293 0.6868779228470107 -0.7294499918812664 -0.7688305505614178
Ni 7.2663852082105675 6.946025026127442 7.678639025051727 0.5545337300539288 -0.3174060276948533 0.5081911382336474
Ni 5.725275616575415 8.34517569496912 8.617406100363084 0.6537487443932096 1.9448827042199406 0.35330479847399154
Ni 3.306731154044909 7.368394368823434 4.768794205209114 -1.0589304342421506 0.05972055578908425 0.8183111737900487
Ni 6.203350591804103 7.933640808575845 1.7330842210538757 0.16158637748765073 1.8291025864331274 0.7778188701029571
Ni 3.288193215676108 3.667995999542104 4.889389967426718 -1.5418535419376285 -0.5309775400005435 -0.7686402889274827
Ni 5.532798745834863 1.1887785817163852 2.0720815043261993 1.6848091916979693 -0.40127335593347024 -0.019760727566695
P 1.5416237692224017 2.765540879981581 1.2472038464159163 0.6995562896456274 -1.3999399602885565 -0.323887521654139
Ni 5.2265968108863055 1.4365387248286794 7.210283842570543 -1.1493664168372206 0.1842809908716891 -0.023088249278031204
P 6.090874244593696 5.520660482078769 1.970769237978906 -1.2971544549891982 0.7525595813155361 1.2016150897292919
Ni 4.894456453009632 6.565496884593722 7.564157385251055 -0.18733391876539995 -1.2540170003697757 -0.1570136705153038
P 2.5361993125839053 9.08659223055223 3.5487077174749304 -0.2204723531905816 0.3207050101610993 0.13627489530605563
P 5.403639172266799 8.490522680792854 10.80280040865323 -0.43571559677173993 -0.17105883575446026 1.1362278225727334
P 0.9666079553122872 6.676990785342781 1.7845267704837322 -0.09839406109988215 2.078265622690182 -0.5854409611557466
Ni 4.610685515304749 8.417610462572622 3.3711594420755553 1.0822408268333168 1.1706461521516032 0.33075853774235936
Ni 2.5584650384602505 7.413935812265362 7.095103472155772 1.0108754877164525 0.01667308978030677 1.2416517939362035
Ni 8.817438627113386 5.042153964946498 4.057378095493375 1.6505862659593573 -0.36344934310716115 -1.069071122220578
Ni 3.148364457172656 4.477990970824358 1.0678357496273898 -1.200357563173107 -0.3755235006628758 -0.507064737938688
Ni 6.8884554998409735 0.8700178591993051 10.303160274510821 0.9910617954246351 -0.5225088404079001 -0.6272584114121649
Ni 8.2952361968077 2.891780659393489 3.063889670459195 0.5432116201728903 -2.031073795495728 0.6101181521874525
Ni 4.245224613425909 4.978313308444134 9.462829743755222 -0.3827637271650569 -0.41783485983657714 0.13088714863158105
Ni 1.1786327561108751 0.8552058719895232 2.1703031961044297 -0.3569051142307402 0.007707138836270598 0.21155602453755823
Ni 3.848481514408631 9.005499079649185 1.123487209878573 -1.2936693246540754 0.7438044608307254 0.46649941492181596
Ni 2.946026394848108 2.2515010188734506 7.400302760809199 -0.3325302849308015 0.9075024853447403 0.3525021000670381
Ni 6.6668541414799005 4.413957497726777 3.8011881944730095 -2.63435281327416 -0.9462626368320736 -0.3624507266393177
Ni 2.1197613756265192 8.879947930934483 11.029197391189651 -1.0581729872508356 -1.0048125693518244 -0.8012657882719877
Ni 4.861099182036947 7.394718424941984 13.235582999479178 1.8859113678920554 1.0256341340828659 -2.206613549839677
Ni 7.431665757282774 5.532238659534468 5.6914344677661575 -4.152260385919152 1.3779048348653884 0.0710578351787744
Ni 8.896915791313653 4.922102680066819 6.9395133342546576 2.4354651282328894 -2.8067499082240697 1.7344762199057935
Ni 3.844074277946509 5.223750470671185 3.1188928996807412 1.3090362940284488 -1.4013419828424059 1.6688935489089773
Ni 2.250986841286203 5.533707738355177 6.005356411917532 0.6020176345675051 -2.2275086481211317 -0.059481700305400786
Ni 7.424632542428637 3.9559079031728555 1.1780965423413168 -1.099278499041894 1.6590397960433492 0.6353951815866863
Ni 4.66823667810596 5.594013423945212 5.4129641500812395 1.0273210348669857 0.3883759311455118 -0.07187827419754073
Ni 7.2145909980380045 0.6230868274464477 7.538046345561508 1.716577742358818 -0.47890807299881394 0.16853298400881297
Ni 3.8805533414131985 0.18195000281591964 12.256312502906656 1.740685691150615 -2.5997539922533677 0.5211885789345798
Ni 1.8590457936641125 4.604460293802003 8.204740023277864 0.08898073820578223 -0.46899364209857936 1.3263382756420063
Ni 8.652369258121656 0.053501096127372756 12.383238158492983 -0.09271140889280807 -0.6916108095463057 -0.6508192294512404
Ni 6.435538499416899 0.1851388220311175 13.060815873922255 -0.6552826645392327 0.04820098518525892 -0.03490478229698505
Ni 7.8656775496328715 2.4421966315438937 11.88995454477292 0.5919689920822515 -0.46520075071505046 -0.6194679688334687
P 9.127120442518494 3.1855780600496995 5.287059504275305 0.042744332946061864 -0.13418535976687856 0.42378490677242503
Ni 1.394477161843302 1.2242568352364678 12.90329114284912 0.4672789734003179 0.399681328856002 0.7591799148455313
P 7.615052702820198 7.979990245369161 5.863271699250033 0.00915749812955197 0.4115037754122268 -0.9291074652090257
Ni 1.8240358090181303 5.938080865497503 3.701609441134151 -1.0774158946408476 0.3243559766501253 -0.9107623870429347
P 2.062430574648415 2.7647237048875626 9.75731944780569 0.30582629327705396 0.2075417611718426 -1.1294557939562226
P 7.671795872270019 2.7892205942228574 9.172559968617236 0.7689318520259725 -0.050943838037718715 -0.09152253079102947
P 7.794583316453265 0.5254692943332333 3.0012132589222418 0.5223507175634812 0.12936377000851912 -1.3277564961457715
Ni 8.374878632375298 4.659752747916375 12.711000661483947 -2.742660533943328 -4.488980797671902 -2.0101779258833252
