# total energy = -340867.10990036995 ev
CRYSTAL
PRIMVEC
9.24547195866511 0.00000000000000 0.00000000000000
0.00000000000000 9.24547195866511 0.00000000000000
0.00000000000000 0.00000000000000 13.53168275813229
PRIMCOORD
 96 1
Ni 2.810937824866217 0.8803991437770218 2.140671617113207 -0.39669962051985874 0.49189651483868185 -0.7432925541913135
Ni 4.009770438774292 7.691687196027503 13.424904215597845 1.2870183949964609 -1.3742649241199558 0.31114667704870286
Ni 3.044561656071097 5.810964042458786 3.5631355561212024 -0.032768709790588726 -0.7804907605081656 1.028725628523996
Ni 5.140380715017212 1.9396907737921005 3.6247862123102235 0.6141630116807875 0.21123335109081684 0.11381810896443624
Ni 1.4846656253264165 5.889180735323296 5.704863006133361 1.0343301191949672 0.2579137858664913 0.3851047165934077
Ni 1.7109300608433355 6.782154645526443 10.438326461532546 1.3494969731466566 1.4619770800259597 -0.14242034608216117
Ni 3.9468365110758628 8.45877475988985 11.174179122892124 -0.7729422587369462 1.2528342929155842 0.2335286721539075
Ni 6.5636564064641565 5.599150279630665 9.933093777534864 -0.3643093771146113 1.4148284473646149 0.6825371293798116
Ni 0.350148212629059 5.0858416758673615 0.6997490933175059 1.5697803502548837 0.612800327005306 0.9911235019005059
Ni 0.9061579532320819 4.899536170203919 11.811034968587865 -0.8426695480297551 -0.5822556214492295 -0.16721966451402812
Ni 8.379152755285931 0.5800553641020791 9.899251651936607 0.8858972483701388 -0.05816323860429338 -2.6149371277517095
Ni 5.949424230678513 0.5573882404737202 12.272099259344223 -0.12063821721006321 0.0675513646874127 -0.40216604295106867
Ni 6.088392919856579 3.8701175846704614 5.8497598919384615 -1.2327269806427479 -0.46186885812834 1.2585130884679163
Ni 8.97971087802824 4.8471698169669715 9.571459915077723 -0.8357985319415348 -0.3327639982081624 0.9340092733860172
Ni 4.656916494772423 2.7027842937634947 1.4429777922145877 -1.358599706778873 0.6244571945179439 -0.3159595250563139
Ni 3.464380047275782 4.406955914596907 5.957079481469508 0.27185070766255764 -0.6326227610478717 -0.3784918392625804
Ni 2.333242779130583 2.0069885642602756 12.807547994833607 0.43526796771136006 -1.1037794722360408 -0.8162779454101038
Ni 2.6121416865715745 7.54932541863652 2.025327882459571 0.28297844214460294 0.24440263875393392 -1.987548104298951
Ni 7.218642622692678 0.67003969368975 3.7486551966672117 -2.2245138271588654 1.6244618009581635 -1.296782159251444
Ni 1.5272780056352255 2.334407708598778 9.637846102009675 -0.42112355789017797 0.625351167087123 -0.1681563173956846
Ni 1.8269514885923575 6.6807503089616755 13.30981750506497 0.12958437065975745 0.04816704662352995 -1.2794362117738287
Ni 3.2204197784086657 3.186183795704496 3.4210261801149953 -0.22398396588826586 1.300758370290373 0.9992520445449113
Ni 5.84600438122433 6.845513864935484 11.90824648361433 0.5090444873728781 0.8390448067929743 0.15469839211856584
Ni 8.664819348208816 4.661215639238381 6.304668547457326 -1.1775012274002237 -0.021032138079950878 1.0167275756218557
P 4.045004932451201 6.964752716929995 5.087601089183215 0.4095998735212946 -0.10759398243159535 -0.2558741297286432
P 3.6797440713403065 6.301131229881681 11.68926285727363 -0.22257551557651342 -1.201673453771053 -0.36099959601508796
P 2.7681590260619515 5.505327230081134 7.881704758686819 -0.8917020279773741 0.5717796616185701 -1.5834725030299956
P 7.433442672967044 5.604309252989815 8.07057958101067 -0.2066066509520829 0.2785702857745783 -2.328984176359815
P 4.962396134126591 8.99719406552313 8.423377545906273 -0.28547318354199863 -0.24211589960228624 -0.9913759842309441
P 1.2614614410315015 2.0565535394903742 3.0627613676436485 -1.0714838454271287 0.5522971274139262 0.4425521600775991
P 2.283511385405028 8.823129564747704 0.20349930988568005 -1.3428247033328036 1.6491256222534305 0.504279461884067
P 0.9477625770961826 8.336253765346058 7.949471294583864 0.7452807882659357 1.6217068639208456 -0.6763248299215127
Ni 5.846771755397823 3.5266113191045068 9.270447687779363 2.2155023676888748 0.0035869460203099518 -0.3501827079052421
Ni 8.37134033147145 1.3545356073514796 11.896919855904127 0.03952351201591903 1.7842995711858238 2.2962794870379417
Ni 6.395351834725914 8.447615475222301 9.82837216562733 -0.8758622327316399 -0.2663223216451607 1.50089149770297
Ni 0.20117499823247226 7.865640751139291 1.1219860999894904 0.5075846149979 -0.4981026436493937 1.4624244519760234
Ni 8.184628025041336 6.8542693268908845 13.111280239985483 -1.0501971681342106 -0.16262921692986831 -0.6452368502674565
Ni 2.015244770729307 4.733043710971758 9.627725083844334 1.6665433035092458 -1.8344916186591824 0.014733963776064948
Ni 4.256680013199775 3.8969941716866705 10.940649595501336 -0.2859727488862365 0.4992442134530047 0.35792404241355774
Ni 7.042571854499803 1.9475309340224911 0.6873583117835798 -0.23959673272485835 -1.3412594157282127 -0.5981568660605182
Ni 5.286496154027934 1.9253972741267895 7.766914827804175 -0.03772862489902535 -1.2428352727213434 -1.2825284775459072
Ni -0.03438021206689881 0.5250679195616929 4.665480575458049 1.3919397156918996 -0.08188552192189769 -0.48026767235050183
Ni 1.2188028333628436 3.4993741586814755 5.2717810608408 0.04456467398425228 -0.31885638698813473 -1.9739179151100263
Ni 4.381780494423141 0.7402646005835639 0.39189151857270665 -0.3904443836387663 -1.190620538391001 -0.29807595990767377
Ni 6.227435572810404 8.221092166490228 0.7693342135510096 1.081103370794764 1.2955472584030785 -0.9921804824101106
Ni 7.8620257715991 4.3919227771740115 13.256082821976491 -0.9842578851289243 -1.4348727676099997 -0.7675573402759491
Ni 6.330984858872165 1.572506854511488 5.722467309311057 1.9356521867606082 -1.0508471430133837 -0.4486325619437242
Ni 5.791594778682056 7.1782953830164695 2.681749920485003 -1.2410748383868109 -0.9413788263772109 1.0020954275309775
Ni 5.4762872026239915 4.741494072352155 12.980808139547662 -1.515345725455087 -1.5578501744762008 -1.537799940693545
Ni 0.4082920612999351 0.9020159817896115 0.731659839821271 0.8814515538939595 1.7447986848777242 -0.6694846670712277
Ni 7.632719575804117 7.71904454758614 3.926759044146245 2.23272747331791 -1.869009964151026 -2.473285798625089
Ni 8.643138716439635 3.185693785690096 1.8532853664039393 2.1116038318309958 -0.853334483942769 0.3592322197020201
Ni 5.732959995449583 7.277388351588788 6.881104309283229 0.7513560479257382 -0.0023237630371701914 0.6995100097887244
Ni 6.456427422558414 4.005286384868939 1.6009736627065025 0.4884949453563006 0.24170812264090633 1.9696995061533045
Ni 4.447321645217054 6.884215410601067 9.539403090116833 -0.5263253859405129 -0.5473582953514122 -0.43174529927008226
Ni 2.1245447403562845 3.2279271016481434 1.3687976724120934 -0.7661645736934805 -0.08502843842625356 -0.49550248702238536
P 8.500037301291067 2.377103298155315 5.661886354228941 0.4775531016328163 0.3450965516315863 -0.5463193125639366
P 1.928420543460914 0.6308351943490095 10.669867287902632 0.6646633344231844 -1.4233992197527614 1.362838427450569
P 4.318698639173195 2.1308686431836277 5.653983324789156 -2.223799060480028 1.3428205895677454 0.4932090630025184
P 5.623336434303663 4.3658413007472054 3.6590351386751507 -0.7817220618121054 0.38941902769804543 0.0775023052525375
P 6.912090508590015 8.577773229613147 5.536027744304053 -0.9157698675598551 0.844389101824023 2.57745250054269
P 0.37240576184915586 2.953429038864777 12.839415287619115 -0.0971812717387036 0.5331884316089334 1.0137880333775573
P 8.21964062739097 2.8704879098236997 9.723907577840558 0.22111332920869017 -1.5282976576300646 1.4584474696061462
P 8.943209754691468 6.630944951460362 11.094964843602073 -0.30363957003838027 -0.9221714002108247 -0.6238745825415966
Ni 2.9601042696269726 4.407667815938582 12.911891466937576 0.3056432307319704 0.7871630303220186 0.6126473463672094
Ni 2.3251714821009477 1.3977674342822652 4.908604129111899 0.4292366739156156 -0.2947402106662214 0.3731822541242089
Ni 6.832736622673219 5.856211382278989 5.298452398379279 0.2927733167478377 1.1663683507118556 -1.5652534089188077
Ni 7.959195682001699 7.751070862489528 8.379183265343432 0.4370381722379053 -0.5521158646410556 0.30651689158617534
Ni 7.4345521296034205 3.0877472556420336 3.915717176972713 0.19816006284662646 0.577347899734967 -0.6286732894818204
Ni 0.42010962357173365 6.395120697926669 8.067589595375637 2.310921662431149 -2.798748635186148 -0.8111236549026741
Ni 8.031957546404026 5.681314789026279 2.519978199240622 -0.051439289616898504 -0.19358015678542792 0.06175481261029364
Ni 8.88391854294914 7.5040041150405585 6.008351170825232 -1.3261454429049098 -0.10068260002374273 0.07732695601693779
Ni 2.7559550030618154 1.4925705038605956 7.544549207816921 0.06737601545181299 1.0356812339062227 -1.2095405152239556
Ni 0.7052094690628697 8.488258570001543 11.8990712772315 -0.21374480465876092 1.0188165969404002 0.7558660199809498
Ni 4.528043860985379 -0.13989601001663693 5.767811726586942 0.6733071261411113 1.1800916138352193 0.4897861533638984
Ni 3.368883567299716 7.48225876496759 7.006380454474021 -1.104625108065788 -1.0933125112664461 1.7184340788412664
Ni 4.552784743976564 1.5051351002675541 10.429382391948963 -0.4261235822079306 -0.5725023987172077 -0.18197188312253823
Ni 3.2583631953727257 8.663127426838342 3.8473820445495255 0.7946464831832573 -0.8788405986336735 0.511847504039312
Ni 0.39882192436126884 0.9556027373265732 6.95647617042263 0.7076177264975233 -0.5402782485761792 1.0308539877209084
Ni 7.940131518799972 2.4990973007968282 7.679068051335922 -1.565810052753226 0.5636290074869776 0.2908989825432603
Ni 6.997037905048538 3.7694436403913074 11.280890360367556 -0.2421099860650153 -1.284727542079755 -0.07125041080555472
Ni 4.342912530262101 5.230524066722764 1.6216372925590057 0.5134955811656964 0.07518059909789633 0.3179783552585556
Ni 6.977234104089226 0.3462096415699241 7.676144633099072 0.04709721059811889 -0.47943154960245177 -0.6139385543748072
Ni 1.043129620464671 7.353441604012363 3.6417137469397307 -1.7070836868254535 -0.6378649832834176 0.15083042452272735
Ni 0.9927787801171395 3.324153973909823 7.532857383963911 0.40285766970145453 0.7558053419463435 0.8516681519839396
Ni 1.6640185360685695 8.351712194479564 5.591142776357621 1.3766203117260098 1.1482251041439258 1.2412735846611782
Ni 4.819091318594688 5.138513129679313 7.8793906170527785 1.2916198983242142 -0.4280020301775661 -0.3354747122711061
Ni 2.9369905897024724 8.925171838878388 8.956444647816237 -1.3457621886945725 -0.5669776122442364 1.1995836611215598
P 2.224109227999062 5.4270365734408665 1.5267528628273408 0.28103931614036115 -0.11611667519062582 0.5992405860430002
P 9.208379136257307 5.226104731121199 4.276553155198861 -0.09824082335146951 0.9506198853595049 -0.2614025157460401
P 3.894599594446492 2.9048255927195377 8.863278951323759 -3.1471338848713346 1.742237351908451 1.607187073038116
P 4.974942239589609 0.1381116339264655 2.512996018809029 0.2064503278798767 -1.222201655631392 -0.6001810955793986
P 5.039410915635025 2.5445850228882447 12.783029003169698 -0.08096301010762831 0.44281235571752126 -1.148167768543429
P 8.120566149762592 0.11959202902375883 1.9739748329505136 -0.6178566584822909 -0.6875543800887449 -1.0236569557518371
P 7.538351043408366 8.575998098994946 11.65527095502946 0.7166086171422239 -0.6630587089402259 0.4908284785854837
P 6.429689517621752 5.9415470885602435 0.7476239962715249 0.8988826048862132 2.943002949153254 1.1853531193444746
