# total energy = -340864.72457862407 ev
CRYSTAL
PRIMVEC
9.28419068213472 0.00000000000000 0.00000000000000
0.00000000000000 9.28419068213472 0.00000000000000
0.00000000000000 0.00000000000000 13.58835152368030
PRIMCOORD
 96 1
Ni 0.16303781793727984 5.194170526084365 10.232667454380184 -0.5248991950169476 -0.33977951029404707 -0.1410581756273119
Ni 1.3247983231254958 8.217195895005924 12.870669074731337 0.5407446466896365 1.1471624672073664 0.8498719793154654
Ni 9.39894340616513 4.268416008068103 4.440660029610378 0.6446472963125737 -2.1979399333250793 -0.024343976062003232
Ni 2.33799135016944 7.576382477071266 1.4369680596269438 -1.4549507693067973 0.08184952647763968 0.6613268138507836
Ni 6.9778028431212045 9.081711890454063 13.602890921683082 -1.4078229625810592 -1.0484709294717234 -0.22019775937295627
Ni 4.926952946254814 4.837314084005689 9.050140999612204 0.006807509840136663 0.5705162215251142 -2.2784882244927918
Ni 4.715143417166099 9.034390369906802 5.403897611174895 -1.3795012328182308 -1.6410011933740836 1.888889990904405
Ni 2.5014673819128466 2.9003626399691558 5.464515021377977 -1.1647130744966199 0.46525885764649555 -2.7362692857050037
Ni 6.603473553942284 2.3004925034968124 13.164055074771701 0.2377072290116293 -0.010208565101885643 -0.18093495721759162
Ni 3.162473914854427 7.031808981050066 12.066700858055222 -0.8805041023790254 -0.929284099996206 -2.600454103644186
Ni 5.271656382566106 6.789417327440521 7.297801047692991 0.49681940606159597 1.1251160289302882 0.39278871550122674
Ni 3.5713125412658697 1.0380096690731422 1.9313391506932298 -0.6188799575404825 -0.8405054504989008 -0.5961722315303216
Ni 3.0814972026289618 4.101625520206318 12.601973451725188 0.6410328394884379 0.9672497806067019 1.273682082898871
Ni 2.7538395406407563 1.8186894215270195 11.896452009117539 -0.11928350295438168 0.8673950758008933 0.2775349025315284
Ni 4.115319701647795 3.0526976427432255 3.0240466299104134 -1.184669720124205 -0.4977910259462459 0.35303663241426947
Ni 9.131521574137807 0.6709823959645415 12.335029755524467 0.7530660886383095 2.1810071621254825 0.23854438020094404
Ni 4.172965242373307 9.094171274518104 12.990463917143215 -1.271112779509798 0.5837851707198785 2.1182051391975976
Ni 9.200224586115386 9.059142022600346 10.20394216802091 -0.15504703370723621 2.1429368376163227 1.3304360998604636
Ni 6.087560354944704 3.8701335066051077 1.9889540535890762 0.36211365501487314 1.0735790373932608 0.18874931105568785
Ni 5.6656495878759054 4.456634408314247 12.913975182754232 0.46270549509702247 -1.3764596177784294 -1.0430353602784488
Ni 6.236673743508474 6.734176392134224 2.033252641609322 0.345773780204269 -0.9309067232012935 -1.4731374675181532
Ni 6.968110147917881 6.4844873645497625 13.135438413444877 -0.2860660799309912 2.8099272775107864 -1.4095895675631789
Ni 6.251277775649113 1.4095815535821514 1.7916380747703882 0.5745032311973203 1.427785264635599 -0.2494887950275897
Ni 7.951389512179154 2.3067500481012564 6.224606152296521 0.43006636890576255 1.8714224302472606 -0.874858474057474
P 3.766735473578851 9.243563188806107 9.18284458092322 1.1877005365307285 -0.30526630700852586 1.5867259769702866
P 8.384469160789713 1.212097530909843 0.6196203955777356 -0.11654836341140572 1.2610109151891058 2.392089589460732
P 3.952215037536699 6.3811264682867375 5.587530549581075 0.9009142906042613 -0.024598001054338285 1.1854695903176808
P 7.436803952467087 5.334482501762359 3.4094129651216236 -0.13384314593611144 -0.891188321565749 0.4203753668702438
P 8.15712718047958 1.7225052047584088 3.8081494635151194 -0.04543962039003787 -0.07614373434211404 -0.04289345692941645
P 4.315319740029013 7.582315074997437 1.7041420037596988 2.5730728834177556 0.8387175053605426 0.4613086147494959
P 4.863718322663018 1.5318172097573957 11.971406066765997 1.8501997734230586 -0.19739361699424712 -0.5993922811295161
P 7.251482219752972 1.6651381897571305 8.226945223773173 -0.12205463794161561 -0.1510710797786237 1.5346948194056602
Ni 7.432839602992165 8.767627715426833 2.4720884885207046 0.7303033410204971 0.09217224855988641 -0.4994010507458432
Ni 5.497160093096298 0.4141417562008467 7.581077492362761 1.9016238935313057 -0.6917411644765828 0.3244757900574412
Ni 3.457497646153283 5.296333761733187 1.5131856956443408 -0.796133609251745 -1.6250647246494854 -0.2878388555606978
Ni 6.607103672548126 8.290522434005776 9.20427342172666 0.3242060813358223 -2.7992006351219016 -0.5963061860050246
Ni 2.060821117793947 5.8047917555121185 8.58995801277649 -0.9902480412740879 0.6954384108225119 -0.9928402274812964
Ni 6.3444724829776185 7.187114924882626 4.244485077841967 0.19557636127985029 0.1324182405641268 1.8889257292383468
Ni 3.3322260595838946 0.8891720209763633 7.366992408107059 -0.35020841893685495 3.044746129231027 -2.1315882453727224
Ni 7.743600037710209 4.78007704767572 0.5566912218635155 1.1921164062102374 -0.853666156250575 0.0872357304902175
Ni 7.033851503027777 3.992378446971159 8.286366830200214 0.08327674584246948 -0.5788417106716741 -0.27814168287759194
Ni 2.9588530420581756 3.431854711142192 7.519182577504528 0.0790781343800896 1.6670271851242 1.7621004093809653
Ni 7.4633474539865325 4.947990922625245 5.777019955548805 -1.0913980678525526 -0.061248562397836465 -0.788775369114461
Ni 5.095646693232194 4.562279215515986 6.519174958245794 -0.3230267163157404 -0.7521222366678014 0.35396942864118397
Ni 7.947063079262729 7.358398961095377 6.450105220731308 -2.7100656307264424 -1.7995816941558749 0.9733278684799819
Ni 6.1441567821089365 0.7844955548758754 10.248973278695889 -1.1593093869825453 1.1043808532654658 0.42583844686734407
Ni 8.832487072409991 7.6135099561115815 8.782899280886552 1.1928026336439843 -2.6120122407954303 -2.3194965485843535
Ni 8.95021989604346 7.312460784978477 0.8608561674317121 -0.6288730641974525 0.49821474374722585 1.824141642883426
Ni 5.258602810290365 7.986279501234796 11.477088824006396 2.414413706879229 -0.5285445050790188 -1.372121909635024
Ni 2.2522889848228136 9.11686183685232 10.928350439988826 0.4470042823116818 -0.6295945157445093 -1.8112982112618548
Ni 1.4771797468536048 0.705086942477844 5.749204519888693 -0.0026022135095374543 -0.7012393337750052 1.6052466614822936
Ni 8.5023412472853 3.4433578235530327 2.3016632399576733 -0.2901407642209971 -1.4874155747037223 0.269218155135717
Ni 3.3674038585545767 2.250738524957914 9.490526377969404 -0.7498848626968505 -2.088275698628016 -0.22504351750103177
Ni 3.6411667929036136 6.414206040134861 3.520632928903436 -0.5195651843985438 0.8204127935140839 -0.5777700748740502
Ni 0.8290281045044775 3.154730899720738 12.213033631472062 -0.7469993136189393 -1.7189195031181173 -4.180571831269336
Ni 8.85487125644755 8.97507367483589 4.2801131600668265 -0.05841314983157036 -0.3400775011504401 1.144874442504138
P 1.267867665092183 7.136404674690526 10.392099292607721 -0.007240483612497207 -0.48610021987187896 -0.14491431614860847
P 6.763217340980963 8.904300288308177 5.7316072646316245 0.23653274908755395 0.3462532909438488 -0.32433206539072534
P 8.113120116050698 4.20265608457659 12.010037584717173 -0.2901533626264874 0.4770831039749332 0.005076128971326741
P 0.6643896920719362 7.8497833279788 6.830252912289464 2.6151117056563606 -0.3343174587382113 -0.3724862564984488
P 2.18251829090234 4.292239241680869 3.2063890657943124 0.07729944521311202 -0.34029733047073 0.8523456376669386
P 4.523879802335004 5.20004741886569 11.052860722911976 0.180093949373535 1.3201092640131589 2.067676020099794
P 0.7462511876813832 7.54645024590698 3.08000337632799 0.03857220384624325 0.17905033860036904 0.17409222326414536
P 3.2415102312010666 0.9122673740297992 4.340160520954312 -0.3434196781497956 0.4196058356940709 -0.7962076570227901
Ni 2.7912269770236904 4.396964913992638 10.162388915222524 -1.0854441642619628 -0.7581314189763589 0.5905330309666732
Ni 6.579836004145673 3.0374901382000803 4.284175921964311 0.8825584138048929 -0.2452680720780228 -0.46288932897305446
Ni 5.0794643486542315 4.694467524237171 4.2141554833111075 0.3898435168299738 1.6743190907999228 0.2853261164411731
Ni 3.904772822508938 7.055650783044447 9.536712441980873 0.2855153496338438 0.27810748720554684 0.9520165085967152
Ni 5.251305436315449 3.074682606576051 10.497369018500827 1.050673850660313 0.04394400968111786 1.2237340331155184
Ni 6.764990621425249 5.6386140242436475 10.765358114586505 0.22957868636722398 -0.23457279714770568 -0.03513721002276529
Ni 9.282454664099902 6.523053893165285 12.399166802462778 -1.262445333642787 -2.471400665787234 -2.413733135872436
Ni 0.7854759654251771 4.190085290222855 0.3676799517223877 0.1530989088419299 2.5557359348012048 1.0811733048007508
Ni 4.71518055392933 2.26887054960551 5.47295342240317 0.6103379815077424 -0.31658841688956446 0.30759829757581214
Ni 1.956977443608917 5.4064814014767 5.656232633139573 1.6175912990905754 -0.9959533191889816 1.0261190441390844
Ni 4.645010639804123 6.275574502993076 -0.16006223478338605 0.5458156334546406 2.2739234879402446 1.1779902512215001
Ni 8.63726839229478 0.23953119442166793 6.835810428907002 -0.8228067476675571 0.6909713761900939 1.1069704683695127
Ni 9.054880579019576 5.389528469061692 7.493418948012935 0.8798209602690719 -0.03259798854067934 0.2787212095301458
Ni 2.759605023132388 8.078926441305642 7.714868252417369 -1.1927265289904103 -2.2787412210438625 -1.443680852819933
Ni 9.196046700251886 2.6357446335657824 8.56706134140634 -1.0833178619475796 1.6402992822110525 -0.6225129263073795
Ni 0.5512636839172869 5.46643870571335 2.2458828931654446 -0.09565326512995138 0.9034324290404246 1.09368017901851
Ni 5.311346298269369 0.15562067790094364 3.350411932538176 -0.2439059016231735 -0.7659270037613777 -1.1311334387689618
Ni 1.2276299821312606 0.8229729552596428 8.351767455507465 0.684027597882409 -1.6616664350329189 -0.16869959149366429
Ni 1.5273979349328919 2.645177371426488 1.7965159886207962 0.9713031247404692 -0.23249971666876088 -0.3699748029305048
Ni 0.8569781609313021 0.12523723506339965 1.7478018394523696 -1.1087324453659422 0.8731674595082962 0.2350775046982661
Ni 1.0202397278670494 1.6615637762961344 3.8027274960833757 -0.06495455049451393 0.6227744074988822 -0.5907392334402084
Ni 2.399517682652604 7.897615479020486 5.102847511622709 -0.6731232922650795 -0.07287843332728094 0.056399461835651254
Ni 0.0882165242173731 6.400168343633497 5.044321829608619 -0.16332470033499613 2.295825687329975 -1.742961117448353
Ni 7.767534681612668 2.3150965356374518 10.89355050758402 1.1548469803358177 0.9022638626536204 -0.37090991315026445
P 5.02725934374208 2.558500166045045 7.68384605725225 -0.07350115451294437 1.679849533699849 0.19117668955025782
P 0.8665603742640128 3.6268134339147844 6.8014050746115275 -0.33971600404596336 -0.047435567774144115 -0.688194327665589
P 1.8683784107302632 6.151017799115886 13.517651837457764 -0.3174762188111565 -2.2584361909379234 0.31338585079186676
P 2.203370583456616 0.7355585851280619 0.0901448506481492 -0.0031141201489494758 0.5299329007861131 0.9569573975417583
P 4.482314480088569 3.1752675297875497 0.7923276982413194 -0.790151166416065 -0.6533561369404811 -0.4307618523108904
P 7.205330507247493 6.171415166320581 8.584536045344747 -1.1169764305422891 -0.36495806644220374 -0.19013359299772417
P 7.894495990909072 8.346144021135192 11.840971541688402 -1.2596340894462372 -1.8690822121498583 -0.9010739561105772
P 1.0421875549366437 1.9010958991368834 10.207270550425498 0.44912389975784583 -0.030416664618644385 1.9428502471709446
