# total energy = -340890.8393524275 ev
CRYSTAL
PRIMVEC
9.08516612318745 0.00000000000000 0.00000000000000
0.00000000000000 9.08516612318745 0.00000000000000
0.00000000000000 0.00000000000000 13.29705896394937
PRIMCOORD
 96 1
Ni 6.29450295479016 2.118306436676412 11.438822051454299 0.5910693630861175 -0.20160097020737539 -0.015175422188857732
Ni 4.542174268203325 0.20574539934596706 5.998422839387403 -1.7391515138942757 -0.3069987163186003 -0.38250301730450254
Ni 2.6215065370714026 1.6003883670352101 4.866324821618439 1.2460152131112219 0.01715080074767369 -0.6514846309493811
Ni 3.403448621690466 4.1491590634984865 4.922145899792865 0.45018627958408924 -0.3544147437087186 -0.20165984846976884
Ni 5.3388615775672035 4.378986512894411 2.6867244026478994 0.4279356957160049 1.081689582315537 0.3850496949857562
Ni 7.426033149671538 6.132060183109758 2.462881352228814 -0.14057840777741595 -1.160623992028911 -0.5923112059130187
Ni 5.0250508518058625 4.776880451849382 11.070214145749427 -0.8346050258540658 -0.59362144008401 1.5660532791122834
Ni 5.592555758574113 7.8535083897781535 12.92918269617464 -0.39312218758124556 -0.029278180138827 -0.6884933469632466
Ni 2.0340596904911563 6.40480595764093 0.321016171075643 0.9274388192573512 0.5909685758421951 0.5422261163311693
Ni 3.058875523171304 1.7251912951433581 0.42329606365398753 -1.2787888079978171 0.38015662855951304 -0.8343677130322792
Ni 0.7893746590883998 0.05817231918733864 4.472054046944572 -0.6831292544378558 0.021078160826537892 0.25906101209705706
Ni 8.841456618013163 2.324385261621969 1.3028882401551796 -0.4294307922042927 0.427347941533335 0.5329830004663466
Ni 7.159020115013427 0.7877765783535797 4.881457074443433 -1.0635795029783877 0.28112004877962554 -0.30648706678950444
Ni 0.8739502882901448 7.257575997965833 2.688732224378401 -0.5005755306699186 0.3718712486222693 -0.15842469193021746
Ni 7.617584793861113 3.8452329985642306 3.937285719549699 0.6770069435902019 0.10714378226805418 -1.0113282589831551
Ni 7.688612623223382 3.8429889625124933 12.62634230860145 0.30137442815328747 -0.06544203165389374 0.12242410546589239
Ni 7.938545545422928 8.68487377853264 7.367873549716881 -0.011142389770064681 0.5418437932910861 -0.7753277282499873
Ni 6.9315548088298575 0.69344984026791 0.33281961900445617 0.20301841938019227 0.13807723862211704 0.15187120708241586
Ni 1.723419687734092 6.45014093698574 9.427840500147848 -0.42815912458072064 0.2889745118270378 -0.3488596182184444
Ni 0.27780166952223134 4.923932951984673 1.2321929278758799 -1.1549426253734174 0.23878992055284678 0.26387360299435203
Ni 6.092975798111486 1.7070300479068299 6.885336751330275 1.5232428688149768 0.7983198182697864 1.489652691564357
Ni 3.7003427679848655 4.428864075339904 0.6050584412615919 -0.5689856438132007 0.11212529464304562 -0.266890792554121
Ni 6.4663942993199806 5.859614219063231 4.62974345966842 -0.473747611843797 0.14378868718459753 0.4634269466440793
Ni 5.344439869614841 2.7317096030939574 9.177178039102335 -0.2764979766265819 0.5991544540870971 0.41386970454124206
P 0.2983686687688809 5.826135381611201 12.405849867477425 -0.3261441788987996 -0.8817883684080877 0.5781683387537333
P 4.10671316700571 6.324956431897135 12.432364925036108 -0.622199765942335 -0.7370380886411693 0.7387036492690503
P 2.3335340239867435 8.34695102167288 1.4850158414440788 1.2336556631046045 -0.05459660429895759 -0.5505544336912066
P 6.317979024254486 8.107475125771105 6.000896730144035 0.871121632722861 -1.0465009502295461 -0.13473968960845184
P 4.909623815217524 1.0055371100008517 12.703744290570596 -1.0354480348494943 -0.8026513557656048 -0.7445490523062339
P 3.8193311897241395 6.398264637975947 8.058243518642529 -0.3026262982825175 -1.1209876085842114 0.3928853889800911
P 4.836024883820267 1.0072632915791109 3.814181717521206 -1.4995092726434627 -0.14847143737224755 0.7053016767698369
P -0.12004048398539248 5.771088359597133 3.89875098710661 1.1242919903670963 -0.7967409038184408 1.2937827103034878
Ni 1.7160697882771878 1.0278411930252023 2.531534319146047 -0.022847594022134845 1.5513298568591798 -0.3553981906679105
Ni 2.216517083313165 6.376024151115006 4.865713389933087 -0.24544239287235792 -0.5957166320501418 -0.26955394120858095
Ni 5.903568253145433 5.692156435639675 9.216311483998094 1.1177181938043204 0.6413547416042309 -0.8413534003214929
Ni 8.486571855855452 2.127300751215763 10.101855352877799 0.2897561271880687 1.9636674410266117 0.10240035404579784
Ni 2.1798130118596513 5.119091407156189 7.182140954479281 0.5725880164524784 0.8276406787210907 -0.9485437195567664
Ni 0.4056626645737586 0.25958227722201443 9.153283143476125 0.3290659805312849 -0.8127388219085939 -0.1462363773941417
Ni 1.378964696375548 1.1786640371340587 11.424872687268724 0.4452129947392139 0.3305345946570114 0.08974101341057447
Ni 4.302534839309926 6.9539497435162225 2.0255941326247244 -0.3591730843293105 -0.6185642260722767 -1.3719455319581597
Ni 5.479790675682773 7.927834134471518 8.134103747907306 -0.5670822561429009 0.6725129123745902 -0.10715869466638965
Ni 5.498233563071544 2.825886435937304 4.877826642029366 -0.924061675255002 -0.1250240049825847 -0.5373855004094165
Ni 0.5315358252604273 7.182187288826908 6.403757529461292 0.12368368890460635 0.017355717669628175 0.3620635185032281
Ni 4.888101056486491 4.4281736027086 7.42711246741626 1.917023773026144 1.0142765429782015 -1.789032457885119
Ni 8.112453796849453 7.181487731029403 9.322421682646935 0.541199731949184 0.28662735175109993 0.7004710881504129
Ni 4.633834510008895 0.31074448216837997 10.565604027559983 -0.5396007628931804 0.15704632352545211 -0.24274556276648518
Ni 8.027716451689324 7.799378969550422 4.623227578468801 0.4220054462744991 -2.332052530872493 -0.4470477339551075
Ni 7.292472121345275 6.381756890988067 7.105881886418265 -1.1236011349476585 -1.4293577513290414 -0.7569312280206706
Ni 2.2780781694936127 5.235563237857686 2.679623436744913 1.323738890345946 0.25165417811002466 -0.4237342560401477
Ni 2.5565294283992412 5.010369223224457 11.543190623742337 -0.7111586497712462 0.4683506091979418 -0.23529450580507866
Ni 1.1105343757900243 3.4395167315098836 3.7097731705018817 -0.6054994224685185 -0.20811177474269968 0.22686488698048674
Ni 4.022548187316267 2.5819315530982574 2.4846748489126473 -1.9927890409829168 -0.3426835713147195 0.9994489910470656
Ni 0.8674244134077045 3.6160415108024013 8.436491694203669 0.3926480761583044 -0.8426404945640326 0.19954871566403698
Ni 3.6394812396019227 2.6319272227043675 7.111320266906402 -0.7403962064801248 -0.5915018226378458 -0.792650792909467
Ni 4.572164401834031 6.5895800678442855 6.006241533420297 -0.1503560559894701 0.38430998860625426 -0.08245810659591606
Ni 0.8261250648895405 7.7431963017611825 11.684551267252472 0.3518564960632392 -0.34724393699189227 -0.838036420133118
P 0.04201889368131207 5.710126894385975 8.051249757700718 0.8634353198221968 -0.2735008416714709 0.8783847420431776
P 8.393267198967436 1.6730151856489202 7.71681570466228 0.07179137091068927 0.251220947227348 1.1833366031350783
P 1.7492306449121695 3.2188198741463308 10.501192924742169 -0.0289292814398405 0.32107730589885347 0.016770277479803378
P 4.249531979691164 5.82266484812228 3.862729211634819 -0.49118791880743146 1.0659330908122286 0.48974167327920815
P 6.937541933356557 4.00227009635482 10.409961502781304 0.03541437494355191 -0.05664217397407664 -0.4237283425028767
P 6.281956340266075 7.831994716213322 10.349207179359537 -0.05429269990529359 -0.5433268055945158 0.5028810388746436
P 2.2926416909144005 8.362968169685884 5.7437847096121715 0.554757930249593 0.4886687519300036 0.3733154372679635
P 7.024977572878492 3.8712347442325368 1.4938984084391531 1.5362613925618318 0.4759207082357159 0.2907629711860283
Ni 5.463419206187915 2.7161921392220263 0.5437362949522401 -0.2110554307520559 0.8947122755586074 -0.2966654527133923
Ni 1.5927204867612583 1.1178842752469285 7.052707317158297 -1.9838212902666672 1.7159426798779802 -0.9301875856470819
Ni 6.832926244547842 0.6606660180302851 9.34609035763473 -0.6050893315142934 -0.31262069049106805 -0.7383377812891994
Ni 2.677162265220963 1.7396730500683335 9.232281389146854 0.04949836384044379 -0.846408189136581 -0.03397738538670922
Ni 6.449777530337685 1.865339068965611 2.7820904837470053 1.5333830425727721 0.5773296449025218 -1.4345755480845552
Ni 4.05432809868864 7.016810008463465 10.148887441269025 -0.25365809591393085 0.486716256189323 0.8442605466659588
Ni 7.901023809011291 7.054531618531531 0.21188242911498897 0.6425096811442805 0.8309268056715302 0.30678454342526523
Ni 7.544894379083993 3.7866064210668235 8.264228766376212 -0.692990977723284 0.08767796023395867 -1.005271511266114
Ni 3.0048914656027947 8.502707111029075 12.45946415878154 1.0691243440560168 -0.09835498033183061 0.20400957964886798
Ni 0.012207737824773844 4.699738305633595 10.616584529182322 0.5756010922471892 -0.2147835303359204 -0.9996639352713492
Ni 8.545761713657344 2.431163219986609 5.6930558670936104 0.8495351648013368 -0.18162118465133884 0.634376767624501
Ni 3.787651215179981 2.7269580611706434 11.301143625805576 -0.22321572026367364 -0.5292435880285724 0.565957141399522
Ni 1.0169208232511617 3.4087634439182644 12.731508558481964 0.7766485039439398 -0.19949780782144352 -0.6956376713175116
Ni 2.5694576199037837 8.420777082225168 7.905647250091166 1.727090726075 -1.4048880483224515 0.8556284221832684
Ni 5.667635572062192 8.048394289963628 3.8192875809263733 -0.50104629965875 0.09121168441883001 -0.05090398593871878
Ni 3.162709887686702 8.454383112004017 3.730011286732042 0.3050055971479715 0.08412032478968738 -0.34842870132861287
Ni 3.446130732504477 4.484419866661249 9.179890869730063 -0.793982367236697 -0.594935530909743 1.2874451981212345
Ni 7.184031577565785 5.980792165857034 11.4518792523189 0.13902648990926378 1.3074059575138772 -0.6216042984501811
Ni 0.6674835267477893 0.17712712581166803 0.3984799321749596 -0.20531492872385285 -0.40679402864138325 -0.7360626121017775
Ni 4.628964860924962 0.35297960280528456 1.5937452935087721 0.14492922854694396 -1.204960609162757 0.42772897902183754
Ni 5.947676735053059 5.265626052818002 0.0842258503029924 -0.6699268968149689 1.041572402579677 1.0844090381292293
Ni 8.031550391826299 9.09379710925607 11.472542554327285 -0.867170618494913 -1.7783711215165305 -0.8610125693133172
Ni -0.015852706504761394 4.667140729303098 6.088616735368071 -0.34481578716637384 1.0823256732376392 -0.8017036471403548
Ni 8.124973155874933 9.06317101399127 2.303316761201004 0.4682657627936193 -0.5846344060940512 0.6272612396256423
P 8.72493936148066 1.7214845473332014 3.5058629747285903 -0.19550771282544396 0.2957007748072778 0.26915490599794933
P 1.907049066996077 3.3883218199651934 1.505692771201765 0.5083639163660857 -0.6655611636471054 0.2916394602537107
P 4.514764321773807 0.9635000459871368 8.246782521719732 0.340855002746413 -0.6205560596913248 0.024403625655345068
P 8.457608346005502 1.798335968230546 12.33271609658968 0.6126437468227837 0.46686219757787334 1.603350472900845
P 6.395884324431189 7.8173312579643195 1.7524994877114204 -0.2734676744406903 1.0461787910034368 -1.2824767983723655
P 1.7564170113774489 3.248110449979531 5.974341697854065 -0.8513166821817919 -0.143347742992437 0.6720339158556425
P 6.673463407381488 4.191932025974512 5.985165764866371 0.5953957583756133 0.20308629650365023 1.6008436473185914
P 2.2777511035103637 8.640638104298196 10.094874311168672 0.18877065121192652 -0.31441172095321984 1.4945498717556582
