# total energy = -340888.7578924501 ev
CRYSTAL
PRIMVEC
9.09621543289811 0.00000000000000 0.00000000000000

0.00000000000000 9.09621543289811 0.00000000000000

0.00000000000000 0.00000000000000 13.31323074559362

PRIMCOORD
 96 1
Ni 6.674439027661639 2.0020588218358473 11.45262641127003 -0.04761605921606638 -0.343222474537325 0.09176087205408068
Ni 4.786928846628429 0.8175778479191542 6.177232615751468 -0.14281681018963147 -0.6553538840968004 -0.7147296549519562
Ni 2.237969168791807 1.5765105757729734 4.543286716564216 0.6481717645260644 -0.4027368278528741 2.18765192113551
Ni 3.5152688344907754 4.545697213650906 4.890615696596282 1.168468170663678 0.6525146148757923 0.07599101081433365
Ni 3.38994117841369 3.004025142942183 3.079975812846875 0.5496056966246923 -1.28236958337054 -1.043311496757971
Ni 4.951461191172072 4.402240800238822 2.4118651574903165 1.4291854874172354 1.1636139278951703 0.024508269554009404
Ni 5.175792055896493 4.558841244934938 11.374038748514652 0.5206699874269484 1.9089998742804026 1.0747303773888846
Ni 5.979379014875877 8.125167136586454 12.390384366959255 -0.25603045280084935 -0.6670392908545286 0.2508021145223745
Ni 2.0975599875459157 6.805106162191131 0.16775695291055628 -0.7378574992186712 -0.4466453563103663 -1.2374249003390494
Ni 2.770789083320138 1.5008755445434072 0.3061777014653129 0.5572999799451563 0.13836314529365204 -0.18593369598376366
Ni 8.197554818910554 0.17582984409711552 6.893138425418624 -1.0772199765799577 -0.10344833569433798 -1.154388295531844
Ni 9.007963939456042 2.6431782771722623 1.109831062817273 -0.9331299561048575 -0.6495545038062038 1.0638846929236323
Ni 6.790770526686885 1.0339759031745068 4.673596369827643 0.8606413020168275 -0.6404715676683292 0.45356008115232854
Ni 0.7443451271823995 7.662570005111911 2.2491902601357383 -0.21707001237725196 -0.3248462860229825 -0.23110026521807298
Ni 7.8939686292188185 4.1208766648217505 3.49044981071328 0.1812254918748169 -0.27827975111735304 0.18011631797103816
Ni 7.700082797510075 3.823512286478305 12.721244648970742 0.3552318402933753 0.42333084995414183 0.12341732261709712
Ni 8.139293559136005 7.137782048800743 8.752450338645263 -0.019103810708986455 0.9483894533670892 0.8965632127244173
Ni 7.008597597384951 0.9962266091753847 0.4714695799966494 1.343697849966376 -0.5242985853184712 -0.5913041048047429
Ni 1.7382049011051166 6.537468215845065 9.055379781583566 0.10873298113204499 0.17787714422787432 -0.04705761560943509
Ni 0.36062400849209486 5.275914099040671 1.1543224716867924 -1.0795067157316054 -1.2035799267651466 -0.43499157412152184
Ni 6.748746011439669 2.3437217692818777 6.865206676723901 -0.658780393279846 -0.744283457349673 0.652577606903244
Ni 3.552954454981947 4.491920388079145 0.3909880851905212 0.45110981983962306 -0.9592407942592964 -1.1132043650943666
Ni 6.109018277062741 5.793661584615617 4.435369216803834 -0.14688789493521154 -1.6947076817586038 0.1972259810681313
Ni 5.3485928602582575 3.0868370881392933 9.611739792001133 0.6467679422000023 -1.3649701290815912 -1.5796441304228408
P 0.3573557382911588 5.685653122701021 12.229440479399386 0.12434163420357941 0.751601588277641 0.23403389392510016
P 3.9361325296115894 6.176894236537789 12.39526994426213 2.2078114268025204 1.6434704808501823 0.3300008336407284
P 2.4877148594038294 8.563541046393608 1.31260480661434 1.2697418673042005 0.6975855390725019 0.11273387476132198
P 6.591008539815869 8.122665677345548 5.785810641085343 -0.5434358203685544 0.41361156578384894 -0.18715034199968414
P 5.0515559456699854 1.0017934930133277 12.69842588296443 -1.1124006382461487 0.5092843712978261 -1.7703564787421706
P 4.213021327041295 6.358782160105607 7.630904259986672 -0.41872086198595626 -0.9110243824550697 0.9914271491838537
P 4.477057172080455 1.296974779655619 3.9626561841590693 0.47300970523650804 -0.23581335442302612 -0.4204787252173275
P 0.47221092155349964 5.833830471916852 3.3513259247064435 -0.656706798580269 -0.6936453234778313 -0.19612040670877837
Ni 0.47742396261154707 8.820691056358712 4.3922349632751985 0.9502339627749957 1.6518815877320132 0.7590729569540217
Ni 2.0759655721353334 6.627156899900812 4.663491384115926 0.07276581900881662 1.1032387692412227 -1.45132448540812
Ni 6.075680647543034 5.750045231669644 9.342147068960994 1.1657415157611344 -0.4272553818195287 -0.7484792405985754
Ni 8.859886648609848 2.469076714005227 10.288211688573112 0.05634958243432231 -0.17044639898144193 -0.8428937482254193
Ni 2.2064871672180812 5.604078262801232 6.657893011809976 1.3504745065685775 0.052605542010857785 2.608821244661959
Ni 0.5536256880618713 0.03805310759419933 8.790499807753294 1.1821544099015189 -0.02331167814274695 1.6410945244188382
Ni 1.7694413048624624 1.3447571992646283 11.360765550971635 -0.5759291650105693 -0.31911401152489555 0.03933299327166774
Ni 4.1160374782175255 6.863540250058687 1.4543238428809235 1.8274318835989238 1.1583647636810888 -0.5664518216477535
Ni 5.525368710759206 8.094349158738495 8.004380311247768 0.5116739545759252 0.4025419382332487 -0.14114456469353112
Ni 5.421917452770769 3.1048112098121288 4.825540461849506 0.10200723237243722 0.4144448603184217 0.1769374060224243
Ni 0.8544429897793089 7.77719141563792 6.78741766168253 -2.9205479625838477 -1.9818181437937095 -1.3363774050455628
Ni 5.41070181915609 4.404805932987678 7.338599196660651 0.17196617806007802 0.4916638300025855 -0.9235132589506998
Ni 1.2735338325144776 7.668919163476101 11.278276521421988 -0.4295652608996279 -0.5719028174599957 -0.43604598352796514
Ni 4.997378886619678 0.47769866831727564 10.376731508947199 -0.1426463460500382 -0.06331341534666515 -0.8949416179605943
Ni 8.21924929269077 7.097849663100466 4.666819689338643 -0.5754833357224025 -0.9706901737468185 -0.07664664212046154
Ni 7.066540489619748 6.167434172499455 6.834666133446298 0.3991640228999513 -0.13990812118326873 -0.6903332283854626
Ni 2.4248872994877004 5.525441480482578 2.156796361613646 -0.7842975358487655 -1.2004627212924035 2.4806409534385794
Ni 2.4093691559786636 5.374298765039347 11.244394938220077 -0.15559853533533202 -0.2990426946963172 -0.45651762111875577
Ni 1.1840725538442691 3.44987614182579 3.447181842817949 -1.0247450466096932 0.6653050817722413 -0.48181341957106694
Ni 1.54824863445845 1.0542149824872893 2.4769267479139603 -0.6055919821823248 0.2135216329043613 -1.6393603153365508
Ni 1.3170956081679224 3.562678309267504 7.957211886179709 -0.8872056827689172 0.3753566360677084 0.9000650552300885
Ni 3.6036203748795637 2.913708820022356 7.409771624604441 0.2980628472815512 0.33290412333045244 -1.422546384834163
Ni 4.51291445327191 7.1745853363960315 5.604696805449891 -0.40179940364026934 0.599214103680439 0.4045373713967227
Ni 0.7685001272341269 8.935639930639892 -0.0636971581104222 0.9249656751265102 2.3468433160284228 0.5749999683280806
P 0.18258287442601873 5.747343655689466 7.6298127141360945 0.5030766998252174 -0.656098732682625 0.028773215477950448
P 8.76845149119318 1.9833388104984517 7.968061851934445 -0.2786772436660878 -0.17903208376792393 0.4011237177294834
P 2.082214672129887 3.4174026527711234 10.272874559750962 -0.0480703731446656 -0.46555504873067555 -0.2522362758657398
P 4.087675478533366 6.134587738612508 3.5096601080618934 0.4257278894314087 0.8996194830522378 0.671117060468328
P 7.177878166378605 4.030014568976635 10.585216766407408 -0.3172000823316344 0.4993306025192239 -1.439512066154224
P 6.605280501812164 7.905457149296142 10.25720541906593 -0.7241594329062884 -0.6658172455219694 -0.7174210857411902
P 2.4247781449026427 8.715293208270078 5.519785453733505 0.02625353437989027 -0.344883921400148 -0.442929855131992
P 7.008415673076523 3.9980504679855713 1.528931001767863 -0.2519094886539403 -0.25877561964615436 -0.23976025488591612
Ni 5.321240540485882 2.7056783733332184 0.5784674523779201 -0.7478434067867895 1.6065628091905557 -1.0442967434893757
Ni 1.6661719711824545 1.1795972158569032 6.997114535036881 -0.28804325826202004 1.2093739077391044 -1.0838914750628623
Ni 7.406211365888476 0.6034784063008082 9.29457841041439 -1.5656413883858453 0.6955070592769184 -0.7358952332859778
Ni 2.722515468078369 1.618535091020189 9.140238375250508 0.5703987221106435 0.00582740531505448 0.06997822896135046
Ni 6.041051355433479 1.9075491436067202 2.571610163857638 0.6575555197338095 0.6312582766001773 0.9103160435341354
Ni 4.27767722625714 6.940657964401954 10.056109017392581 -1.2148547283480173 1.4735226187717139 0.8538677307384197
Ni 8.413153316830359 7.309036496540856 13.349842254157956 -1.2843431621571428 -0.9746851538388246 0.5213796118994632
Ni 7.753459389603291 4.0876845747487875 8.148429797905333 0.9019162495062144 0.28789516271993 0.7645278094210058
Ni 3.4771829805210586 8.600016870233723 12.014139427723862 -0.22888680250652194 -0.6694347876698987 1.0584720065484932
Ni 0.29039394846596916 4.7973894943631255 10.176806699820135 -0.534979204960769 0.5938898632540481 -0.5739481300247986
Ni 8.836063660421004 2.4745435394735336 5.660332897453802 0.5168267024214582 0.12869734006911385 -0.16199029779428878
Ni 3.8524109628723315 2.796358544869905 11.556949086695845 -0.9184397010825345 -1.1924735324393398 0.4741183649196544
Ni 1.1734936553090936 3.621794613291671 12.546122490433417 0.3095991300559249 -0.5111623050468294 -0.6203817388969897
Ni 2.7301835776786723 8.219449409430045 7.611799478736947 4.253091081484985 0.4135683712507393 1.9762033687100933
Ni 6.015209007421067 7.931763404295048 3.44924486447554 -0.38944062496460025 0.5836776986077368 0.09126979135027506
Ni 3.551135211897652 8.40792299296301 3.5306951062240546 -0.6222223916501542 0.3504066509905901 -0.1893578911739642
Ni 3.7629132993404375 4.73563528786673 9.102535471950036 -1.3600989170322189 0.19999943004821039 0.08106842533724103
Ni 7.458814779670867 6.177367239739706 11.371855656813498 -0.09791249347777331 -0.48521653171534496 -0.04994830689366882
Ni 7.939040376632229 0.0640455431610647 2.582247278171511 0.052495498795554756 0.0026376947331631997 -0.3034889033931289
Ni 4.722300236058848 0.18582021749452174 1.3622628658432574 -0.2529286739470741 -0.27494914408222326 0.42389829242183774
Ni 5.954646405144886 5.495469450668818 0.368202975181268 -0.4510339722963652 0.6704956248342453 -1.4497203741457938
Ni 8.295248172537196 8.870401873637073 11.361524175337788 -0.02003917803906226 0.21911455361110654 0.19111575440533535
Ni 0.4912383849721415 4.833401411216745 5.346326992996769 -2.1006028527348017 0.7850369851179513 0.21374171933496736
Ni 7.367461488192991 6.266246360622939 2.103557122373294 0.8926376524177658 -0.9948675423239707 1.8075765394358934
P 8.808138279077076 1.7686044530436866 3.576013361075386 -0.4503107209770954 -0.3253689912956719 -0.1709233386178605
P 1.960852965976565 3.30528270148602 1.3028472963317237 0.5892801323961787 0.22440125593134258 0.7666183734014475
P 4.858115828516894 1.3149034202513468 8.240517153967723 0.7448362445293494 0.18349757573844527 0.8683816080838787
P 8.82277408969023 1.7149458782724045 12.345172537828356 -0.11594132595502614 -0.46351822080630495 1.0280501997235263
P 6.5753721455063525 7.966592813143876 1.2468109708492678 -0.5031880285921011 0.5259366351425265 -0.4261348950618403
P 2.029602162132074 3.4316655185519966 5.840993741561264 -0.20138114088708542 -1.7170893918879138 0.33832992233171405
P 7.235884732121353 4.189489417745938 5.633439936560211 -0.7735611232678679 0.1999215256224234 0.8095262285085671
P 2.596569269352623 8.768615223070766 9.957151289822352 -0.059996949378922484 -1.1549809348105207 0.041479864411341466
