# total energy = -340871.59509454016 ev
CRYSTAL
PRIMVEC
9.30202224856479 0.00000000000000 0.00000000000000
0.00000000000000 9.30202224856479 0.00000000000000
0.00000000000000 0.00000000000000 13.61444982359040
PRIMCOORD
 96 1
Ni 6.601998463971179 7.399898001890884 3.136851101415622 -0.7544470281462362 0.13278282299239713 0.32779097047360317
Ni 1.6746151079318556 6.85527391797957 9.187697322461858 0.5633646980819975 0.012594034614926697 0.003170427308181637
Ni 5.115405125977313 7.741421738262196 6.113173489007078 -0.4487770579413884 1.1157045058084012 -1.1309426629143942
Ni 2.721734418284087 6.918546271371852 5.1201361343476925 0.8148065030709 1.3240263396793779 0.6057585896671761
Ni 2.786922988200746 2.88602673019448 12.960165816832996 -0.36410060353791485 0.5979732892948024 1.0199684511566562
Ni 6.793806156848107 3.5736135896550443 13.241249665499756 0.7872085388479733 -0.05534710931173693 0.11734771938424951
Ni 3.4725936311369328 5.365834161265028 8.411197086068018 -0.7293288929223698 -1.4727448600654247 0.17353506520909467
Ni 3.577055337781352 2.2278528641809023 10.909312756766132 1.5451841489727582 -0.36249906337874993 -0.2504645286772977
Ni 4.647336682821437 5.556200040737694 6.253728901272304 0.0756012315750827 -0.9231713022302487 0.09518815256807477
Ni 8.898621176524493 5.108475119614883 -0.03571790393350297 -0.44912081443405233 -0.08393391981049417 -1.927664540569441
Ni 1.5184899713049704 3.275725638312136 2.98396027782527 0.5830830024465312 -0.8754068903617763 1.5187640071080166
Ni 8.045337399837123 0.9470202520084563 10.646580867230162 1.8876352925616975 -0.029324202885414014 -2.0915204308175595
Ni 0.8027524027777991 3.7179344604108904 11.912561871136491 -0.6804421945239959 0.14137364998520172 -0.9677069227487786
Ni 3.0758158843054395 0.40655138130801105 6.212573035299235 0.06599121928914442 -1.236845887907128 0.29117023392677593
Ni -0.044225533220856955 8.519907956345133 9.2758646772337 -0.01073435569836861 0.5979768888392283 1.091828984742384
Ni 4.927020577182767 8.68942800459873 12.699831058356887 -0.18559199637362878 -0.6810078372194787 1.660689158721314
Ni 6.339765162812426 2.8459164114900517 7.905924275868952 0.5058825447051288 0.21969099493986677 -0.2900690304427972
Ni 5.218973838513285 6.511080501304879 11.675111947093743 0.3343256862683274 -0.44093879284389226 -0.9127303094025829
Ni 6.048853727941762 2.223908806868593 10.119878989034946 -0.8247777553509991 -0.4755597253518712 1.2952999182789626
Ni 7.872403509523109 9.073573605604478 5.142967017053664 -1.629622776333813 0.9122040045854677 -0.3738360856581239
Ni 1.2291040680362384 7.560571827257673 11.531914760591025 -0.3704016060552782 0.1323753031413333 -0.6947362425491648
Ni 4.515582843737595 2.906444668403251 3.8645296755366885 -1.3594705394196005 0.36668379088405884 0.03010993201150298
Ni 4.947661763918649 5.15914323324731 13.61386354987798 -0.005525300693603387 0.3420397670831335 -0.0010484958691723877
Ni 0.6570539025692335 7.535707522550592 0.21953888075300546 0.8265728995782088 -0.5303345070999059 0.9210449999158653
P 8.37510338044721 7.053546516120779 1.6149184517821478 -0.35713677062557203 -2.1271001276943817 -1.1454472842884724
P 0.3686121545297452 5.683860990157818 10.586690729023625 -0.9858676528182052 -0.3244205113394735 0.08735477256658504
P 5.065806744870631 3.7245109899387265 11.799520909635605 0.6255751101724709 0.06483833663162382 0.34065779913394234
P 2.890984707900756 7.32891427229128 7.295833491584285 -0.1626832100962553 -0.2240785824846012 -0.837634556709009
P 4.169817385351158 3.025305905046384 8.604522868929308 -0.045929158431946705 2.7896862678735634 -0.0943826259476439
P 7.024542811640165 8.107670249011145 11.583282386275068 -0.12616428923461495 -0.47889598881395584 0.33142831011587437
P 8.654805878852466 7.232638344974295 5.744929694547067 1.0777797057381695 -1.8244568601309996 -1.3414789879381865
P 1.8341447845971965 4.876780356560638 0.011966121053195018 0.19112089661165793 -0.20612816865376757 -0.3788361099758766
Ni 6.047951431811351 3.6882796143928664 5.76359513181801 2.9001452305577797 0.4448594680545371 -1.608684740629565
Ni 2.0623140813274676 3.6829309517641455 7.09977198406368 1.3946542864095852 -0.9584846328195622 0.3265000195763215
Ni 5.285939094624876 8.797805862489568 10.310685784348657 1.4735372740597332 0.138359031528594 0.11850857246157008
Ni 5.167477844926152 0.4739994123594816 1.9370642160001508 -0.35843106395696334 -0.6923636285519302 1.0306171891197542
Ni 0.6288306377313144 8.138134370939948 7.104033240324927 1.403531791404873 1.1060240452958434 -0.16957505212008217
Ni 3.2044535460316785 0.4955280119906341 3.58736662912733 0.3969107080894003 -0.2875087259147887 1.831420950153659
Ni 7.301408193346708 7.881314846563657 7.365458195775097 0.698693684535016 -1.813939505539444 -0.5688290636306784
Ni 8.994050619842845 1.593985181556627 3.736403625018414 1.016638615452475 0.7824455702416913 -0.029835595304193774
Ni 2.6339140289314638 4.56736720000558 4.9525146287767425 1.5624588768928058 -1.0274639882027532 -0.36419470591361797
Ni 6.7273804180103705 0.9038216620123138 12.35074291772527 -1.4385263052021873 0.8470170263651736 1.2352554034915566
Ni 4.715762356381218 7.333630397426517 8.439461279802575 0.49140800523803757 0.16236902128994618 0.47694452151454
Ni 1.861390406926805 7.831000209765825 3.1351079024997572 -0.24931987354989324 -0.9901734792824108 -2.5300927803118043
Ni 2.9215232460052643 6.675828612291459 13.009913030291084 0.5745312562217784 -0.08864212391944089 0.14771630437377786
Ni 5.020943092943114 1.9568849643988977 13.397979433554235 -1.3506470275906997 -0.30560132175044147 0.22073640548524567
Ni 7.487271894189283 4.697725735794973 11.164896972625737 1.0493196506252638 0.07468848995282622 -0.027466066630752697
Ni 3.3586438620902612 4.124721182874565 1.5698008546550397 -1.4161985882392643 1.5959312976186386 0.43654554887220304
Ni 3.000357882141635 8.738533378541373 1.0336360295168716 0.36783641643126325 -0.8419218712304533 -0.7351580980096372
Ni 9.196453315735623 3.173049919884612 7.839322728816114 -0.11666072061955392 1.0082647895664831 -0.7421018763173219
Ni 5.987916182062191 0.6568111197959994 6.449069502090778 -0.9895720982529861 1.3931152240572393 -0.9246080346767753
Ni 0.7697739443123978 8.930471299725784 4.610138827193621 0.4690476352649664 0.33258582075908527 1.6954327328500864
Ni 5.784694908236668 4.920183591039966 2.356334251938163 -1.028767280395209 -0.3915527862115966 -0.007076961451439425
Ni 0.5264721182527288 3.631221011671864 5.31367865432072 -1.0586239587453252 -1.837674387262538 0.07034923914752401
Ni 7.893165622544512 5.511903812149917 3.05741090364946 0.6661301487766979 -1.543813750987793 0.6983946652373585
Ni 8.422878565249146 8.820707440562458 2.602211807879385 1.5312346287712015 2.167625084391622 1.1136414526317853
P 4.989660393081566 2.8319726805675245 1.7845408222773367 1.7404697184850673 -0.7955435410762298 -0.29480217425240846
P 8.560678718608933 2.073839286539617 12.718196970520623 0.4961979704275132 0.0030585843206657 -0.21009563794194785
P 7.838088350501626 2.2336108157759953 6.00346823258212 0.376401532392455 0.3201931035216873 -0.9602311831970238
P 3.227010949291938 0.6677521580288723 12.649606651172096 -1.0447253463863622 0.5197227930223307 0.04693471687832562
P 4.8201496468499325 7.293631702985645 0.9754974620459651 0.4069158989312282 -0.201986121460936 -0.5010367865770533
P 1.1734686746755734 0.5479942064685072 2.1185578269245124 -0.5623110600065025 -0.44647514928108917 2.3351895338395785
P 2.6022592481913964 5.7338128480990935 3.0893912551582323 -0.16646453151555848 -0.294987293680021 -0.15922019124831932
P 2.5594978532275143 2.227220326687419 5.175751063260039 -1.3161163408036818 0.3005233930069018 -1.241904790487274
Ni 0.3544488958888911 2.7833324077230306 0.9001464331347352 -1.2018259201885173 1.2521241542224373 0.4872065655621802
Ni 3.9020865892122756 1.022310817776927 8.614556029818594 0.6949992664025644 -1.4934131870480538 -0.9834767839885257
Ni 1.1689199859356696 0.8875105665002045 13.702943433004393 1.2319283960008525 -1.1422565452653166 -2.0312383460980503
Ni 8.10579124057462 0.9017519621255478 7.751400017221899 -0.5751341799130998 0.04003079066964074 1.2026381316771675
Ni 0.7501941182824924 1.3856663996953844 6.505827649502376 1.0482428726213173 -0.278899644089539 -0.5315269847461105
Ni 1.3872663474730191 1.1845752888993877 11.156891652524385 -1.6446084511093677 0.7451033821478071 0.24626643143555005
Ni 6.839720937257445 6.720301579296532 9.785018290995728 0.32106804992747284 0.5837504608272012 -0.24855548458004292
Ni 7.095377708888361 1.6056685211421469 1.3174611840561261 0.8740413774728173 1.4937086068012855 -0.6847475067675691
Ni 0.6192532759182162 5.704353344542293 4.33121955903765 -0.25282865803410004 1.2715925473596938 -0.22420122410539453
Ni 6.9852231648025915 8.626667262414411 0.7876840573999457 -1.233594985069998 -0.6833922782912553 -0.9240940711548343
Ni 1.3022086586434054 5.78037877004584 6.676825789045893 -0.7028362459484798 0.30728102344570946 0.8041978743171182
Ni 7.1483806300334995 6.502438922901257 13.282556224228625 -0.9089325329230474 0.2851070584518316 -0.437213264363189
Ni 4.243861480176588 7.374549992041727 3.129771332499588 -0.2541067534155753 0.01938174696072146 -0.003947414683522234
Ni 6.677856453079392 1.9093423301460373 3.698596486952023 -0.5578987898714197 -0.9122325438305581 1.3465348051945392
Ni 4.271209424747789 2.715185794822139 6.302864041685229 -1.657261621097004 -1.002058660755771 2.0235093528849086
Ni 3.219876298446322 4.736561677490472 10.949271452512564 -0.2799867065061307 -0.8195710143390789 0.681336424203491
Ni 2.999381169835521 1.7212833521201947 1.7490889561719756 -0.2638224380414424 1.2157880387955644 -1.4447064658709698
Ni 8.764755778455052 6.184021409086022 8.348353555888231 0.28122263579576084 -1.1225022454565248 0.47930196600312297
Ni 8.700962511832842 9.083303520577768 12.673255181608615 0.48586342127072457 -0.9612151443768479 -0.5021467318117803
Ni 5.490592879832699 4.58408293347308 9.664530130711267 -0.37068159918954224 0.12843663020855944 -0.005983985497576791
Ni 2.0436449232477396 3.0229710975336728 9.380110576968578 -0.7777700191428927 -0.22872945099305125 -0.18687883350585235
Ni 8.072164431178397 5.072178629915283 6.118429131416169 -0.42693605080689695 0.8363598037616434 -0.08220356738294875
Ni 0.5544423680932543 4.999725180845524 1.886540283708151 1.4528488924724463 1.5664114337826505 1.4534762416438
Ni 3.0862527529479182 9.158045267050422 10.513486606781452 -0.9978747045814106 -1.9745984861168189 0.332335395311176
P 6.18767710371748 5.423599717655219 4.490752956511776 -0.444029515954074 0.6006770613792107 -0.1569959299034909
P 5.600031168227319 9.028384382908254 4.304276252421839 -0.3243122678963834 0.6225242391612892 -0.30976368065824716
P 6.683577196586634 5.290962186484893 7.916339749860917 -0.2406272308719017 0.4908991839224191 -0.19305153797546754
P 1.6866147162641176 0.7627285928776264 8.76328047777172 -0.9993376622801822 0.03298571089740126 0.09356835757646466
P 6.119930477760997 -0.1709283743787933 8.406160041175058 -0.990965636166403 1.4890474538801903 1.1140104059354299
P 7.980027903634945 3.2583680653291895 2.5333907983861765 1.120810716686715 0.7051324981818243 -0.2975992773815713
P 3.3317331125513205 6.805229039818664 10.692883541955355 -0.2073998362773396 1.9058065641540853 -0.3892151392173555
P 8.049672142071879 2.781360379066876 9.474090765265094 -0.5119621752403054 -0.04968528304026927 1.1912813119034518
