# total energy = -381174.94483167614 ev
CRYSTAL
PRIMVEC
9.07895574926820 0.00000000000000 0.00000000000000
0.00000000000000 9.07895574926820 0.00000000000000
0.00000000000000 0.00000000000000 13.28796945396443
PRIMCOORD
 96 1
Ni 6.062354694099033 1.4417381774904288 2.9902584933596588 -0.0545688363848157 0.350562459842164 0.37209133505287534
Ni 5.2104217997476985 0.840783936656383 9.275175617287521 0.1704939643899257 0.5163847297880333 -1.0276786753167204
Ni 5.45772347617504 8.48432956899051 5.777529693442674 2.9154679769577787 -1.1889850596701073 1.7659277535468554
Ni 2.017534631864613 6.7161212206916545 11.581103279429108 0.34717554564780206 -1.023083085526238 -0.22464396806976797
Ni 3.4370202887440278 1.7087048721321547 2.6817909839627285 0.28214463338939794 0.5565826421631576 0.3286147519264792
Ni 8.557841873922124 2.847596321747594 3.609051974401204 -0.15465674024735301 -0.5286383503444056 0.21441174881879846
Ni 7.0309430912373605 3.6852843344838 2.067448914938964 -2.276324898292886 0.6761949892118677 -0.10008096188400183
Ni 7.794701167076182 0.730364768593056 9.116317496463711 -1.8244293493271742 0.3280912753228414 0.9376826084725463
Ni 8.389962902637642 8.781048001715588 11.292142814416032 1.0573394356059467 -0.1648614486944967 -0.4092445470644049
Ni 2.78995403151531 1.664363252114124 8.896813766836372 0.2549372197366706 0.5415699708044093 2.8021915994294253
Ni 5.42689134235415 6.662845908188419 11.947797763810403 1.5809584783588901 -1.4578368326053408 1.6166597884152416
Ni 4.666401690595281 7.757132448068275 3.307920261272613 0.37633494082057767 0.5542948745702454 -1.0696624759476738
Ni 4.829042104396058 0.9738632704451406 12.336882768930534 0.7471039575176036 1.286570765936081 -0.9773794128415362
Ni 2.1482988319300707 2.3456117778456846 6.991040172699021 -1.1085367844153684 0.22279328801427437 -3.2458066535539
Ni 7.457000327970804 3.6020847837374377 12.764237388444604 -0.1618200907650116 -0.6091251921465638 -0.07109254507145177
Ni 1.5771508029140417 8.176226125720264 9.762258871071577 0.39135609681975825 -0.26428600794142226 0.06465321720401124
Ni 0.5935285629035079 4.447834909204194 5.228815764153213 0.19438105542016848 -1.449614701805865 0.15871856902155246
Ni 3.526983661544737 2.959585241264877 4.780453348865244 -1.0871711742553984 2.255074987775174 0.40883702721334103
Ni 8.701135032960734 5.461700058805649 2.995427142883874 0.2440524545033668 -0.14795927362251937 0.8693401153424061
Ni 1.6791074762970235 3.8905232087933 2.8910636383242374 0.6622048455803629 0.14826549200902853 0.4683467525431998
Ni 3.0808619325426925 4.099729586777633 8.223831630340358 1.6560028089892382 -0.4614209719576441 0.5573100072474854
Ni 1.6509899502536494 -0.16246882153658043 12.109405900339263 0.5573151494538079 1.1664843074644298 -0.7159964374795218
Ni 3.4521821448926993 5.595805314597282 13.561435982099233 0.5264032903662998 0.5281686097968388 -0.8993726571487544
Ni 1.637262569117846 3.545504731331138 10.151343876191708 -0.6596653669879606 0.2400587599629414 -0.27440149910886935
P 5.179571508015252 7.160781237813497 0.9299973877098587 0.15689205733577496 -0.6932668570924899 0.5790985638774865
Ni 5.847982390277219 4.915864158497702 0.24052423593932734 -1.4090149260066314 0.7789118460568198 1.032518519907525
P 5.035887953878202 2.3891635287110597 1.1960552788782421 0.11049470101815807 0.9136967870809104 -0.18340835845874867
Ni 0.17894077100396633 1.9715134050277179 12.35862232854011 -0.24829580316075303 0.1782782363210349 0.5801010370000719
P 5.307049126089201 4.867482403158618 8.878702157955543 -1.1164089880745935 -2.1601624574659897 -0.8596156889657905
P 1.1403077667167527 1.8232086623998451 2.077759885015638 0.2998209676232385 -0.9148689530121406 0.09757773584617388
P 7.611678497554585 4.588431618376843 4.622472255169555 -0.744483489175621 0.7807327013156425 0.931543328344028
Ni 3.824664463582245 5.568468578750785 10.888122019146094 0.177578639150849 -3.025263080805751 -0.7104197147226927
Ni 8.277211350835037 3.4196250094740552 10.636155575240197 0.09617365640979567 -0.4886813503354939 -1.539797173629232
Ni 5.981815277395521 8.502759849219135 10.849467457027181 1.5118621377818606 2.228480010895465 -0.676763460120828
Ni 2.590280557097508 5.29142424319587 6.453940043640326 -0.5020369457067935 -0.12270769814458221 -1.7039238010402333
Ni 0.22641917024317415 0.24808155872864115 0.7089820119455404 0.22305914008115132 0.9186693005948372 1.2190836788277006
Ni 0.8158649267334738 1.3452470354855908 10.224268772684505 -0.48867775079106807 -0.20624566806823832 -0.1846370886595272
Ni 6.080984711354765 4.430539498447775 11.114535742015802 0.5536839804591238 0.8462747488825103 -1.4267023159840655
Ni 4.957146170418666 4.7371358350589325 6.462072064330365 -0.14823798120520276 -2.3798040872251596 0.8648388850379428
Ni 7.424806350783266 7.498155234510881 4.109968833103663 -2.5436432653027294 -2.9151550737030503 0.3203409419534612
Ni 5.443051883638361 6.179500460498019 4.862067713932829 2.087755050237856 1.4025051499125718 -0.3317982918607834
Ni -0.05933006811134888 8.83012883664955 3.9275780589041904 2.651720615128646 2.1763827759795937 -1.2375709389986105
Ni 8.537995276592186 7.446450581357178 8.515728229651927 -0.11838104574477029 -0.29259848173287023 -0.7671752743461819
Ni 4.134229618732693 7.587937028196036 10.00064501292527 -2.469753359991798 0.9963970915946195 -1.0460263245859727
Ni 0.4444321353318244 7.237389466665288 13.079229035463351 -1.9575564430328674 -0.26109012671194387 -0.4479177952648866
Ni 2.7984428551674108 0.8684357122683641 0.6539063425115972 -1.0287703657190024 -1.4938757285067692 -0.5841078441666199
Ni 4.604183606651062 3.262450127051421 12.457803565141866 -0.5705396185638819 0.7050756768019599 0.8804215699675483
Ni 0.43396591511135235 5.3179438730223785 7.656899868387469 0.29566966445902626 -0.8119425512595437 -1.474536918968841
Ni 6.711263979350613 2.9609561635873014 8.676445720619 -0.6515237117174327 -0.6600546320065794 1.7836763357795278
Ni 2.3677371930758118 3.0225477995828625 0.6577521881790087 -0.09837349227459187 2.4879912231560635 -0.3208258520096798
Ni 6.750739279071824 1.3063527889341486 6.904202684372556 0.4973796494404402 -1.2393306020021946 1.4333131364323637
Ni 0.359207977447047 4.803802607334198 12.405050292595845 0.5728034748973941 -0.016797531173313007 -0.6203699118224477
Ni 7.149913727747653 1.6550845593093682 0.7017760447448217 -0.08474150331345405 -0.6808021489665759 0.09459962705445643
Ni 7.392122109983735 8.522606446549073 1.946674289915652 -0.6236668374061646 -0.27090711280236573 0.6651996665426286
Ni 1.5373214239175022 1.9244571772321706 4.2320989462245775 -0.06316531980457508 -1.8713339842985126 1.0304554667309092
Ni 7.623208771392197 5.1034353848639 8.791878288062742 -0.36500948850542947 -1.2424622056526409 -0.050621678811609595
P 9.464085081735345 2.711575406286879 8.371168556282335 -0.5731225487997097 -0.14364290563535262 -0.03043491945108952
Ni 5.640283118951976 3.9386779902379425 4.100454995344266 -0.18935043497479648 0.7168531290528622 -1.0402462275690858
P 3.6540254897413593 5.479049943296735 4.253983769126597 -0.4357644477318044 -2.420320559281967 0.14958729614424562
Ni 8.897984952131688 1.8772193703210704 6.113967649799381 0.645583692083914 0.665468346822983 -0.12023121157963165
P 7.008890307653455 1.4267851373246432 11.768117965806137 0.6561085028746378 0.26141254304836914 -0.5496152097063889
P 7.410143837202366 1.1903418920073685 4.586010260870945 0.7236123021535666 -0.8409178554459711 1.3537819736752554
P 9.2643480546271 7.343812986290872 1.9931821487822292 0.5203668543642329 0.7467193204846753 0.6641470569083981
Ni 6.7665185042133755 8.481923645709434 12.966387601998548 0.2773963200711352 -0.7686552013258181 1.5801267264862142
Ni 7.826713565148166 5.841336594647982 0.8907399829273108 0.5199500785417884 0.15146085901787465 -1.3518677873716782
Ni 4.088090365470688 0.5950656301166636 4.6797305055724445 -2.783523590706277 0.10119270689094186 -0.7662985281681836
Ni 6.166317816708875 6.546953037686748 9.661722146372222 1.1178585760369264 1.6531568549000109 -0.011616244082689672
Ni 4.056559152054918 4.13207790621339 2.0559150095190404 0.48050575650323696 0.385571114706865 1.0928556262346856
Ni 2.599967802912258 2.0891948298175853 11.722221120663395 0.2850816045305348 -1.1920181900694762 0.08453890038434472
Ni 9.08767157519408 6.074584047531524 10.238380193649704 -1.0664280281707763 -0.026793980264392562 1.9928870000133614
Ni 4.437829899937227 3.093136680754072 9.9885536596206 -0.05606007621836152 0.13438821980630403 -0.07156177139838643
Ni 4.654653521819005 2.377796676077445 7.417942660215364 -0.5718938185989312 0.3506334222894155 0.16647173060441006
Ni 6.947743540490999 6.3050170241239964 6.5788474093336236 1.2139584417859932 0.4634477725796857 0.8085836620896398
Ni 3.8669451606387493 8.077692218665455 12.720068268586347 -1.3288381592457243 -0.6040824875163339 -0.2549693585261867
Ni 2.0488025555628315 6.245776837674846 3.2592461635574894 -0.6059408808813114 0.36373242156521873 0.2673813590372943
Ni 1.9075340036626354 5.619828231584936 9.361693526370614 1.8785680401531066 2.2716411196639714 -0.32179258679832323
Ni 8.168972040053923 8.506736431849744 6.079870723480849 -0.1567745579213042 -0.023871664411275015 1.338787300038636
Ni 6.069018647639827 5.973117637760535 2.547515951698055 0.17819570390955763 -0.14379074406712655 -0.3495782415520237
Ni 3.5847258202905756 9.092846579987338 7.710051707092129 0.21993165019576313 -1.5083479539810152 -1.5434998192917997
Ni 0.5875055836406163 0.3728491085029624 8.072334726861065 2.105555825864703 0.7172979298997647 -2.585275853241851
Ni 2.4535242462188034 7.6913826503265526 1.3468685369874787 -0.12395905405318006 -0.31254227184464883 -0.9078891792601977
Ni 1.8013374579314925 7.267967389724405 7.462085451101864 0.05746749808884942 1.048784089836768 -0.1414896067377757
Ni 7.264435675926899 3.843612244290195 6.737107226971687 0.453369048187445 0.308973580656784 -1.975796877300294
Ni 4.507892201673332 6.616634023280192 7.66565652123501 -0.1358743174335273 1.0828090406319608 0.7838113402409662
Ni 9.005606893919921 3.375601152908242 1.1533124629726552 1.5864557540280355 0.13750028307272447 0.13409459982528518
Ni 2.464192019257539 8.58552361008817 3.4039129686052583 -1.2290469606879995 0.9032164563748767 1.1766597053355348
Ni 3.459763072967035 7.346809041697496 5.539674670501975 -0.8191213283961699 -0.4217395942076221 -0.2887623958162317
Ni 5.003185555167116 0.2514734566071703 1.2903638399141337 -0.057448214815139766 -1.4142442927263708 0.8145378227905455
P 2.5621176362752456 4.165388594961579 12.030369050816953 -0.4332301113457248 1.8181268041479142 0.5392634341584197
Ni 1.3436309813571694 5.561541335492439 1.1353025383965358 -0.4549770161045132 -1.0636419807852069 0.06034507674696059
P 7.651716692534011 6.673313944200046 11.715790496286086 -0.1411859594544278 -0.05141666390907919 0.7064226777481576
Ni 0.7597424536983678 6.714732140457674 5.267417668328615 -0.26689670609139193 1.3003549642043668 0.2779403655000633
P 3.427487385177498 0.47186964758745303 10.599148843594929 0.004591476025424351 -1.0815162899624664 0.029965178903522592
P 6.599329533567997 8.225543013504446 8.07730454725375 -1.1128683219111866 0.38996641556108325 -0.896364980670682
P 2.209645336119635 -0.06617196918538407 5.909146407455653 -1.0475838988810797 1.2893285311868763 -0.008518578993972426
Ni 5.457805186777039 2.104992212870692 5.318297044402129 2.0262187813962718 0.014175005948801394 0.29764452879720993
