# total energy = -340889.6114607718 ev
CRYSTAL
PRIMVEC
9.09741917997331 0.00000000000000 0.00000000000000

0.00000000000000 9.09741917997331 0.00000000000000

0.00000000000000 0.00000000000000 13.31499255111958

PRIMCOORD
 96 1
Ni 6.558529716323677 2.2517932250429817 11.277705899230204 0.7243095853309075 -0.29610880887897395 1.0618103268931067
Ni 4.720305172641612 0.7097688271115905 5.813246383750214 1.1295601807445708 -0.8925697752943079 0.4398671570462682
Ni 2.8774682373746363 1.802489880673142 4.714905854287284 -0.8225028432738932 -0.41741525580065525 -1.2260989338032688
Ni 3.5878493208050912 4.351513989073446 4.446261791595171 -0.5221365446701459 -0.12760590677714798 0.9910011173900287
Ni 3.583500754379871 2.7268604608693576 2.51763892155853 -0.009829584495912104 0.2089620385581369 -0.7425585042387663
Ni 5.282671244067181 4.553813302039189 2.7412907873624213 -0.3677651968736957 0.34523899074672154 -0.1295997972787252
Ni 5.597532926027174 2.9996465785685893 0.26581112632220977 -0.815974298126756 -0.9020756579022141 -0.5697770293662445
Ni 5.806973713143123 8.093810197328256 12.103048341124222 -0.239456093381936 0.732134480691965 0.031174368720275344
Ni 2.1559883023986397 6.7116392831363525 0.18970666517120352 -0.04905767675859938 0.24103037984759132 -0.004481432810121314
Ni 0.5184946765950618 0.21015129556324896 0.35415070668928056 1.030374734091645 -0.1663434325566619 -1.3915432515844293
Ni 8.161931673043844 0.19124776800055987 6.522828713766161 0.4575175231381798 0.3459840964428622 1.1982117204746978
Ni 8.773851387394465 2.412071558263761 1.044190870307706 0.362927152055104 0.9981726954378036 0.13084601098100046
Ni 7.0769643499513615 0.6813093703165761 4.383162091332978 -0.04605282849400455 1.387043821052179 1.068866205298624
Ni 1.2454276046992532 7.7057506796834865 2.5631223790889313 -0.6867064302661529 -1.8620209344277028 -0.012951932174977693
Ni 7.789847223689213 4.109222420866554 3.7599406529864323 0.5085235818724017 -0.8315914358387226 -0.25944436357840484
Ni 7.704249605499049 4.322493221507645 12.792085969135828 1.1216306414848491 -1.5445560284704563 -0.6421499838120166
Ni 8.406443011559842 7.428370365237946 9.17558796521429 -0.33775348100295377 0.944581906695541 0.5512144358727087
Ni 7.079065853809575 0.5647850752173397 0.2734629656951237 -0.16342188803449276 0.5944457357575182 -0.5478190370379146
Ni 2.0509222069072797 6.8403040842909375 8.968180451311808 0.026501902945270484 -2.409972897499056 1.1315674409825867
Ni 0.3141675488674322 5.071811259540492 1.5327022723750665 0.14662050020643783 -0.3374488052783414 0.3150429267793155
Ni 6.490781234799376 2.2665401417276727 6.762512051859851 2.1237229836920326 -0.6544709672712148 0.46165365679374043
Ni 3.9402742470532335 4.789800358671441 0.36119938716262945 -0.7936591795693234 -2.066466573172725 0.42991467381924664
Ni 6.2997809166037655 5.947301405839826 4.753811877664057 -0.5318193191755487 -0.45225344652576305 0.7863446481857812
Ni 5.80703739507822 3.050173645358702 9.145216230882495 0.07705724729531889 0.4416653865972716 0.4720722810239031
P 0.2626679679541896 5.768036758540731 12.744458249876507 1.1270590115892718 0.363824981279025 -1.6578491181693578
P 4.404843061007843 6.438143566731751 12.536984324813135 -1.1753690115485693 0.860238410151454 -2.051674502465215
P 2.7286253602134845 8.688553984041189 1.2409689595005076 -0.6604333555022368 -0.4364843566169644 -1.1640574431904922
P 6.59526509545556 8.023032275177181 5.7306263508968165 -1.704049270874504 0.38497256189091766 -0.15780325629613468
P 4.766956738810084 1.2269143564245182 12.470289324443732 0.5070935342940944 0.006750945570588373 -0.04059283382069783
P 4.350858974883873 6.388744579934791 7.88967866411557 0.19415891210703334 -0.16786783962098834 1.0177552455554215
P 4.879801127802623 1.3722183374781158 3.76920819402696 0.8967753287352234 8.921727969662053e-05 -1.6674545024696055
P 0.170061697935595 5.871529000493257 3.857340353233999 1.3966890574514268 -1.4431959427637147 -1.7207696689529783
Ni 0.6193705007570148 0.16582775899354993 4.570797274129657 1.6682158061156627 0.9633753852529601 0.6302565748085404
Ni 1.9701098312687177 6.779087549823767 4.993202278856298 -0.44907761990094275 0.1125883503223932 -1.6775026307342271
Ni 6.207960663612658 6.120670925432764 9.253986795512661 -0.09111526805028179 -0.2308192436425444 -0.5103889172159145
Ni 9.01365936013256 2.854160649128999 10.108982275613803 -0.9457625572672035 0.11402662543081653 -0.112591949866819
Ni 2.7684993490037377 5.4353259399148754 6.766705962156978 -0.012831861657345643 -0.32864997603978885 0.4345902249180451
Ni 0.6822718772784764 0.46010834927200367 9.408760280315237 0.34869403917485753 -0.8596475706449905 -1.5734747683873354
Ni 1.618603744369838 1.5973612703052154 11.162331517930442 1.2890449385081864 -0.684129670677912 0.8492508007916988
Ni 4.540094393735356 6.857989467409407 1.425490095670925 -0.67971071567461 2.061814933333326 1.5191874677986803
Ni 5.835193907810557 8.247838603490194 7.812745428066367 -0.6128892871746864 0.5850483537030181 0.21256106876330488
Ni 5.72229493430222 3.1947225406104307 4.795807384634983 -0.7739020515470542 -0.1956864044951533 -0.8944361390790854
Ni 1.1802354979981462 7.970176269046364 7.053630379189755 -1.9738778059007103 0.20375426910495228 -1.0197185399293793
Ni 5.514910163947988 4.440577724016767 7.226152929045899 -0.43348105101426637 1.5790095821626355 -0.04738388860060226
Ni 1.0082305913001515 7.519408240169285 10.952300308301947 1.1551634831349717 -0.4404238008806867 1.5520127418588174
Ni 4.835460306136254 0.5948784285185664 10.17855297022382 -0.2651799805106014 0.26463747774357005 -0.5720195455435181
Ni 8.31352197083348 7.521436964673101 4.582780394831122 -0.3222870099362385 0.2556267896045275 0.07263777807138458
Ni 7.577331508849992 6.566908439498631 6.96371421605806 -0.38906755789589764 -0.884344302060722 -0.07241614897888174
Ni 2.774603717353785 5.477638037077427 2.404154983989228 -1.1678469921399113 -0.1348327635428904 0.3676836929034829
Ni 2.839268173735514 5.276958064747016 11.279809222572277 -0.49225929749473935 0.25453715608477456 1.1898021562547638
Ni 1.1365496905213508 3.5783516150562837 3.6206928239605944 0.2786358489051911 0.2104473648544118 -0.8057395077726253
Ni 1.6082690760454648 1.0352317317814361 2.4712229785499176 0.20097104993286033 1.6970941797129095 0.09163128845475188
Ni 1.5001462476694312 3.505317532918901 7.739485729930354 -1.4666004377305837 1.7471931532518297 1.1696953582025598
Ni 3.774064396449099 2.875494097386618 6.700863389975948 0.8403069613348496 1.1211418747738886 -0.7861153057837946
Ni 4.190798979726285 7.39581070156459 5.81600199205607 1.3026869547716533 -0.8359381428431926 -0.22594803159317217
Ni 8.363976258269197 7.2802825738786625 0.5730409832317486 0.48199699633678283 0.6047962257539068 -0.4188360474075819
P 0.3757943769450165 6.152893984592033 7.918027132395128 0.43127684427409596 -1.9423563382536613 -0.06785166953665088
P 8.988614164800694 1.8946285433397358 7.889519459277826 -0.9698897893327102 0.03212259156615758 0.11238137651790968
P 2.0886037176463232 3.598438716869854 9.992249649612607 -0.8610619344940139 -0.6240900409865123 1.3258091426114134
P 4.262714079289814 6.295004771471463 3.8001257735167324 -0.04582888540865656 0.8019257904534899 -0.24350043865463872
P 7.303253557610214 4.575537939326692 10.465318182418855 1.1850900954910752 -1.3333656148024324 -1.7596676315697568
P 6.5325929739004485 8.34627268031213 9.951905324244562 0.5822093415923263 -1.3928807394489302 0.8778286124293915
P 2.656455532909566 8.886659386709805 5.61603798662454 -1.2852103952534446 -0.08048427069899688 0.1130344367208763
P 6.8879381717437695 4.100598067370511 1.5033558171983388 1.9950323284911384 0.23642707674762506 0.4505048392657725
Ni 2.6829563153293714 1.6045482315519186 0.20387134702071838 0.44159082460559435 0.9607194356873519 0.1770703320558628
Ni 1.726790254680969 1.3606646149675932 6.903317359069785 -0.4185411418749824 -1.4251892217736488 -1.1287451410424432
Ni 7.374540935242069 1.1697643683842789 9.20466786600554 -0.6245919203235952 -0.518505375675462 -0.8625683438362113
Ni 3.002839772742757 2.028324217367013 8.699963057584847 0.6954612936406473 -1.5480393590333663 2.7722333625044384
Ni 6.630281062339813 1.9344752398720897 2.3468876392400237 -0.06786426794214119 1.0596264318679105 0.3906629274074756
Ni 4.133521627815851 7.080739778960706 10.256285869429458 0.42518384400248066 0.5964828207922049 0.24362102339290304
Ni 7.568761739869746 6.4722315968474415 11.5047128932718 0.5668701401320947 0.048754286585567644 -0.474071570842119
Ni 8.075524384536013 4.162178498609666 8.052415120031107 -0.329514123812297 -0.12418942489643127 0.5970104111609008
Ni 3.1979248322038987 8.687444098886635 12.25414737827168 0.37297039522371894 -0.5524989590120872 -0.09409466239357989
Ni 0.5379122083481797 5.139332305582302 10.282609252172922 -0.7920715233672294 0.9661143814506781 0.017183967978454277
Ni 8.94827620762616 2.38305079069796 5.533285131449369 -0.32774674749922905 0.7831402823158706 0.04858022290154859
Ni 3.94689716830336 2.8168885222584388 11.08102970113356 -0.1164087525097479 -0.1333806044773961 0.6606596125804299
Ni 1.1977753224078218 3.5224388760407934 12.524388038050876 -0.5914154335716265 0.7269794188535867 -0.45168137607237696
Ni 3.1445775654309025 8.404705404473615 7.983695943867536 3.4021310113116634 2.429845468053267 -0.5767786574950583
Ni 5.784976153276632 8.041072457648337 3.5654087166187085 -0.8812065277626888 -0.30797136464451474 -0.3170252473166669
Ni 3.3266442178742817 8.588345910455828 3.3227696269945715 1.0146403540755236 -0.17478847800022157 1.4621632278948367
Ni 3.8489361572850065 4.499874703011717 9.277047843695279 0.976901187653537 1.0733144708779645 -1.6485018726265026
Ni 5.541929499267872 4.589411503758618 11.558958075329668 -1.4702490902267646 0.5394187287893613 -0.09108955701866893
Ni 8.50721512514178 9.128077602663934 2.4287880662268204 -2.01184322940089 -1.5614183514434334 -0.6692190721146668
Ni 4.771459961363398 0.5702526242164138 1.45732560476803 -0.09013490641488348 -0.3121200967055657 -0.18003892776588348
Ni 6.245869609834193 5.928469747889604 0.21234741258217826 0.6051212131934933 0.4178070919224353 0.6958107065602662
Ni 8.291615385159986 -0.2283743361623262 11.26741307903461 -1.03809549977467 1.0042006467994382 0.6908929575436746
Ni 0.2532121103341602 5.052215418369101 6.047070074073014 0.4339399929285559 -0.3048752422176943 -1.1574929025990968
Ni 7.424412987842609 6.133398215032939 2.5365324419599897 -0.5609370624771113 0.437697145978143 -0.022512579280219294
P 8.703501043950471 1.8833022563117037 3.2706013857628067 0.18461523428265625 1.3489015056545026 1.2347486390584668
P 2.0275327418879456 3.680069860245382 1.1683670047798564 0.7041631922900194 -0.51618238396924 0.9884883782705042
P 4.954982200894717 1.4545772743976138 7.908759591354602 -0.18551280639626114 -0.8533018309326208 1.3483623453215812
P 8.653492530060438 1.7578397467505864 12.18275265109209 0.10252171011501053 0.1466922339846377 0.30341665539429685
P 6.537014319680066 7.966937587775698 1.4964718000143131 -0.33868987677429413 -0.15326885876089086 -0.24823975311183702
P 1.9496133455866644 3.566725113191364 5.663931350527411 -0.10395638567900806 0.06791671844663143 -0.20800301707897723
P 7.27600678680784 4.260694452205297 5.9407903828470845 -0.2344696959109381 0.10237798544829466 0.2648789043304148
P 2.7218386854159653 8.895583955042737 10.102231080751553 -1.1688412377323805 0.051134099671653874 -0.047713504025879115
