# total energy = -340858.38668595464 ev
CRYSTAL
PRIMVEC
9.38588543262244 0.00000000000000 0.00000000000000
0.00000000000000 9.38588543262244 0.00000000000000
0.00000000000000 0.00000000000000 13.73719207047868
PRIMCOORD
 96 1
Ni 7.788905188211571 2.703641843898975 1.9065990226411198 -2.104356149129647 -0.46761475947318176 2.0886605927712614
Ni 3.2594552077543963 9.086822970091795 8.5116465245782 0.9701093615426841 -1.2931340209758955 0.47395869941333857
Ni 1.3886886799491514 3.6073712091626295 11.135807752001371 0.15807810722407614 -0.6187984535702697 -0.6336846266534829
Ni 7.600840201694448 3.0179939189816487 8.5694523158125 0.458881493365242 -0.39415011462512767 1.0730033673954489
Ni 1.8709448596285632 9.126590966691738 0.2899562816527535 -1.0338297825197809 0.44707473053830105 0.18481140945386235
Ni 6.470469860764325 6.518131387017456 2.647102208610234 0.25871571294249635 -1.683654766378552 -0.7536751829772181
Ni 2.3033995311750273 3.735253898252604 6.603152491667189 -1.1951562214778255 -1.7203120125902696 -3.0004447362104907
Ni 3.429940430846528 5.074075368870743 11.467986439296054 -0.5441577861362434 0.991147413159906 -0.06664505082305941
Ni 0.025196409457764163 6.915557934110065 0.06974839186535185 1.0217975339455951 0.48653756451961366 3.336656326647621
Ni 6.551751628655642 5.0970426305370315 8.01393460734837 -0.16884023083658664 -0.5306633511942345 -1.6946331197669264
Ni 3.138508688002953 3.4156926567519537 9.488484428693937 0.5677522856267319 -0.9069602396880252 0.9943600065599326
Ni 3.2341039311869086 4.019833944726588 4.358495463093154 -2.5084461485763057 -0.1825771208067049 -1.5810968037089674
Ni 9.293340607379628 9.319517841865641 5.971172667484051 -0.5770851329918836 -0.08180504639294944 -0.13069765832859426
Ni 6.369290015744881 2.958684508900214 6.505673501275868 1.7032992800823568 -0.12783756317197986 -0.999081066184686
Ni 5.094808789802835 0.3945826238049564 10.777733406783813 -0.1371470134983638 0.0906396139654439 -3.3434854337543127
Ni 5.78868852844824 2.937218988903974 3.5398679210939985 0.40769545740973007 1.028811246259267 0.16212785181341755
Ni 1.8148360364814167 1.8471422541583116 2.727986953547531 1.002480321674222 0.06098322455159175 -0.3923035483346921
Ni 6.972248682154353 0.567740008481229 0.44455213928724013 0.42552091562692523 -0.7779811067124344 -1.3345624633240112
Ni 8.400114047920868 6.724207887689711 3.941996796790943 1.3007745682402887 -1.5040195018089906 -0.10391062004273717
Ni 7.423803630566734 4.50988040931937 13.363801079569146 -2.2764678516286536 2.210228263774129 -1.0017475572732555
Ni 0.7840443085150511 2.8963059142806196 8.245859836516315 -2.173569989121147 2.6139202564514212 0.7509919797181002
Ni 0.10633738906751317 0.7508924225602108 8.17975598396646 -0.8233073414530594 0.3093001107582673 -1.0596084341457814
Ni 2.9250173378348383 0.6724649024305287 11.777567668810695 0.33064823741674026 0.02980037119088416 0.6355836434484087
Ni 0.06882575932681648 1.4588575594821167 0.7727380709166817 0.3205240044985448 -1.8610783680087755 1.9132771614995179
P 3.3961512432704617 1.2999075895930363 0.410368744522786 1.4906106846022522 -1.7438862003657838 1.1474468312170045
P 7.052413529678572 8.067543969203431 10.842450025465961 -0.6371844122766253 1.3886705580223246 -0.643434249841079
P 8.801585911637165 2.1251521808258382 10.258413304099088 -0.02803093799528721 1.5717379882018867 -0.8331415539346618
P 7.227450907208035 5.891210555085289 10.121137220862964 -0.9588664416390132 -0.539991827684012 -0.38191886266625835
P 6.714305778552837 2.4764189433353643 13.605521418779976 -0.36662799794545886 3.073144220757746 0.6072567714792574
P 8.618457900860323 4.1271897023641015 7.00878417980952 -0.7397094648257454 -0.7148823784797366 -1.366573211902653
P 8.663632167472436 8.96277910814588 12.941533848076865 0.49747863691214966 -0.19608415415420422 0.4405140466016478
P 7.407922712405982 9.096997269906366 7.3254264109390155 -0.48487071834015194 0.2307202561708349 -0.7789835798350198
Ni 4.92881001994997 7.736325457989037 6.3195344984505795 0.12144631493365536 -0.49005071987919474 0.18695699504195545
Ni 6.984422175567176 1.377228513829602 11.869579380934498 -0.14274944728680578 -0.19367580182302774 -1.3381093001350053
Ni 9.342682207126122 0.13296796182017262 10.569793807852154 -2.7594390389532477 -3.0837567061662696 2.7110475350237375
Ni 2.5591742952404144 1.7184711506915622 7.812520075973068 1.4547543370252753 -0.18712360252680676 -1.9210501205767174
Ni 1.5373704911692825 7.110502774653093 7.847755628495099 0.8830829188497954 -1.6554474507064005 -2.5202020035606534
Ni 8.858464377390211 2.3549092704576533 5.544688357664569 0.6672601486160831 0.5528879669203897 0.37223377416801057
Ni 8.527245866175818 4.268128158098051 10.883441941526993 -0.6975081488673471 -0.6068700775638001 0.6447393418057478
Ni 2.5866373960314064 7.004817704623507 1.006708484521524 0.59770846566919 -0.9028032800968581 -0.6222249627533154
Ni 3.2611446671331996 9.019948536347496 2.3743915528608874 -0.9330222268823996 -0.12639491718818233 -0.2943296054913641
Ni 3.2297113368020196 7.111572765593002 10.156111845769827 0.17369678759793955 1.0510250633521445 -0.3340050697041151
Ni 7.201808668191976 0.7463778116646308 9.39003024480563 -0.5383532636393245 -0.7063537721834351 -0.32663911625734715
Ni 1.7943560344561453 4.620399210349422 1.1280257467477601 0.004477319045063257 -0.0701756896841372 -0.2656360942114135
Ni 7.590102748753608 6.889502716134742 7.120055728851683 0.2261812306499008 0.7701672670949704 -1.8482472776823782
Ni 4.516112637250067 6.124468579985403 4.379293646634767 0.8513161679611596 -0.8019623001183802 -1.1628950474512747
Ni 5.501799554156559 2.7808313657394117 9.949353929814786 0.2343218574791642 -1.0288297582020283 -0.2841698913495429
Ni 0.8572354431589866 6.447605843837854 10.018822622294092 1.0097357176850545 -0.1253929582862292 2.040543682659376
Ni 8.778496633460186 8.018840609666706 8.734504988413235 -2.674553039642129 -1.560288094493732 0.6259625754188768
Ni 6.100046506076257 4.0892894969662805 11.5294743133876 0.7128026131325723 -2.4468582005611794 0.7752783630692907
Ni 6.874400826465328 7.167202908582821 0.17505614930033878 0.1251096227178555 0.19035419364896247 -0.04030975536264026
Ni 5.137833688649694 8.084729525440036 3.495291535384273 -0.49740124670699504 2.239330580456724 1.745188721227291
Ni 4.4937648440226745 3.512752098064205 7.6159683718430875 -0.08675184887526351 0.6688565465689256 -0.3335368718184449
Ni 7.534754182326924 8.663472607419992 2.0648234635858587 1.2219368320057793 -0.5017422972845101 2.840739892016269
Ni 5.748958075390049 0.6266345624263132 6.087856118069648 0.2293002358948567 0.148298402129493 -0.02785044655336494
Ni 8.820751889701146 5.331060912157606 8.77454893004505 0.18911183660142913 -0.06941644292060949 -1.2449050107661785
P 1.2674887412908877 8.529047956179875 9.297166294284073 3.083903516156779 0.28840912624187104 1.1095919651527602
P 1.7177765951691653 2.0294349211311915 4.924371434726436 -0.7041832468946775 0.45311373764352936 -0.19818808787108447
P 3.7015022542182887 9.0406350278524 5.024515077993549 1.3025527431866342 -0.6370645988693092 -0.1461751851389031
P 7.79525943265296 4.777425073723754 2.9128203797084224 0.055954403878432674 -0.6189092681165212 0.012913108517242278
P 0.43049583725559637 8.829443219616545 2.2164824776668586 1.2235039193825832 -0.5903389126779962 -0.8460446351495752
P 4.637303190022893 1.5514023898987879 8.596940758494174 -0.7018795384621653 -2.10253092299545 -1.218354771081476
P 0.531153827044699 4.813025737189315 12.60637420356714 -0.2420410805002928 1.4837067583935672 0.6106660542711225
P 3.672950390716512 7.1204236555608444 12.354598765286799 1.2476877157176383 0.14714449103070787 0.9215170544562774
Ni 3.7131970674737826 2.9301983465965025 1.9211321276530036 0.2233162503972799 0.31351980526656975 -0.3974323849208252
Ni 5.541755268465258 8.128495909236479 8.978834603775773 0.5196076076007052 -0.698929454694906 -0.3665814609782396
Ni -0.06081772187128867 1.636973507435177 12.320599333876926 0.23391510895904874 0.6325700534330654 -0.7490703372153551
Ni 5.125632037580559 5.135928353905822 9.676711791029136 -1.6702469776130784 1.2949016543992795 0.7010770971655281
Ni 4.010598233455796 1.7294620225392217 4.48160824520364 -0.9161707025426995 -0.42252120956865297 -0.02981502647890349
Ni 0.6029567892323845 3.969797789457696 3.3024763522470795 -0.8331482388028811 0.2070504233577208 0.04001896359509882
Ni 1.6134806361843728 7.343366592364819 12.237365301814547 -0.016565874778481145 0.13567068606315347 -0.7324322144380419
Ni 1.6788908718003752 1.2356236602295692 9.85953945347197 1.94539743907283 1.6801932901925127 0.6153644881880563
Ni 9.060157669563017 3.6865599246013168 0.5088341914736194 4.519984702252583 -0.05789404410330675 0.522800660616706
Ni 7.225892850225361 8.297986228472205 4.7185877736798405 -1.0905827710401088 2.124370644578361 1.212234517116351
Ni 8.34306663622994 6.554548622516105 12.02349100752057 -1.2371420789913081 -0.30493823424514577 -2.5701335982837734
Ni 2.2734491707430196 6.362794983021927 4.087748334577394 -0.6723496473238486 0.018039374000214093 -0.11807688424079019
Ni 2.0041775034180813 2.3924152686670874 13.17562909395803 -0.31187892722903704 1.7954244774543917 0.2850957455979219
Ni 3.3460963162306943 5.7475689643452545 6.312267007356094 -0.3024175247058211 0.5025357397200829 0.3938881192129926
Ni 0.7286929263227351 6.545678960777388 2.385160917812215 -0.5185835372115649 0.49808567436852924 -0.4094319804848626
Ni 5.043055017498826 -0.010087949668543462 12.8262789292549 -0.7992752402045202 -1.3041946496654313 3.230814808130759
Ni 9.138698758906495 1.1907403560660275 3.268970618411234 -1.7956399358993076 -0.6712916383729794 1.2672005889395854
Ni 4.096779433545642 5.03516148784564 0.07928820582432801 -0.9524168293589274 0.3340117545723344 0.08564704584685895
Ni 5.774722330916799 4.292587775548948 1.4403307602164506 0.8687657308961747 -0.23085935285186046 0.6207512064212664
Ni 5.662889505925457 5.950566894593913 12.28363208549162 -0.5382900145015569 3.573815139354948 0.600417894180553
Ni 1.6869345756205667 8.972812619678884 4.25315860941331 0.0587921304375439 1.2690918924250272 -0.9414418184046625
Ni 5.095034051053343 0.968398115930071 1.9960005200246735 1.224141552966582 0.39433600538368857 0.1691078826756765
Ni 6.59375346598978 5.383218277535441 5.302006903784908 1.7298482342154788 0.3369659521046519 -0.14946079786871033
Ni 0.20448653167909284 5.460389027605002 5.5616120476974595 0.11983603302374202 -1.3815822837169753 0.5038313186030549
P 4.040802012794624 6.477199540623226 8.169796620928414 1.0766476490162553 1.4134747615501977 0.2643891091781898
P 3.604339568166221 5.061479510613221 2.35680803508172 0.32351085504101057 1.10579316023196 -0.28744933343176304
P 2.118234783258182 4.745043768963356 8.320562098715737 -1.6966678908087682 2.721449447083352 1.0894800248942333
P 5.412305136507172 8.167841540991722 1.4079935691176109 -0.4928539936559448 0.3470217936787572 -0.704607993136922
P 4.956995833919672 4.075360842976591 5.365760530621139 0.5272198727303243 -0.23453423060028641 1.3915193403250294
P 0.8080778067670724 7.457198610954413 5.397631243213721 -0.12942804758755128 -0.7143740713847504 0.6870735837975844
P 3.5954417487711905 3.040107065073097 11.585356936695696 0.15236228778622146 -2.143576013862218 0.19100391141781944
P 6.851133216465031 1.1244009177916832 3.7416400547044804 0.6556385052167547 -1.208219996640319 0.25069207130707144
