# total energy = -381168.89024434326 ev
CRYSTAL
PRIMVEC
9.21407948811045 0.00000000000000 0.00000000000000

0.00000000000000 9.21407948811045 0.00000000000000

0.00000000000000 0.00000000000000 13.48573670427704

PRIMCOORD
 96 1
Ni 2.4279652565134198 8.752629270308725 -0.06730516577507885 -1.9229463091581656 -0.355291232776401 0.7290108474613187
Ni 5.1280867818846145 4.842431886427096 6.572475762967632 0.754908541163687 0.6489297257380114 -1.513396057927884
Ni 3.41143004158078 5.010524340392372 7.964082810525752 -1.2699647819482838 -1.068220858405141 1.2836499927448604
Ni 5.402445215764464 1.0637562746169642 5.999844673039349 0.038649851161714086 2.7553774672893643 -0.536550920323263
Ni 1.0329996769446466 1.464283100326367 12.403817034091977 -0.570035939454586 -2.3054439271460296 0.5053575254395942
Ni 6.852041073223942 3.276766268368999 10.88390669246324 -0.7014774179277403 -0.5515052276402502 -1.3259955475906067
Ni 3.7545439373632163 2.8290541410778287 5.154774442009869 0.3480463782885296 0.27877983068222306 -0.16276188585299067
Ni 3.5575745579620364 7.515675941633476 4.161981322765321 0.4099814252304294 -0.08980889053403243 -0.6171791727992919
Ni 2.1403846184215345 4.871741873603741 4.129534862896148 1.7731530676507012 -0.7268146111409483 -0.508978152911317
Ni 4.829679600274163 3.832310769105087 13.692877825666116 -1.6047000449502042 1.7658236238688234 -1.7073562237605497
Ni 8.875655660997998 4.103278421695717 5.057151268750969 0.047294671320905646 -2.5836815121715375 -2.669120041552016
Ni 7.48056108431496 0.945668630588077 7.17805271587888 0.17155737265743357 -0.3453451773072827 0.5739561004445985
Ni 3.0935719379552706 3.434069035134071 2.2434874048127673 -0.9222698734619019 -1.2786625668325977 -0.22871942369072223
Ni 4.017522982949084 0.6622352497197717 3.802599969466265 0.5288332399640312 0.6165826768658735 1.0370110084612398
Ni 1.0574907004955814 7.592991283475423 4.2639470917351145 2.1596544074813195 -1.1761516553508646 -0.4985135059345672
Ni 1.6990117778884695 0.29947417202700455 7.827418660634924 -1.782850497444123 2.731503488885244 0.561144293391911
Ni 4.546226869838718 3.4690825375770933 10.72037889352698 0.4021243910798558 2.3643198755466313 -2.1042777304832274
Ni 4.088314756441121 6.120452367836175 10.096595840753318 -0.7980362255910965 -1.2543347887205107 -0.7435208681520356
Ni 7.92861413255097 6.320572962457227 12.625293100979396 0.23236910462816757 0.7459377051236444 -0.5139172420841471
Ni 5.199044408809276 7.84054595982718 11.0189666710974 1.9040556429012494 -0.30874089582068764 -0.11194608875270398
Ni 8.802007522832977 3.6491072246117686 7.486835872515934 -0.0741128199550143 -0.07578043746542433 0.7751477510286973
Ni 3.1093648703729917 6.57555418695874 6.285040707333273 0.4078276121122202 -0.563663460269339 -0.7933334207987885
Ni 5.401431667009535 1.0120837162747358 1.977453891842726 1.713927192109848 -0.39842534496171383 -0.3469593158719379
Ni 3.7226724360604764 1.695058937744244 9.433812353297927 -1.3255718297896266 0.007523304960238656 0.437081366771015
P 7.567459068930788 7.686081129575911 10.80598598559221 -0.677923027646568 -0.13452937336985865 -0.3681855722405659
Ni 4.306918794720253 5.30433369628728 2.2386325062766548 1.291125218075983 1.243084412617672 0.540099814016786
P 3.0889556840805463 1.7094513300642442 7.199468079662584 0.18496876096733306 0.9343275759573845 -1.0905403478379476
Ni 6.7011052354557465 9.427016969600103 4.268411313296601 0.6209977752144338 -0.24599209472824088 -0.6124730255728742
P 7.25070665485611 7.713271878446794 6.522133717718238 0.1851659645798037 0.6074269785085346 0.7210756517746421
P 0.7696557538070047 5.413078263611634 8.012591253936682 0.09390517209059313 0.3713272031933411 -0.46624127616442285
P 8.671720437426574 2.4773711512764423 0.46379622462394365 0.4771111289993912 -0.5218789201333851 -0.5057779008064645
Ni 9.016225659227143 8.982889119269549 3.110660369963384 -0.7035224733822271 0.04989894171297212 -2.405483751379451
Ni 7.7265309389771915 5.4538137094802135 6.456836299885879 -1.1532464686179171 1.731148183973825 0.008196676878179432
Ni 0.7652818302255039 5.846996913756172 5.703239765396754 0.03282270295697573 0.8437116161410245 1.6916807220068222
Ni 4.403399422109959 8.099894658054481 1.8277757759386015 -1.9269528592143974 0.24461115522031424 -0.2581405571653167
Ni 7.531634727483822 4.843491505579976 2.1386486858267277 -0.08275224079756717 0.2247966915975483 0.07328492473708023
Ni 7.506461862043206 6.603177997570367 8.548999954179699 0.15255100675825986 0.8375129435294801 0.35681666828199193
Ni 2.7177941300253305 7.2016969655154695 11.755112660250516 -0.2851481961024121 0.07045311171523996 -2.164574727601072
Ni 8.968294017198563 8.939555302956514 5.7365901264737325 -1.1532966051295623 -1.4590118267500485 -0.148748345182718
Ni 1.2510232282095912 1.5705398661613488 1.3455707417012595 -0.7639909630809294 0.2218779752888566 0.9191238716337525
Ni 5.5647696559062325 3.408721102181241 2.2113643591372125 0.8350146025876588 0.28717525383476994 -0.1832083266328006
Ni 6.465750000481505 4.395926803562251 4.52354733433523 -0.9666941652135481 1.2006555540294999 -2.5766436314881496
Ni 5.65919554354731 6.908385169918437 13.409582655991667 0.6020150634643439 -0.31582325658876576 1.2528206660688295
Ni 1.2670925830150204 7.6079733768892 7.132943346428801 -1.1642664738775046 -2.435381824490464 0.11151928562793052
Ni 8.025444894965108 7.053893914807965 3.91244193366982 0.5706568608680366 -1.195188874487974 2.2364555729017743
Ni 5.729932032561804 6.958389979854826 5.1526036048584025 0.4334501977763309 -0.37898291996638606 1.1398029415185016
Ni 7.023349240966223 3.166261811842903 6.179231745766377 -1.141185423688325 -2.1571491245609624 1.4095371170586886
Ni 1.8469253975510576 4.984789416096751 9.866394040493915 2.857986852022175 -1.3106558319097426 -0.9658140766014398
Ni 3.396927080305697 1.3420859768002198 0.8811092605308983 1.382233801258045 1.2235643403068734 0.4022280065372557
Ni 5.362769389048766 0.43327550738913667 8.503836221660038 0.9057816459988915 -0.6929143588490776 -0.3688283480308874
Ni 0.5076745930407636 3.6499917762524343 2.1932126223443826 0.9719294454705584 -0.04454770470338779 1.5588230799124314
Ni 8.412850871337968 7.0343232097582336 1.5128975056525853 0.29843180058519575 -0.7063026072305255 0.10613925226293977
Ni 2.4862074536035097 6.591043054749983 2.1547373901992963 -2.5286431923494708 0.8658590987723411 0.8902771226053894
Ni 1.5113209766346902 0.6956270741549064 10.085807074961073 -0.021573355295401556 -0.43918452915694683 1.0606785272815087
Ni 4.934591110488967 2.8036969940454086 7.622245986174526 -0.22218599344757864 0.184176861193657 0.34638467431539055
Ni 1.8931985052533884 3.279023717868615 13.33496611806171 1.9496130198160746 1.413318952698624 0.12239813732396337
P 4.399041162463762 5.3321970729682535 4.489361256239414 -0.7308545855382768 -0.23178417865897502 -0.054614087800454326
Ni 8.54549676111948 8.684739931887625 9.066407379491665 0.42991878758430474 0.575196657719919 -0.09589597726837679
P 6.918188950602484 4.351146376753543 13.023122044184769 0.6768549913933698 -0.6388972812026739 1.2169722889116525
Ni 3.3746750780951973 6.242704775839863 0.11652401472241869 0.5334599401027651 -1.250682279569588 0.5417126670298607
P 3.4762971618962735 9.041969797602352 11.049120667964516 -0.4030093647879704 2.6655806609401895 0.5959727139250058
P 6.858583069733033 2.7175177076376227 8.597427313690236 0.5292183912175917 -0.4471184392920428 0.27013603896429605
P 3.3751910665522527 4.904986272765432 11.789109849714732 -0.5945951168511888 -0.21888932497417787 0.6268218380953786
Ni 8.754905147967522 3.3730073296893583 11.915646804727896 0.8021954991751087 0.018935660562238357 2.0086329499937086
Ni 8.34233552023364 0.9907899783416242 11.069119827715195 -0.6506420804434279 -0.17177720197772353 1.305401525489339
Ni 7.7983915457016995 2.2878928185821508 2.4484297272834072 -0.9008340721856292 -0.6833472839859328 0.4328768417713642
Ni 9.461846190451322 4.842874162247429 0.32535191455627505 -0.7189303232968651 1.026582099818432 -0.1686178304131354
Ni 5.864328597465469 5.426051687674733 11.65143399388489 -0.9862450907622821 0.2020254593393037 -1.952207520016128
Ni 1.6594465201278545 2.0453966719254515 3.884107717521784 0.14516268471398872 0.5853347745951855 -0.2599282451933588
Ni 1.5889219549439355 3.0378543986729145 8.447357599403524 1.3389755047900422 -0.9372169816900376 0.7329608332480022
Ni 5.917217414313612 1.9169984728350533 13.273134115563249 1.1788348586099826 -0.0446052974142006 -0.16411377189519477
Ni 0.822151129456644 1.6485278358133855 6.109969509486326 -1.1056193536582573 1.436922451050177 0.22900815857573462
Ni 8.800441129302632 1.8893193777458852 9.215262678088378 0.41638810008772165 1.485017506785191 -1.847330422295064
Ni 6.141414398904037 4.797817313051013 8.881558200383523 -0.649740651675081 -0.827283552491988 0.4357464500096753
Ni 1.5567556030943064 2.987527095950865 10.8610078618655 1.0797054620059727 0.02875958863119563 -0.5499677079498012
Ni 3.8468045163005797 2.040679063175234 12.060402759314897 -1.6617001164843317 -2.6512889269078665 1.3060820964961313
Ni 4.596554172560768 8.428726730472 6.526112357285316 -1.303788158255632 -0.7273614847833538 -0.056989272900850235
Ni 1.1439740515298462 7.029237037824405 9.559742100466092 -0.4474236292372875 1.7363595529714355 -0.7351172174693726
Ni 4.739049913424277 -0.26627676467122446 13.155147826409856 -0.7389011099918371 1.3964484021955306 -0.8162946575806523
Ni 6.083549979077147 7.17227640938374 2.9474025435591207 -0.5753540092333896 -1.1073080542145897 -1.1348168011578197
Ni 4.88027411130433 6.820197214159973 8.081556796853928 1.1519354631159773 0.17700862557999192 -0.006078602093912111
Ni 5.831194767258861 0.9852891728262336 10.87570708303586 -0.7512706873007836 0.8672755195038935 -0.6072356884333349
Ni 8.886316351083938 9.205132718986835 0.5828384472983829 -0.1305487914555558 -0.055590335670794584 -0.4365283224810224
Ni 8.779608095349033 4.897264874068786 10.097000338847332 -1.839327606595245 -0.28943165396911447 -1.6293438116408132
Ni 2.3227036112741866 9.127365887244967 5.5279649363908625 1.0917292259397262 0.3523267508314384 -0.35015262599825503
Ni 0.33663824064639547 8.197287479323624 11.48311855919353 0.27419863906944386 -0.0516676035776207 1.3245253908029835
Ni 0.9053671678681995 5.734723353948745 11.676787455285476 0.10291508889868728 0.2913538106924917 2.4982031306920587
Ni 1.7584610194048849 3.6723727755771978 6.227740189177308 1.2735378440115228 1.2389462220795824 -0.03091391597003708
P 9.544588625171937 5.559794052927487 3.2953068393205385 -1.2314342299732532 0.469952663577739 -0.37663318878728685
Ni 3.1875924060943754 8.493575422628313 9.002228550921565 1.8777684270699468 -2.10818529306775 0.3308683238473463
P 6.729843949697795 8.422083379087416 1.3653773271885017 -0.22119946116459321 1.0646814777933147 -1.2402518282648836
Ni 2.1337136247981796 9.231402059898693 2.721488975941029 0.6069510673133804 -1.8054296682962196 -0.2701751197323476
P 5.7690273722633165 2.251395849325095 3.846118988779064 -0.2641690227475838 -1.294820921760015 2.484562914200805
P 1.0598310767115098 6.899327729681203 0.3301791708536169 0.245510527106132 0.6641997645232045 -0.9364297099020518
P 8.75344010931267 1.4043639407508477 4.207063971384589 0.27564771281114464 1.9767769818253762 1.969402543738176
Ni 6.960536860399359 9.135916553104735 12.552537807126672 0.8998827640159535 -2.0672895832946527 1.0572332490453857
