# total energy = -340858.7113252473 ev
CRYSTAL
PRIMVEC
9.46103509151226 0.00000000000000 0.00000000000000

0.00000000000000 9.46103509151226 0.00000000000000

0.00000000000000 0.00000000000000 13.84718119251347

PRIMCOORD
 96 1
Ni 3.2949000322125253 0.2576826401462895 0.19521237246497072 2.770558803015493 -1.4571747735413099 -1.7506852255654881
Ni 2.791923031085452 4.829044693739516 9.960706267024017 0.8335974105251579 -0.6516242418510391 -2.5031766726472506
Ni 4.132248930595829 3.8670939650448384 4.8480916493038935 1.943776872750272 -0.49833532848549006 0.9597192765576117
Ni 0.9894918014385206 0.39708909794978436 9.477218051793558 2.0461170629820953 -0.23563543408426516 0.46484850958195423
Ni 7.082672680223912 6.989954537699124 10.91781010751304 0.177632632317236 -0.4171352626663912 0.40511766938022487
Ni 9.372205294349286 6.192124382308273 4.904325202745178 -0.23102056102007312 1.026708340983651 -0.19822973974229732
Ni 9.253384156393283 7.848288011604875 1.1038615224498372 -1.191495999017419 0.48037668712454046 -0.7302233797121811
Ni 2.044927016489059 7.014136943035181 3.5648876944167474 0.4187735696007626 1.024568668932829 -0.6432781838791889
Ni 0.4763385111176044 9.223790039064964 3.072702895858861 -0.07027673403837574 0.25430678524152334 0.660653699043159
Ni 8.55347571275055 8.667310885287106 9.285517615502588 -1.4499301761637546 -1.419951113303161 -0.6239879681910092
Ni 9.286015265941037 2.379081309941405 9.472496049249262 -0.10975859418308193 0.9727681393217699 -0.14544679161331078
Ni 2.786369403568916 0.06324039592637162 2.38268407205094 -0.5137398359660185 -0.8599537890314995 1.5754426907469836
Ni 8.005360113869827 2.9841523392302123 2.06634585351578 0.5420265987258536 0.24484975359368152 -0.4365707456831836
Ni 2.594944283395035 8.776008715844993 7.813092015481766 -1.0125726729132174 -0.05700084286507603 0.19897818787254765
Ni 4.992862513924894 0.7029179988608081 2.6090024352294816 0.6487782877618117 0.23323659483478543 0.5580299161326454
Ni 4.852886501817319 3.573347751870387 13.460055480124673 -0.7332727080614662 -0.36726306042629653 0.4175273558984874
Ni 6.864434986997454 1.7520039133553889 7.998076063060661 -0.4373356488736662 -1.6767503259492347 0.7985936407564633
Ni 6.023216525318983 5.084322338801132 12.198549462795317 1.151810764612655 0.8285338799593214 -0.5192731070794219
Ni 6.950672320580458 6.916177387147257 4.905128444612561 0.428121843584882 -0.41897797230208483 0.3489112973919862
Ni 1.9536753343817548 7.294221421739653 13.470274343975799 -1.0464389866433592 2.4957191879279406 1.2637913061477202
Ni 0.10136174405648686 3.44935142779591 0.11749470085580001 1.2950484643897888 -1.1114845541897824 -0.5111841594237003
Ni 5.690519231249168 1.225705461072846 10.720626055364173 -1.245172148384636 1.5994187419466066 -0.38691014523326267
Ni 7.310466018751395 6.467648642166118 8.082973714094532 0.1402513634553004 0.34564085417083057 -0.36968323983201495
Ni 7.727972030126535 5.380500037958122 3.0573608815814937 -0.7934516915442077 0.2524419641186426 0.645735644280746
P 2.851726233013941 3.1938940230702153 0.3705565715317725 0.2095744753311552 -0.13707373705826714 0.8323987622313663
P 4.429003752884861 6.211756029832654 10.855539467669198 0.06408680317757995 0.24638650195318212 1.074385849565272
P 8.345919527984346 4.8032160683218965 6.4492412525644625 -0.1413991039064984 1.2929234476269862 1.246497294953963
P 5.570922288427143 5.376327721544506 3.9696402306772542 0.2739502705040637 0.7381004684674127 -0.5037904380627904
P 7.517719450399151 3.9229897595383534 0.049684625047849526 -1.6152703642668824 -0.1982693347309811 -0.2685571245129504
P 1.0695510791981897 2.34939258226357 7.624091758565957 0.39310804651385844 0.39415551394176634 0.004727230272340246
P 0.4528439230225221 9.155575977064583 13.363955963708216 0.8280816229132513 -0.5312642180030269 -1.8352858324257038
P 3.029007105935316 5.649477261629522 7.12074672317927 0.5187110639283647 -0.11003447355228792 0.7149134888279882
Ni 8.84828156183957 5.4361025403681404 1.0169827306971202 0.767531115023704 0.7506549080936556 0.4240330182274891
Ni 0.9045809049557175 7.073845534614154 7.537976472333827 0.07512840570372223 -0.7676987509498198 0.6682726490409976
Ni -0.03312592167571847 7.89151548029832 11.34588125661853 0.10051367854604625 -0.17140773445344673 0.6691841051116733
Ni 7.194880554748809 9.34659427273555 12.138397148677118 0.1531927541073168 -0.2917713578458846 -0.3265437283300634
Ni 6.057654692542475 2.040082966593886 0.9293394873203215 1.3400702805161178 -0.5386772226376465 -1.4570840135997165
Ni 8.872823486503785 2.468535395407923 6.244483641936914 -0.8091657598453548 1.564620403320499 -0.1837171479484191
Ni 5.411825524682567 2.896155253146227 6.3955006818329005 0.26383863599135854 -1.699105039495351 2.492334330616108
Ni 8.629476206516022 1.2696425073876538 0.09602382813684547 -2.6650998646490294 -0.5271640797917244 1.2368736558212698
Ni 3.2156449424237343 3.253148484971516 2.9338849144293495 -0.2635588999674106 -1.592925163802463 -1.8253194652416114
Ni 1.6815381250365495 4.529631320629111 1.8164174776157473 -1.673087789495983 0.0395430523999448 0.7155927742831999
Ni 3.0136518462090174 3.244188884872437 7.274367439893911 0.21513628568964885 0.4200719766972121 0.0820978950430199
Ni 2.353271606593689 1.9891636764848648 12.400745971261493 1.1931571887699257 0.8020646300241994 -0.7465056618119724
Ni 8.929050417220603 3.683445815601097 4.250267772787943 3.309538901605539 0.6152873550932177 -1.752890203636607
Ni 2.084483603621318 6.207082278566609 11.502174715706971 0.8000928510098091 1.106482987210133 1.822553729571016
Ni 3.125878642803817 2.160540863596499 9.97971916286257 -3.464772854512601 -0.7089151051527081 0.48219394283893735
Ni 0.29229110599890945 4.696684814767905 9.32984256425041 -0.5209337826112964 0.30779730096049573 0.06589788824438973
Ni 7.4367329912142335 3.889280092006127 8.336210613917109 0.47231653582422534 1.5969540824561983 0.18435529575305024
Ni 6.009015511856767 0.2019760663518045 5.920542535714722 2.695379489469177 0.22400427760324004 -1.9540828826619703
Ni 4.123497473265684 7.121491306629953 8.682598025561756 -0.970431006548161 -0.7042230989936775 -0.15636420985676297
Ni 6.258247555584369 9.237413929395137 0.6501320465558538 -1.287298645241041 -1.047536333472596 -2.181151658123147
Ni 1.8897565822493598 4.953145089198459 13.446554583248869 -1.2877532162799563 -0.6696427899156467 -0.7390345502459079
Ni 7.724906654802247 0.0867434989529103 2.2449607323653185 1.1235067754616392 1.9795987675448876 1.150221051528032
Ni 1.4405182596468578 1.3145729623723699 0.5827590705626631 -0.8688063543261231 1.4952152732537989 2.0665827870356153
Ni 4.5609095021787995 3.5796204180432376 10.967756803229046 1.153267808774156 0.5909284666328791 1.1608970431846393
P 4.650212211086093 2.8222172650001838 8.927249982269332 3.4978436689246406 1.6596334637632901 -2.678273683026826
P 6.776882569556189 8.853267527259016 7.888890989202771 -0.39840554746737195 -0.7140002329850994 0.311748829409076
P 0.5536909867776468 2.309183183719657 2.563099385851751 0.3750560741081541 -0.22838775138291634 0.5425475042263301
P 7.789639055940471 8.821223001878256 4.391522916820963 0.7178170356280283 0.6605629391015656 -0.3993396292458671
P 3.549278878953748 7.710242050627407 1.251545439732407 0.013127024300261263 -0.4563494709720077 -0.05540907289792392
P 3.5452957832391627 0.1621006423416795 9.813871004576598 -0.2580443979070846 -2.5627149372221996 -0.44241023518309613
P 1.4694027993538148 3.4205425763685646 10.839877670410468 -0.9857133866285281 -0.9483184909198378 0.5743124553427529
P 2.6165438261893295 5.0614171731835285 4.374103259268245 -2.6877302004540358 1.2023640520801744 -0.3565621290690246
Ni 1.655804109968445 2.543722240167565 4.617411749012707 -0.2998052838939546 -0.789993300681962 -0.034882413699481855
Ni 9.001796314962755 5.494108145655842 12.537708643737012 -0.5334314008576748 0.1679956234481042 -1.3185655736751227
Ni 4.8702001957785805 7.617117083599704 4.09168947375871 -0.8248471751363535 -0.03685393560355589 -0.4011751397927091
Ni 0.9603612748228244 4.4729691823045235 6.022942155305389 2.231216435990022 -0.4501785662746053 1.1345622619448525
Ni 5.511762436875357 8.625559338046097 9.939423668900599 0.5443971558405593 -1.4503572363988442 -1.4572547348496259
Ni 6.995706846949642 3.9545139279967816 5.120770975951821 -2.332885311186434 0.3526550807051346 -0.51022385239296
Ni 4.463205394234566 8.149111078923056 12.072180311155002 0.2222538705710366 0.14138110618436942 0.07421283586798831
Ni 4.565573792409894 0.34273923656734573 7.5354976811765315 0.16830801248220045 0.49818954693624523 2.720111444998219
Ni 6.630283832982557 7.639899255762938 2.294035120658796 -0.5580060048732455 -0.8192938494182922 1.5384211192173118
Ni 2.1626128302508794 8.971379087593654 11.438145269465645 0.17683301923407613 0.22194893773610808 0.6984250042546617
Ni 9.192928143053141 0.6908277422962747 7.490536004776475 -0.7234107276657219 -1.2668910281189665 1.6526704021818959
Ni 0.2763795374174616 8.945436929756617 5.76451209339793 -0.7268719467414448 -1.4298115510370084 -0.9186245633998309
Ni 5.328492728829676 7.555440596750817 6.637272699501238 -0.3217625048913362 1.0408172695812075 0.3397244886863956
Ni 3.698772692222542 5.6031087293321775 2.4362732662232776 1.6505405003230864 0.975377809030475 -0.3375102546438961
Ni 7.740507901437285 1.7425428784038797 4.153143626286237 -0.8562007497469706 -1.8554147419650948 0.1488596739496017
Ni 5.534364849374513 5.381209615579484 6.599525062251707 -0.530302625420706 -1.6855149595157424 0.016851010119067752
Ni 5.46989735721493 5.193247234197855 9.250373655071712 0.821806845648133 -0.6709797635595154 -0.025361104472607934
Ni 5.7019292394006875 3.316773945020414 2.6194578249543947 -0.7017939207268946 1.4608373099945615 2.4465923484943026
Ni 3.83870139915536 6.025042505064624 13.246753608832417 2.3953842010516038 0.06224795019662828 0.1957931052763467
Ni 6.446881670447556 5.774022325731187 1.0401310449129775 -0.7999753515953384 -1.0135041835885514 -1.841218652970371
Ni 9.558767442558091 1.581544446634051 11.865981784904339 -0.03414502131282507 -0.3744392664597616 -1.1909933483493875
Ni 7.1156538480648726 2.4405118098815537 12.15902977369937 0.15718259199300028 1.4064286533366939 0.6298765657613024
Ni 2.9579641944844353 7.2421573464015 5.642130767989676 -0.13022483245723382 0.6418100839740946 1.1842552582946055
Ni 3.7998733117143666 1.0706864033923709 5.47657400958021 -1.5277168454259304 0.11534688690413682 -1.1049259271356584
P 5.577043578040769 1.8026015282760588 4.475768702546675 0.02559661752218172 0.8747085787431711 -0.9876841372016538
P 0.22948875599079266 6.554264417147183 2.701598530403396 -1.134707015052833 -0.9673631662561147 0.2543592357460136
P 5.218650113042657 1.158815943965677 12.91064088114511 -0.14878305507539538 -0.3575944269882809 -0.0814008689759953
P 2.0214447277394134 -0.14858555391344888 4.687173636331154 1.7259923508044983 0.1355909818651536 -0.5232153795566215
P 7.822951360004734 1.0192562173959678 10.23532415973351 -0.13440570330780077 -0.02558196223416239 0.7208658497566812
P 7.770584531548131 4.379475234913711 10.76345521448616 -0.30367170882789635 0.5235077139860598 -0.6054487717362412
P 1.1547287768666255 6.606896154582428 9.808151808948413 -1.8372385852767004 1.7711062124240016 -2.739761358018662
P 7.169752045917601 7.419882887965596 13.219432978202944 0.12209089049618974 -0.8653312512933291 0.1836652116645611
