# total energy = -381165.6626908102 ev
CRYSTAL
PRIMVEC
9.18601865866009 0.00000000000000 0.00000000000000

0.00000000000000 9.18601865866009 0.00000000000000

0.00000000000000 0.00000000000000 13.44466684394276

PRIMCOORD
 96 1
Ni 9.105530488207776 4.481040812582976 0.027205312037952695 -0.20921863465363322 0.6498980031885517 1.5020888604451808
Ni 4.373463351319989 4.313993068319682 0.8923114535192629 1.1325357184331268 1.4054716887400633 0.2885839612568385
Ni 7.365248491895615 5.141552278269413 4.35221333499861 -1.36971072909037 2.204661568319629 1.2174178610895035
Ni 2.4615222295171377 4.142572779306907 13.238774865848512 -0.9963394988838066 0.29552362579946523 0.4129369083143275
Ni 0.18918972296949316 3.619851589339437 7.595752332534844 1.2474722572727224 0.8502419610603744 0.04564865107705041
Ni 0.29811661033268844 0.3923761821465189 10.268632903180983 -0.5151027777518161 -0.03510250013008793 1.5420764565817118
Ni 0.6829473969808368 5.024072289191422 5.772440671879948 -0.5808978218697544 -0.36462922234787526 -1.8833690610861757
Ni 5.568545970685727 6.764060332915384 1.3838598901099124 -2.399441401840113 -0.43658334408867394 -1.6448408788351478
Ni 4.242360496982583 7.4102232378902855 6.205143474720217 0.7399596331633386 0.2323148543514644 -0.27476273910303
Ni 5.772493950786559 1.4073255740648525 0.29392319294164126 0.5005721882358088 -0.31430502017202644 1.9170032042008531
Ni 7.130876418916035 2.7742694113256663 2.3138808676861036 -0.5300023205714678 0.12152036270470037 -0.28181476085380497
Ni 5.772016277830733 2.6263653293689284 4.549782543935493 1.6844173555761892 -0.6984967380328615 -1.157466934457168
Ni 0.8723079798922215 6.101371780872587 3.2309550709557415 1.346027269430501 0.03127284197135259 0.20013749828797145
Ni 5.28987891707169 3.565213152007676 6.559370122529345 1.181542487349133 -2.919679186825649 -0.6432699563490728
Ni 7.279983869280718 8.383638047697731 0.8370704133816911 0.07151703420338007 -0.3503943096954159 0.7182494951797564
Ni 4.517215352968395 0.45786881879758173 10.026131203933982 0.35605742151846426 -0.6999789790053428 -0.7929516119793375
Ni 0.5712518436775283 6.823723522301696 0.3893264240439391 0.41688663699069495 -0.6749444046342182 1.6363485250934204
Ni 8.214486705225129 0.6617662757973173 12.579098409232932 0.06349622078143259 0.5233670746431374 0.13079638868998766
Ni 8.425563035589823 4.950960768894938 2.4236969616286053 -0.7327060369247187 -0.653193900331004 -2.186136255821932
Ni 3.78013842407412 2.1226040813403872 7.786962979548216 1.0696673610436804 -2.535185364343363 -2.106069789386644
Ni 6.12311508638104 8.309571181489597 8.347255903296897 -0.14791813597193879 -0.6947149023929261 -1.597647766089113
Ni 7.352369694125082 3.2024940302050697 9.870012065738878 0.6146792891955737 0.16176712603988913 -0.7287318827683192
Ni 8.692995588723573 7.970891869790759 2.7163873909034812 0.9368166609278255 -1.6675984842466376 1.5222727915922234
Ni 1.8029398276907669 0.8449602845693592 8.67511684114812 0.5600716291530224 1.4333661011574863 -0.38939974442433584
P 8.668248455204447 2.313011870347236 0.7345250529879602 -0.5174016010883219 -0.21065202466605012 0.41962717585030956
Ni 7.277834340979503 8.788750644329873 10.186015691063565 0.5206897849212904 2.952010294858187 1.3413882279965932
P 2.3965678935432173 8.447150178785794 10.137628339240255 0.6222365327175413 1.5879616491496007 0.12185332056408692
Ni 1.545235268022775 0.2818986948805662 4.641852168967229 -0.3156314522929338 -0.8526479993987057 1.0720173493330956
P 5.3587832409495535 1.343317397984202 2.3999538599185515 1.458920809698139 0.6036955364905604 1.6155197612735273
P 6.725084056923679 6.885361705639981 2.9698195334223474 1.8847656843233864 -0.9440962253083741 2.032559378902319
P 2.538188738927171 6.280976812263069 7.268522474146415 0.2990478369026398 -0.06418296243581205 -0.6421846937046941
Ni 0.8799856540552823 3.828539554925002 11.608273138007164 0.15663906078470444 -0.5068284535581657 -2.375442467822354
Ni 4.843006680878319 5.488076449665851 12.444867715636704 -0.8888326768493788 0.6378158752130371 -0.416564991985218
Ni 0.37073759724761246 6.278955888219191 7.679029100772035 0.8369035920802554 -1.7731378981420496 -0.3240692986476419
Ni 3.966109366202818 2.9346481062441616 2.525593789124619 0.913380284281756 -0.2841619209297429 -0.20006936405419737
Ni 5.5198233291915 4.842832146529076 10.197187726618859 -0.8294965009829068 -0.08278489380771549 0.17264366374307685
Ni 4.541539929641983 5.135011833181952 5.150396576766894 0.1640518083090078 0.7943220099643029 -0.8397148362768054
Ni 4.093739905592106 7.273608772524121 11.158212434833656 -0.5488299948009323 1.0202232474799398 -0.4739183330937064
Ni 2.2359779202019525 1.4677512029768098 2.8033881709924366 0.27895389436624213 -2.100206131517015 -0.2519552542902112
Ni 7.87194926580616 2.9639974349723017 12.096932571816906 1.5392222749623683 -0.06114571827138502 -0.7350004893858504
Ni 6.917163701275918 5.968817535630943 13.055645159205138 1.619249660629605 2.324745455688119 0.015087490460741758
Ni 3.472746690981869 2.4471644827872217 4.530005964962468 0.3467528562880867 -2.479700186791865 2.923754385336287
Ni 1.4955756526536597 8.221440521139746 12.090452754450762 0.3693469395385187 2.54017047626278 0.9141037927113418
Ni 0.7181004521222595 4.845385859639067 9.59982830009994 -1.6408533549423094 -1.344531144500949 -0.07730613008133137
Ni 5.666046369784468 0.6802494633822594 6.45928845226547 -0.11959640620911015 0.5084976137304726 0.2893434651306823
Ni 8.89711810317365 1.3683952281650535 3.1306042503532945 0.023303964833263094 -0.3317160165596223 -0.7314891337984821
Ni 8.766593967994265 6.929730174421488 9.663152117811185 1.1177045669575654 2.231282256230951 2.3139357666671247
Ni 2.479076710643734 6.507173328883324 4.931167655088829 -1.2360426752795424 1.0552499000667697 1.9996248329578274
Ni 1.340047175440472 3.153854062876275 1.8394854832187892 -1.2893406153717342 2.118424711407571 -0.7085739197632055
Ni 4.136895819947286 0.5118853626849308 12.26297444706745 -1.4132135374690113 -0.346097739202591 1.1234113875343557
Ni 8.956772106541582 7.185027997273589 5.1284814927147115 1.092039043870661 0.2645541740011444 -0.9619342819310595
Ni 0.3039001275055325 0.020661192543139924 1.1553604386814744 2.0356696423965266 1.6756357527288173 -1.7274069717638378
Ni 2.023101130234531 6.121342184833456 11.718869124910235 -0.31925567930908244 -2.0318289284941975 0.8569759373500984
Ni 5.850345456567775 8.232895486061183 12.568759545544818 0.03494232040313982 -0.33843019535500424 -0.714295395628015
Ni 1.4020436134956256 8.334070292512429 7.015198726644448 -0.4283023350268043 0.181267657966662 -1.078725871701523
Ni 3.9974245028645483 4.550624901821054 7.848175850235449 -0.23243543908972872 3.155222318306424 0.6416450191511401
P 8.192936306102682 5.62450719466439 11.350202974807598 0.737747198893052 -1.2702185498303027 -0.5366933594383984
Ni 3.5343297582098656 8.488707725942634 8.10029071771844 -0.33495869186663607 1.6294276296038712 -0.03666187419740783
P 8.2042534807484 7.655251092192132 7.010425671493543 -1.3878498618932422 0.7811106534803515 0.4219486248946346
Ni 3.361972495322201 6.297144204614095 2.9216204949758526 2.687282057173024 0.6613090732389708 -0.974577938836999
P 8.05683625776587 3.213691786611831 4.396015945047831 0.239266088858317 -1.3366743674606916 -0.2273395126240601
P 6.471944948391176 1.2628846210378506 8.771206267823496 -1.9587178103308203 -0.8733764901953088 1.6025935401301625
P 0.18734425187669712 2.4487444779487992 9.328958338887919 0.923471607079487 -0.6148656941747669 0.8587096322117534
Ni 3.1531008093690107 7.000242051516073 0.3797757207329385 0.26511261760777566 0.18913626208146136 -0.1869942760377941
Ni 7.293597548521752 5.695735581192714 8.656213852523154 -1.6494626938778756 -1.1203420045804124 -1.6049800380844683
Ni 7.408542196526515 4.270534015357921 6.570408042216272 1.0965338464172212 4.950782550007732 -2.403936975717621
Ni 3.320424134183742 2.119912577954677 0.5910045390027613 0.05028589273874566 -1.7008266501721483 -1.1541463547243673
Ni 6.828316531492329 8.98952944808917 3.3046048919293667 -1.7273195542563542 1.6466560776670156 0.5030882697894433
Ni 8.213724265699485 0.46978032883256726 5.238270947203908 -0.15789967266468288 -0.13588203074301114 0.5773013627677477
Ni 7.39863048269313 2.509179292879138 7.450442382168976 -0.3708847163392838 -3.6875610003205526 0.6940399878130886
Ni 4.8549668768107255 3.1396524784588395 12.303146742652396 -1.4285311416626882 -0.012102953911121091 -0.8478032697118947
Ni 6.263817329926868 1.5323380982154797 11.630012769108264 -0.26360980781000404 -1.558882472395457 -3.3368900399249823
Ni 0.9881124392174694 2.6872410731815672 4.540559781480703 -0.19568923270863073 1.1285420238927015 0.060816102846108167
Ni 4.526970904489298 6.631019228699531 8.757398763594619 1.5017523030413684 -1.1061633990871853 0.572173297512563
Ni 2.526035636608758 3.737487740729909 6.25620671369799 -0.09289524276884002 -0.5386731088725885 0.6532242393483072
Ni 4.613898196431204 0.060700290861557135 4.369973582936946 -0.7832775792246832 0.2915132190884915 0.571113488789481
Ni 2.7961321350730755 4.351628185627723 3.9573027303807002 -2.629290054039272 1.4832177345722908 -1.3773723594006861
Ni 0.759566139095287 1.5666203188143586 6.535022580809804 0.6903203728696563 0.0435719710536798 0.7462233546848632
Ni 6.604646169926921 7.597342432316641 5.494593011105519 -0.8536373598951686 -0.35857221752051793 -0.2851471676611476
Ni 5.317740110822065 4.653416447507404 2.9478906703425927 1.5911297624649372 1.3751997772293993 0.4242335642740694
Ni 1.1990877233799695 1.9331424522268088 12.844886665076436 -0.8251901602980691 -1.0784366225958781 2.0827041180775097
Ni 6.418197554842397 6.850978438838909 10.569134203885445 -0.3728554669124095 -0.49249558187526143 0.791924970487036
Ni 2.4485240135076487 1.7220569358437336 11.080085348501003 0.9896636295255278 0.34344101830603435 -1.8235621162308722
Ni 2.2195992494281587 8.271247112802962 2.7919194270434278 -3.3175800267424607 -1.2406837735959793 0.3066935263733557
Ni 8.365872288148367 7.631891047448577 12.215299930270525 -0.21660027182968505 -0.04676425273873236 -1.0800206792535465
Ni 2.836578174005783 3.4473749082128164 9.125903239773745 -4.395452806415069 0.27447014756327565 4.057892158149211
Ni 4.0657868516579185 8.965287545581013 2.064858932592083 3.181075789034418 -0.8101754320567918 -1.3490637422639797
Ni 8.335337963049044 0.35858173912368524 7.897705942745388 0.5553307720339274 -0.18861587080161707 0.5986476896540077
P 2.130053942247593 5.359113937611279 1.5760911037654424 -1.2242986473697368 -0.33047751616683085 -0.7344356180213157
Ni 6.7036714480769515 3.9443385026392215 0.11878532228996828 -1.5657442325122972 -1.3221543194676455 2.540744089378063
P 3.065613170305849 1.0144671259533171 6.085298085909052 -0.01581794086886308 -1.332830311124253 0.5614183729889041
Ni 4.989275651563193 2.762933864643186 9.673249389215872 0.38533303055412993 -1.0806243742758164 0.17787842977945495
P 3.1444292080170975 4.177856275909344 11.219869908810542 0.6599947253029214 0.028091616029893556 -1.2508941384700778
P 2.554769502105353 9.19832764589531 0.6814225179295469 -1.9147876846067733 0.1533321078986585 -1.5488479709775906
P 5.690720015156543 5.774156620113567 6.837284841237957 1.1122885381483165 0.9048840738852868 0.6898609167347345
Ni 2.202329534871381 6.451074314628943 9.495201387941014 1.0407918156599107 0.5891837160276305 -1.775800275465561
