# total energy = -381174.6912379053 ev
CRYSTAL
PRIMVEC
9.21731234907019 0.00000000000000 0.00000000000000
0.00000000000000 9.21731234907019 0.00000000000000
0.00000000000000 0.00000000000000 13.49046832307813
PRIMCOORD
 96 1
Ni 4.910182105294148 4.985976064615271 8.412736827139312 -1.480942822495185 1.3505884064386222 -0.17209858987288426
Ni 5.386892281887751 2.230266978856342 11.66264501791406 -0.06472083721715305 0.3384985866990945 -1.6382516556534046
Ni 5.14922388335982 4.615182024049765 10.669664881921271 0.8192557970915052 -0.2772626227067483 -0.0015485754340424942
Ni 1.062958892962499 4.428006062486581 11.79099332696901 1.016179159317553 -0.5849545084376314 2.0355621702843845
Ni 5.694326517470477 0.2995313119876966 3.710189429864527 -0.7593850888778018 0.299080232802472 0.013938464457963092
Ni 2.137467078279293 3.0442201791202934 3.743497109714072 1.1890758196117004 -0.1871356867116648 -0.3550441497626014
Ni 7.693856516673932 8.063839433754062 0.565056271850943 0.5326109618389085 0.8939162620198734 1.9649069698606678
Ni 0.6320919409924569 4.907767169462684 8.048372783657888 -0.9893391563065735 -0.7639917344118777 -0.25950632716459177
Ni 8.749229561585686 1.3363443767840397 1.2764152554519126 -0.628518251961195 -0.9929613264401932 0.5839445791158782
Ni 2.6059554122711153 9.124023915704077 6.498007944869603 -1.1047559772166973 0.048856616491386826 -0.33049602810959205
Ni 1.2780264416478668 1.7168811164864102 5.557263239603887 0.21945162523555112 -2.294105619315075 0.4128934566709018
Ni 7.44753306186453 8.061756321166616 9.869991141924897 0.561746188641968 -0.6659576277545756 -0.18569175517628664
Ni 1.6208920258418544 0.5157473377898603 3.3321459731484584 -2.9021524907957956 0.8894440851811327 -1.8112701862373968
Ni 3.326684715590661 3.57900864072939 1.4592369586685927 -1.7404859164349833 0.777118758712139 -0.7017815794317204
Ni 7.539890531449556 3.706696068490003 12.148085832750272 0.34009241354877556 1.505574762111252 -2.1164966411469224
Ni 8.750566071874092 9.199633528778524 12.161954200887761 -1.122050245520771 -0.23018803781644873 -0.21883147515304893
Ni 5.927542954141166 0.6722314927438406 1.2003696635040753 2.934342702375095 0.21786833990883125 3.453935911798096
Ni 7.173917145234644 7.015932411832715 3.495461078273044 -0.019129264630283183 -0.5466448142241555 -0.6347485491416229
Ni 0.5195476356651003 8.297212564734426 9.703585471974776 0.09019069935348338 -0.1731059480914761 1.0395569148115453
Ni 1.7516764705466366 0.0973680005696975 11.827916036715887 1.4050798526182833 -0.04471379796760686 -0.7893260994116083
Ni 8.999940457065993 6.4807476057932645 1.9613795434537127 -1.9238515945812544 -0.5141702386352177 -0.6715371787248822
Ni 6.951162358062858 4.539858147657666 4.793460514017097 -1.5111717965830556 0.479967881721896 1.1293614344702032
Ni 8.473419924620346 7.310554583271411 7.862352673061367 0.8191578380610602 0.34705418957858936 -0.6958870683241565
Ni 1.5061549219102786 5.120419782316586 1.7257278928644249 1.5071585616586043 -1.4199133180866899 -1.0826506606772257
P 0.9799754300209841 7.464050485566763 12.799054829402424 -0.24363310757776105 -0.10015500965504688 0.7468851566385781
Ni 3.138098505240401 2.5134412483764152 12.539160725643917 -0.6157704653772235 1.2655998201113687 0.5156799904115248
P 3.258024956015926 1.05519791597741 4.477392421971268 1.7045745472503548 0.758829473484648 1.190412279034937
Ni 0.16784725759913205 5.795504954958982 10.163435340847327 -1.5577172484427622 0.7075274807765621 -0.209899976991374
P 5.4322967624442215 8.082615098978083 0.22056936241743383 0.18342892728403895 -2.3827773109208703 -0.3459275321733139
P 3.0426440187112074 5.170985957780004 3.8136740388989567 0.5004418333055317 0.0041340767730315905 0.12255857416122763
P 4.959301162721154 2.552273785238861 1.7923709045005174 1.650767271621912 -1.4453700675968977 -0.31243042885713285
Ni 3.2428071733527646 7.919947970910567 13.071966543370007 -1.2998446002268518 -0.12875210456644923 0.4683205272909548
Ni 6.834720051349523 3.1294065797095945 9.587096156968538 0.951047974035859 0.11822857932730606 -0.32127476662164023
Ni 0.8571722560660695 7.205928870970053 3.944316536993798 0.1496842267334261 1.7886447355283972 0.6086199703753712
Ni 6.967523087455414 8.32767578199775 5.289072633013696 -0.14961275006554237 0.016076079626256186 0.8065653461080303
Ni 5.40046938295549 6.955337800550086 9.751746850650296 -0.3130932592521124 0.39371611241150256 -0.06576419088000288
Ni 3.019757432186296 8.117862101342668 3.9321211110449013 1.7740239002914286 -0.8741514206881204 0.36419984811994055
Ni 6.511275344242925 5.831185171003257 0.76552728472445 -0.09831872777725649 1.1618552933328508 0.9996009432438979
Ni 6.584857148603928 6.206532563861678 6.535645918053584 -0.3682339089799981 -0.44648929034847623 0.14872469103363417
Ni 5.400607642640497 4.222957732308092 13.057302721178107 -1.5201256633422335 -0.8588803534616627 0.8510940246480245
Ni 5.7539809628950565 0.44951357482139004 9.795860907480028 2.3260050391268328 -0.5591892265480692 -0.2195848083793057
Ni 6.25331042395589 1.3233664010180004 7.457652749075848 -0.32012702617044225 0.10462204428746497 0.3576710458624872
Ni 1.7684704136188838 0.8913878411804977 0.5933690901467834 0.44213821246863205 -0.4537637125227024 -0.14816136233099644
Ni 4.821179737398639 9.13585894474072 6.068767848526483 0.21984783223270524 0.2908609302164733 -1.4376809264827561
Ni 6.776789243331371 2.764401011289736 2.877746301058903 0.3799470836518682 -0.8446112451371584 -0.3009975044298429
Ni 4.674320299983649 6.598931984537694 11.976163601368352 0.5114214722454871 -0.19850279089802586 0.21959046480626054
Ni 3.9529826540500697 5.925782447485404 0.8551499777400261 -0.25325571826918963 -0.20934024783316202 0.13662945043199695
Ni 7.041823842178458 1.8466240048974691 13.156808216478021 0.7219889076175308 -1.2096557006455813 0.5721002781827824
Ni 6.0702638183182644 8.227133339060279 7.731657636286223 1.320656137655564 -0.39203126850991193 0.9732329947733305
Ni 5.339330950245164 5.302222050789145 2.972679087710001 -0.687738471075093 -0.33491575444384253 -0.6704974246064582
Ni 8.152417805282216 0.9538443495545624 8.884552610883649 -0.19505931243411567 -0.21635678836031125 1.6213103998133753
Ni 0.12892162588211423 3.307678617558294 10.03199831042931 -0.9617062250806533 -0.5220969496814621 -1.179635243024091
Ni 1.973915088227728 6.798237929132204 8.36013731257505 -2.7261874759889695 -0.18126045887781042 0.9606515585638938
Ni 4.091592596926278 2.3231314006197277 6.398043427415464 -0.06292209344551744 -1.2125715887407955 -1.575785161688067
Ni 8.269422368047914 0.9987234433080042 4.060496150305619 0.5030754142736368 -1.3650125522837524 -0.8618288945670254
Ni 2.4186227563982565 6.6325383053068565 5.9967963086302 -0.41614358817708336 -0.5456919633925827 -1.2026358176843222
P 2.7904399186328193 4.8866963934675365 7.746159233781045 0.9224987016432564 0.03026316975991562 -1.3265707033677863
Ni 2.449629795089277 2.6803852093668312 7.921089995908729 -0.680156544962777 0.8275943988641877 0.22378110584884042
P 3.974283862853562 1.0619357712934432 10.470019740232875 -2.6409137543211294 0.2900569462579392 1.6099970316830852
Ni 9.136974239533115 3.0165774594311228 2.890656990444905 1.222537955924888 -0.5542665924354713 -0.8056099241732964
P 8.870566261148287 8.556855035866219 2.7104235085315658 -0.6167228019881636 0.40988783707535864 -0.8740318643911205
P 7.684510161967424 1.6868971994644457 10.95682379556326 0.000112100097832065 -0.46394528104139454 0.40075322176394207
P 7.714291298118044 4.748777749016367 2.9057116266797576 0.43439147864367766 1.771619918835626 -1.3101061300538597
Ni 0.7313983423459598 4.962186181481644 3.8854704498608963 -0.30254942229799503 -0.17698677120312098 0.4493247029147423
Ni 9.09081393936527 6.016619060535346 5.777117338584215 -0.5212618553746765 0.09039870159923141 1.003716250963852
Ni 3.6827494910467005 0.6303793643608303 1.9278819869700903 -0.5591902549893337 0.10876332014934817 1.651893414806555
Ni 2.5325671714691227 4.2277046481600165 9.865687578796228 0.538514214697221 0.7523320386857624 -0.4130022143346242
Ni 6.889286540365825 7.607840557974585 12.042077523598838 -0.9986321515727253 -0.6551829057365749 -0.8702394872282238
Ni 4.919934021743345 6.8786497619325795 4.655925309759015 0.0993952486708869 0.09090109515694668 1.0649527291768304
Ni 1.448666544884151 3.876313050057232 5.867463590617998 1.4125681905755287 2.1212328702803274 1.4363151564834813
Ni 5.907015999573716 3.5675607388107666 7.095568146934581 1.9589376396511102 0.1807830050207596 -1.1894735692707514
Ni 1.2708000687781402 0.8367595961715588 8.447204966611688 0.2562690511742167 -0.6325785380734976 -0.30109057836428144
Ni 2.9050387628793874 8.282879644055313 9.818227637589313 1.2874349137085892 1.2049894055181634 0.6679851997075656
Ni 8.651092837167345 3.0334820102513755 5.142269421203942 -0.32024761090870657 0.5716873590150799 0.5687470454398335
Ni 1.8430384703996074 7.539761489076882 1.5272561150361266 0.29218993344054195 0.8975811124659703 0.04414944082370461
Ni 4.163459981193188 4.69143684898758 5.826762704545483 -0.38016922696500327 0.901349578369467 0.0156886143798504
Ni 8.49237071877871 5.827396855634051 12.916934115108603 1.63189691707997 0.9938401295007206 -0.08532642928264661
Ni 4.8778109043777205 7.706631711568627 2.3478679017300403 0.41236123831651555 -0.38444908528727983 -0.6546550582575629
Ni 6.5572973847257625 2.0056502945931216 5.205283576974204 -1.055972637165407 -0.043913413553498565 0.8233891025335884
Ni 7.317264786650443 5.489527054725001 8.886387777769315 -0.39691919272983256 0.007491423281038711 0.2630714188080308
Ni 3.8886550312722363 7.451413550357075 7.713809232682984 2.5539297348304015 0.06070503118954061 -0.3128590317541192
Ni 2.0893987944583445 6.463843054973012 11.110898545073177 0.6985689860316937 1.6652793491951579 0.48037822978643724
Ni 8.101105027519758 3.9710301515997184 0.942748548967092 0.4575905424679603 -0.5125712695792141 -0.4370384293482215
Ni 0.2532567171469122 2.2614767984187067 12.342496462764284 0.22351602511291185 -0.8135206943799409 -0.12420305174318609
Ni 9.084970163345618 2.572597958934967 7.464424708447516 0.15553142954282245 0.272745194452369 0.2884674902836322
Ni 4.722121281746917 3.120696219554121 3.9170517271103145 -1.0953449683154426 -0.6568739202857526 0.7643488606409804
Ni 3.9080113871732896 0.6915565097829588 8.30892776871073 -0.5872795570263821 -1.4651464788928767 -1.079991625787824
Ni 4.768475145473771 2.622177881978665 8.944962875919602 -1.439700013795314 1.2479779932645474 0.8503640884605356
P 0.6945825534221568 8.181738075816144 6.297688095918371 -0.2555488851787405 -1.3218871818491877 -0.046289627095158985
Ni 8.31031958287314 0.35278156880272704 6.65430867530814 0.9358260148797819 0.4109813272498535 -0.6222108216859285
P 3.3407595515244273 4.912532519939276 11.87989522616008 0.14261857813589632 -1.4714022299946012 0.8429783375194255
Ni 4.406271640003398 0.6662208833709471 13.229818547474327 -1.806692594169043 1.3014733940795262 -2.8418511228025767
P 7.241443175392318 5.580962793076643 11.16673517972908 -0.6924693008918591 0.8325337451473339 -1.3711986264898062
P 1.1466152197043837 2.950931760989551 0.6343437303956128 0.1418937841547298 1.3675504882142575 1.3736661141936923
P 7.945922357067313 4.360784203635923 7.041579583401611 -0.19984799207201068 0.749723911638954 -0.8365204977092238
Ni 2.043487361723513 2.0558569948755196 10.567420923126976 0.03363877110036787 -0.5884003008943867 -1.102375392799663
