# total energy = -340868.00202640635 ev
CRYSTAL
PRIMVEC
9.28527763178930 0.00000000000000 0.00000000000000

0.00000000000000 9.28527763178930 0.00000000000000

0.00000000000000 0.00000000000000 13.58994238436933

PRIMCOORD
 96 1
Ni 6.887280479766707 8.875787704253657 2.4707056253257917 1.3309891441504562 -0.0264705354867028 -0.8749083534588029
Ni 4.973909722733767 0.4758890546160299 1.8474982111778995 -3.530741448093926 0.6637639625373665 1.5111931367392941
Ni 3.0085414103693338 8.929205907079028 13.079544921472728 -1.4019976141485337 -0.7897076511207433 1.0612886500616818
Ni 1.6899762599400052 6.33661708352844 2.2935610966446744 -0.10542782801821197 1.089519362772601 -0.8496300385079883
Ni 2.289833057632961 3.30714665713818 12.300637327579091 -0.8997151280898376 0.8420044036419305 -0.5608257337102276
Ni 7.16822512827832 8.355672871772642 12.349303325258276 -0.2638687178983456 0.22174942013079227 -0.13305613125844182
Ni 0.28943324941948007 7.453608139548586 11.617266884857111 0.4310837544266834 -0.4562078031878208 -0.8700646522132565
Ni 7.138103687297004 3.732913782525744 13.682897626233952 -1.8533357479488788 -1.0239796291985785 -2.9647557674493137
Ni 7.6030175436269944 4.103312796763004 5.955045094589326 -0.18235986258957626 0.6044858936023396 -0.36058282019264354
Ni 6.326449704405586 5.65174428286849 4.262159757134078 0.9030035690331222 -1.4648446313817416 -0.6705046236953098
Ni 0.876832918499448 2.6666574840647557 0.5562837748529372 -2.340105225973641 -0.1499685907430643 -0.3537894514198939
Ni 2.4931992106455323 7.39729293006903 9.697415932490983 -0.3203877360309966 -0.40148752882680533 -0.3435993982607695
Ni 3.9997448088759517 4.485671248726508 10.617509888498462 0.27014760892852185 -1.4667271931164354 -0.29075654342812507
Ni 5.2416321357468005 0.32541370065332687 6.086215427607437 -0.08524878196717577 1.0010636438323532 0.4065821697408933
Ni 8.316943978328416 4.696939173093918 1.511051743516558 1.429986643162292 1.5516553585193986 1.9404187549113163
Ni 4.65784815381792 1.8952458948888182 3.8677248729448346 -0.13757355951282116 -0.586993393244531 0.020851646638028604
Ni 8.911981716875472 5.878258633281314 3.583885074834585 -0.7181335384271825 0.8435426946633279 0.8722120375735624
Ni 9.005363755084193 0.4189090192504495 8.387807360967505 -1.428424955102127 0.10870315633537407 -0.5760430648806144
Ni 6.86805995484953 2.459307946902683 2.1305905444302584 0.6466864382297896 0.39903186819746117 1.4777698240838422
Ni 2.5890975591211887 2.0878875521142684 10.228348113536496 2.0407737963923114 0.5591861412242757 -1.3717048767022635
Ni 2.8860128853417613 6.081114096018307 11.907942504437905 -1.4845287400742304 -0.06850447262930137 0.9118044551542039
Ni 0.028029467906996987 2.091620233764851 10.304397323792129 0.788301514801836 0.10354089540814425 0.5830228386325571
Ni 1.3879447456859229 4.0997658206671765 10.00628791085448 -0.47053578977471866 1.396965451041265 0.07530066961552838
Ni 6.962082677222157 1.3366157303515473 4.517949659726307 -0.6162188657685517 -0.45656467230660724 0.5534471818579694
P 0.10683826270629367 6.0720980913349365 9.763218838762992 0.9889833156290515 0.21796372783611492 -0.06578013171960284
P 4.8706574342898 8.925148240707626 12.33105218333692 3.051103438907623 0.03176315134420982 -0.36928703283486075
P 6.279503340163436 0.108179985339401 8.069218339451437 -0.25232523603512025 3.170990122663642 0.953649673324764
P 5.937396567193151 5.225958586925451 11.814484326951733 -1.038656771594779 -1.6431629769120928 0.7999696951683836
P 3.262243053998339 1.7077297109746155 5.668909047294527 0.6152462174426372 0.1723937525157999 -0.4659836516276619
P 6.462330458820067 3.3371938158975936 4.221498597392623 -0.892197993777186 1.8886009989090764 -0.11355251400787542
P 3.918034364783603 5.957889175160403 8.483467077805303 -0.12940053678372554 -0.8973741386614867 1.0394859523642934
P 5.353501161931417 8.702403713056334 4.139101971275453 0.24060743337755983 0.8999187594602115 -1.2729575460280205
Ni 8.694167671702935 6.983828797684008 0.19921749091933671 -0.6508156299068146 0.6428498380925187 0.11095724247687341
Ni 1.5310680167358621 0.7100572594680952 1.7775642848403603 -0.001366541330223453 -0.18008006541646407 0.4993704546182238
Ni 8.82329802920206 3.4298516024427697 3.9031537786810575 -0.540683711544714 0.671297037689618 -2.220997586475491
Ni 5.759611354348129 7.231476440227989 5.831444119983041 -1.3025748546738212 0.15081036991806931 0.3889793690574656
Ni 2.8460954763471014 3.8108358333010837 5.985784935067977 -0.5188198215920872 -0.7198512924492376 0.30512283945212615
Ni 5.465444470337935 7.708303307895533 0.7328869718419426 -0.193694313765789 -0.1131640203202051 -0.8269662783618854
Ni 8.784476282980457 0.9233094476880664 3.290899278152635 1.9795509450260875 0.15331822394158756 -0.34811502674293593
Ni 0.8004420100230658 5.300992916324345 13.325115447386771 0.4890379623439642 -2.2994126333502853 -0.33171935899373195
Ni 3.5416556316832213 8.048720160317544 5.190161984190811 0.07380968689229869 -0.02151781946711778 0.36956702596912483
Ni 6.070946716895453 5.661828094491705 8.784634132701997 0.12595525854760245 -0.1641309982863754 0.6489886040004049
Ni 6.276522766009613 1.035512743871242 0.21067830923106243 0.19549974240564397 -0.13197755348228238 -0.9405236774657675
Ni 4.721034468823423 6.711287325525073 10.79975110612984 0.9514223266561421 1.607085514463245 -0.4803676882634759
Ni 7.4793562147154145 6.181868644750817 10.821045962093635 0.9964685682625032 0.3096523518913635 1.4389245690818704
Ni 7.2850710633303795 7.838027923169874 7.369010902607567 2.2366928857235604 -1.7897623940726077 -0.11379522614630079
Ni 0.4619639235927009 2.5634609072872143 5.656949609568282 1.2709960514262755 0.4820895560505891 2.2132161427578594
Ni 4.926359815438664 7.876208985227572 8.363535644960985 -1.9367294789851874 -0.5172295942868318 -0.648846679105902
Ni 8.315124063891814 5.685849107999308 7.874148582097561 0.004857070981985184 -0.6873540911524807 0.05176710526996246
Ni 7.83925357983126 1.7264024045052648 12.347237350961622 1.5992714177354652 -0.7579596692851849 -0.10805523833873004
Ni 2.0329558490176396 2.1513709960073806 3.7949505801473125 0.08246530568476766 0.6409500499666446 -0.19022615271153043
Ni 8.606068956527002 2.8268192397634975 8.179133743200028 3.2082490070151004 1.8847566854623217 -0.18368346649700623
Ni 3.9662435267980887 1.7828847489841007 12.793191598678865 0.8805938338793544 -0.5195255894098602 -0.03922115028415181
Ni 5.167712039676438 5.122910574591713 6.510057714919962 -0.7939196323195616 1.4363555228031133 0.40062646637809063
Ni 1.8998049662580618 4.866674050140298 4.071858918426319 -0.3328534725981751 -1.0820497938684333 0.7362875836283901
Ni 1.6978780312948447 0.27705318861171546 11.156472906259369 -0.1291753081467969 -0.9232240098450553 -0.7123804379934893
P 1.537799843095743 3.6012485442042093 7.885156278855685 -0.4985692988731672 0.26567800319294244 -0.6329577757897873
P 8.720222161035108 0.1775707229292807 11.056356256107446 -0.5743710764948302 -1.3961103021298213 0.2340179530855002
P 1.9304835239036437 8.341345688223267 3.6622723180245873 -1.010028566335125 0.4999039585241907 -1.5432555644914776
P 4.989128292945968 2.5042858322644257 9.744885986397543 -1.8713818068173123 -1.33649978955604 -0.4138586487976485
P 6.576632227771976 3.705132231534346 7.847023500242223 -0.5191921173298413 1.5772923423612124 0.6939044906764888
P 8.390139822735232 1.2368825621701929 1.1257136459270047 0.9483411166276569 -0.6813757620818588 -0.5926850443126697
P -0.15074369848932453 3.425301816351264 12.078224284343039 0.7931876392495437 1.2667884411028312 0.06723177656446486
P 1.0951427975031809 4.339437409634416 2.2240756492218696 -1.2377018081495201 -1.9979605578815265 -1.0052740823692752
Ni 6.71936551715693 7.993509898888782 9.983443342036251 -0.15770195483158003 2.3995586441442676 -1.2756181235793191
Ni 6.218369071537978 3.014149718122945 11.26623881703638 -0.36755565196605083 0.9641004363444429 1.7533409180207804
Ni 5.083782414204764 2.9638049422287724 6.180162010702616 0.7368624822952535 -2.2879676247381373 -0.6666677664477229
Ni 3.646551414286774 6.022626131548114 1.044315187166645 -0.36126467675101653 -0.7787686356107362 -1.2526121496024492
Ni 3.659801505618567 1.0192913636633631 7.880196083488169 0.30545913974562233 0.6028180189816135 0.3525941455602121
Ni 0.6119128023076725 9.338296673649564 13.18614455254116 -1.3750995042061092 0.03944072249412563 1.3375454572117351
Ni 9.29187028496073 7.998189678868616 2.2702810483005456 -0.35308805447749514 0.6804565927016991 0.6080867235797205
Ni 7.440311621828104 8.211778922670469 4.577894484273556 2.0231846225556382 -0.11876851099117611 0.6877798658359897
Ni 5.721662424233875 5.198390597322021 1.6738458754539565 1.3839122174017326 -0.1700154820916104 -0.381266316683924
Ni 4.49846636144915 4.081492394079252 13.17936351420927 1.4478403835142615 1.0699512108326863 -0.809857900816373
Ni 4.099923670388719 9.20409655450562 10.290889101739225 0.5114754654118739 0.7970964873856466 0.5266362323127124
Ni 3.0921089100092356 8.153950212919657 1.8423337397001536 0.06816868655643743 1.165706805868457 -0.46721469582128566
Ni 0.6916686954362214 7.548382969417974 7.797935950953745 -1.0492492023986446 -0.363253167935955 0.8359417423876184
Ni 2.1386408802289023 5.802054358887461 7.129990211609744 3.7128678545164573 0.20161562549539472 3.860404181668945
Ni 7.116320425724203 1.228070833597052 9.749547195821902 -0.9508703108074139 0.40359249098495004 -0.005978843291254219
Ni 4.65210985217598 6.897104303613265 3.044894201240465 0.00031341747536075057 0.09594662800065411 1.0598861132872004
Ni 2.8359838088906733 3.603792710304357 1.0690186685879737 0.7527801819667745 -0.0763288537697266 1.4090588918706894
Ni 3.8731400469215003 3.6742122566675817 8.294621242119051 -0.3725741882265648 0.12167899976975174 -0.25686220467352533
Ni 4.273753354917454 4.209536374083057 3.214292951232737 -0.27321699188246495 0.12283831018517553 0.3839785734087645
Ni 1.419180419995771 7.13209611260067 5.480551617217282 -1.081249923674957 0.9215008565063614 -1.7292738497692477
Ni 0.5748812576339106 5.022044602526352 6.063179582067811 -2.994068143260185 -2.352302796481097 -1.7503743791932886
Ni 7.860813994738355 4.092616156809096 9.994247691211918 0.5301383319286999 -0.17147612579753696 -0.1386325969049548
Ni 7.165030992736528 1.8724969644312894 6.958729763431049 -1.3347984905942172 -2.9391735481048347 -1.3279269602853647
Ni 1.5059699110106781 0.35139669334692003 5.45346739058399 0.8526798810779057 -0.6535955066447969 -0.23743932006222337
P 7.267976867015151 6.844122508841567 1.8110497819460694 0.32938274044075533 -1.0098727574835513 0.24897663127786152
P 4.936945032059717 2.7025636530767008 1.3253016194280784 -1.3957796582632802 0.20936673019572333 -0.7446966336276917
P 8.450837683307014 6.6819365625959914 5.780686149229537 0.0311784824853334 -0.7323489106956161 0.17958024296191005
P 1.7303022211551267 0.3051318684907226 8.872370722046158 -0.37207333733074627 1.6077874256262763 3.3929169489125632
P 1.9071589062263732 7.1125134618517185 -0.03981434241177075 -0.6410166415385218 0.6860903939487087 0.574812534907623
P 3.4222005335868495 5.823651914905507 5.186275166929783 1.4798135939867483 0.37022831370220755 -0.15450067428546296
P 2.5370350068455294 8.518313796627368 7.335483621752037 1.9522247464073088 -2.424672665603076 -2.8582269930574387
P 8.725524054623374 0.7525262627850934 5.733270878461631 -1.348926445355167 -0.9857223854895927 0.32036382477159664
