# total energy = -381163.55610234424 ev
CRYSTAL
PRIMVEC
9.26740326669614 0.00000000000000 0.00000000000000

0.00000000000000 9.26740326669614 0.00000000000000

0.00000000000000 0.00000000000000 13.56378144429329

PRIMCOORD
 96 1
Ni 3.4622647621798883 4.008902539343404 0.5718302859952744 -2.871397726111442 0.0489445482195028 2.905865677981325
Ni 2.408329334394506 4.679973739139361 5.008914654927318 0.9654790618595244 -1.1068010326711843 -1.4394133357928307
Ni 1.1164347948988989 3.0486883600187253 2.1383569051046654 -1.7009109823558384 1.8461662267836334 -0.4795565052160902
Ni 0.03956995814076084 5.334131928113524 3.1941615681134756 0.6296510800140576 -1.2204126820517691 -1.107870354475963
Ni 4.7507674321079465 4.034786396453138 5.4653222144118105 -0.22354122192389245 -0.1082976933668393 0.14555632060798157
Ni 5.320749797907131 2.3157201743166045 9.59558881245112 -0.8971399111634936 1.700261778807614 0.20237692914145147
Ni 6.830261499110861 0.6414729674876603 2.682549941306653 -1.3082513362333081 -0.38761385616850663 -0.3930247427714328
Ni 8.237887369643477 6.056479669759879 0.2720770565542946 -0.7690925459735528 -0.43441538990307765 0.9364302241226842
Ni 3.7550498311622897 5.271030179792657 9.084722284860774 1.8943276169802086 0.6581712989409375 -1.5622665583763415
Ni 6.502630994133973 4.854812567722337 3.748540407161617 -0.21727955728489676 0.3588876918784077 -0.21507277944156505
Ni 1.4085896804643785 7.916280676740104 11.611641017436092 -0.8326062502564822 0.1937321089822599 -0.5248963668034702
Ni 2.7616490810141383 6.371367495350484 13.330077056155705 1.2589774296988445 -0.17877677322400823 -0.7719068754938965
Ni 0.2802981699241642 2.8684929723919153 10.38380740249152 -0.782617062822549 0.4862290321402593 -1.2355145706902142
Ni 7.931673833438732 5.366308351989285 10.857128899538125 0.35403010667579027 -0.3638285808234509 1.817482999916328
Ni 8.593755652140366 2.03776295043824 5.721962557472484 0.6772177740494273 0.5983101038089308 1.2380753894388548
Ni 8.866689943489737 8.005321886589847 6.546057118742102 0.907289855113302 0.8586998620197405 1.6338710100872054
Ni 7.132999759119348 2.625501660749508 7.524493792959323 -1.360160880618406 -3.554901847390213 -0.7886409004191256
Ni 6.924353443699166 0.23985614914322215 7.093179581092456 0.6211708104571882 -1.485225509030939 1.2727842536749499
Ni 5.307367667700737 4.542686428282357 13.253456020061233 3.048334360802918 -0.6182526083691288 -0.8526143179472928
Ni 3.580461222465444 1.912764216211208 5.437421770367927 -0.26691418959288865 -0.024713186475963888 0.40380203589259495
Ni 3.658335211471208 6.371552843414285 6.204710857043979 0.2883916427403743 1.0445795648371172 -0.12328465369397477
Ni 6.6816679563620305 6.444987746292029 9.44583128386162 -1.3383700099955596 0.7459541601838766 -1.0730614743268938
Ni 0.61295624113164 5.489731627674012 12.150693425088575 1.1841020205461932 0.03406557422514133 -1.9369225688325997
Ni 7.372951362515427 1.770268624761412 9.98100342979844 2.5988173393717116 -0.18509397369128766 0.5637138538913001
P 8.665911653377886 7.243189183048722 12.091433015389972 -0.19029377272467227 0.9610333673833449 -0.19540435447836024
Ni 7.487969103506804 0.9413550138329814 13.184022781880941 -1.030247207374845 0.540863688766004 -0.8547542471084312
P 0.8149624621661697 3.4063267165249087 4.402898772044686 -1.0628693642852405 -0.8404213754255268 -0.7628709905438732
Ni 4.853969234032045 8.520255877440292 5.675452241082715 2.3592074940207306 -3.150605131249387 -3.016367063867702
P 1.0231213121785556 4.764890954569542 0.4588235714961321 0.5313493215176655 -0.3646042826472108 2.173893176788521
P 4.01139547080152 8.023282113972112 11.98244742713498 1.1309071816907685 -1.2175307325182838 -0.4165631922130052
P 5.303994332939569 4.392952994941153 7.59273338960874 0.16718726861419594 -0.2205443440790976 0.4605367695804778
Ni 2.7300287013297795 7.641150010834697 8.43017486495263 0.3564415443307603 0.3477836115454462 -0.5623306003905283
Ni 3.4942558379918482 3.172473064427865 3.2919159904424777 -0.2432366434702908 3.7137818816902946 -0.5515281104583856
Ni 5.528033805058379 6.508219238257556 0.9813290307528272 -0.5422014337408211 -1.1651877001401931 1.0896887984709296
Ni 4.938126522400645 7.480017671569764 7.805874395576082 1.690446849599721 -0.08395603129768123 -1.2666303182584122
Ni 5.297090117563001 8.02289288303813 2.9670768273064247 0.6217323393876132 0.17003450825500394 0.2469395462431747
Ni 2.5390553237929727 6.28518991308646 10.42345428007876 -1.5551350895378828 0.7718436263561287 1.9789799030139659
Ni 7.625552971265888 2.649291084738298 3.6724615141537607 -1.0739708735150406 2.552251061576398 -0.36390160015323136
Ni 5.4991751115246466 0.7512879883281586 11.471635577223456 -1.0741981590344984 0.43972317526923627 1.8438769165288245
Ni 5.799893077637708 2.6719962225538545 1.7140145606576525 -0.5160610279000273 0.6967579009648839 0.2646469908252668
Ni 9.145703651331765 0.5673810057237443 8.172056371083148 -2.295915161719988 -0.1269757293923168 1.1879622748325478
Ni 8.87170360861554 0.46368339772898026 11.263702851848906 1.4805515005940373 -0.002464145269776402 -0.009175238741364843
Ni 2.783038247576712 8.994960071042849 6.249620692902831 -0.0002046598116383572 -0.4178394878222675 1.791471663454231
Ni 6.76983803031191 7.841279582723247 13.304061601920672 0.3734959287098858 1.3719375615383598 1.9460453570694742
Ni 2.8634978420724924 3.1806098444287048 9.883968157956984 -0.20588159986060028 0.03302633432734957 0.6874751901113774
Ni 2.8679183933941337 4.576771937215263 7.284835966244368 -0.26360003761799117 -1.468892319088554 -0.23660628263796668
Ni 6.116235885529148 1.1859866558400225 5.32975215336592 -0.021039337168802477 2.221139511369994 -2.4719966475000197
Ni 7.431882779400785 7.191903373795135 2.466574036703482 -0.2881977815620133 -0.9076541804312561 -0.13627823774016531
Ni 7.804691874929035 3.7991348681372297 13.022098079643262 0.6317570706134669 -0.8672554648992354 -1.3459596494173593
Ni 3.933864375713786 2.587357029219373 7.805305377020215 0.016004345848056305 -0.6035672384428121 -0.6756401451496623
Ni 5.626916997095925 6.405712491572711 11.769075662828206 -0.6292209344551745 0.45728998050840597 0.37741763236179515
Ni 7.4996738337358035 3.970933988473879 9.104525798737535 0.065406550430268 2.2511633114255942 1.292793349807025
Ni 0.9022910559063958 5.1178122028520034 8.998117475309689 -0.2734283365623226 -1.1720808277156007 0.42796423496109515
Ni 5.255516546852557 4.484811495360662 10.428133391949402 1.5424027295728793 -0.44138796456616886 1.4522469972223893
Ni 4.154317362798057 5.8786104003337645 3.9231206751955927 -0.013649986683266814 1.0981515845263021 -0.1655273644132698
Ni 8.881017348821514 0.94080823704477 3.7773907600324788 2.603520401274335 -2.371255683434516 -0.570707511600314
P 4.683476817545189 0.6571302451772045 7.044132776449578 0.5942166504658476 1.9829368307791848 2.24229814772548
Ni 3.6339897432910173 7.988223527704254 1.2771009837833731 0.7356980296735072 0.4168802092327917 1.4548055019781847
P 8.111804349243213 1.9872370682462341 1.3466639656083248 0.021533503196401623 0.8508837084094314 0.9809866705768201
Ni 3.352798195699335 4.628391372983692 11.978718224091315 -0.06618302358497635 -0.0055049889786292295 -2.170357652831436
P 6.4433937529433445 2.8271788889707916 11.671729006239564 -0.9017951505473178 -0.009732139686099367 -0.07919074869855394
P 7.867237579058501 8.253827303130318 9.09463747953378 -2.024586130888855 0.6144417192634708 -0.8126092383092649
P 1.7309006960101936 9.48361170644639 9.166579403757611 -0.1437290375912557 0.15355579387369037 0.131652823153012
Ni 1.996133775308656 1.4466138357530436 3.58142132543593 -0.9975242632205273 -1.3269972493822437 1.0230355201177541
Ni 8.786943939039588 6.220327358159488 5.160272664047733 0.28134887696097993 -0.7767125244126559 0.5638982019879644
Ni 4.2921236482337015 1.260635588535659 3.292363606016556 2.708605501241148 -3.045576338441806 -0.9889092678580067
Ni 3.6813832432047957 0.7156761380898568 9.74389506570106 -0.09910702800650673 -0.07823661231540076 -0.4310765553378318
Ni 4.814323283185126 0.8634022519001017 0.5137245947341482 1.325970350779626 -1.6158779159438947 0.5252774042919728
Ni 7.658730274686171 4.222191823761786 1.6775547430274633 0.2346087925919637 -0.02166591500920785 0.9906511902497778
Ni 1.9692490386543988 1.3004576200431885 11.196250057730323 -0.23891307639427242 -0.9355303380162341 -0.003978267921457665
Ni 0.3198931500535381 7.776454097409034 3.0195284758813177 1.5074131008715717 0.30017809385234107 1.333264056227562
Ni 4.01537118677004 2.345088575025788 12.638623129783612 -0.4488585619116011 0.232140019336497 -1.5261320174373136
Ni 1.327601843986766 6.40106952257451 7.080429487783622 -0.11806557138688052 1.3118418817980442 -0.723928804952721
Ni 0.6421059311255389 1.6918478589674362 13.432158429034128 -0.9203580011511697 -1.7604682730941812 1.182180635153764
Ni 3.2842935513186835 8.449137825360054 3.8970505432817384 -1.2748938438187851 -0.015492439208644286 -0.4232161787531486
Ni 7.93855024660573 5.9310082979701555 7.475732424334698 1.0498035322402177 1.078974497377219 0.759515443808079
Ni 5.935604929952406 0.15168051475142788 9.304822183883505 0.30185856687855755 -1.8875149649337493 -1.8782173416819072
Ni 0.7765240539549106 4.334336669764257 6.48257911385172 -3.043307597012288 -2.0145809400470274 0.7240655876409013
Ni 1.7916114543080353 6.7695507408130196 4.673835011266289 -0.1255734497281515 1.1702810555027006 -0.05170231347029806
Ni 4.475136326430278 7.632262571175464 9.897695035562046 0.2296033689575723 -0.0986804819920494 2.708759510320509
Ni 2.23396314337422 6.408594653964808 2.2878169500517638 0.03498731470846232 -1.1600940876673698 0.34172377850461144
Ni 1.4552973925420953 1.7113557426824348 7.20870239555769 2.6542670356995837 0.850417053185658 -1.1127644493434707
Ni 1.4506914931566537 3.28271809277638 12.227681450349372 1.3581438501883771 1.2552781264703865 0.943224364226382
Ni 2.778654765867831 1.7769782246709886 1.243844907435975 0.5831940741030989 -0.6574773581977064 -0.2070149421340951
Ni 0.5531054978498325 7.610632452129951 9.095261175768469 0.007520219636445113 -0.8430888949553609 0.7602479510987293
Ni 7.028815612457108 4.346375026508097 6.213757696038081 -0.09360666701356783 0.7519540865210533 -2.0543489639735846
Ni 0.9002411063207627 7.378465467413491 0.5193554689124064 -0.8254850658306686 0.18733597564792898 -0.12073051981355336
Ni 7.041539757037009 8.376045816400342 11.235802407805023 -0.03150732657966186 -0.6568433241581333 -2.576204487068202
P 1.0904767985636439 -0.331862928013772 5.205087972394047 -2.563746463810507 0.22779691187645285 -2.169470879351109
Ni 2.6674366601843627 -0.18903185656849716 13.124179452521684 -0.055581336809730084 2.4983386278286583 -1.4748811896821372
P 4.724818703175882 4.773602313568164 2.239488369156112 0.8822917904070676 -0.6356291519743634 -0.8581421897440575
Ni 7.625923667393489 8.533443392179695 4.7610635170520625 -1.3155350143789148 -0.09753531264401266 -0.8454267990599181
P -0.04831189956990968 2.9037554415299534 8.088069602933244 -0.1796044113316262 0.8232507771835111 0.6472250843420789
P 1.6969541981251388 9.160281276549672 1.3828948783797204 -1.2292230812545475 0.4625771970492743 2.3768205791168033
P 6.758643007258363 6.578215934551801 5.064607114397761 -1.7077439461172716 0.028842635263305168 -0.14834442487608002
Ni 8.641705196245546 -0.29383135880255495 1.4104570622071684 -0.2567033104981579 1.3351077943045198 -1.2685930984117377
