# total energy = -381177.1112017837 ev
CRYSTAL
PRIMVEC
9.15197311401243 0.00000000000000 0.00000000000000
0.00000000000000 9.15197311401243 0.00000000000000
0.00000000000000 0.00000000000000 13.39483774798599
PRIMCOORD
 96 1
Ni 2.3207848292029234 7.74339303557534 10.594512749091168 1.413581205221075 -0.39372048328687675 0.9836575325407639
Ni 6.752609564977235 4.506870916312692 2.1533805955522127 0.42732762981836087 1.337822879242838 0.014591010440297451
Ni 1.2734696199236508 5.828168748369705 10.077057436713833 -1.6037929597549025 -0.9696301079134204 0.1317978333713085
Ni 1.4115179842213244 1.0879316665023613 5.9195539467270075 0.4492182592438651 -0.4851555965704225 0.545084411715571
Ni 1.0749541684531636 5.756582013714679 3.683138413198373 -0.7143450179190277 -0.1511584972861074 1.7367634732780732
Ni 6.04130905307194 8.172950051398438 10.090357999418273 -0.8621927056643475 0.3655597045819446 -0.9669150229751027
Ni 8.786397665460274 8.815446028512568 2.248336893866354 0.14695011563171467 -1.0547737317612995 1.0882045006159193
Ni 3.4011020539726102 7.942796228449757 6.366673599190733 -0.4094677188188045 0.19708251351173156 -0.11150514456054345
Ni 5.507959508774968 9.219880877801781 5.360506576779583 -0.17216672410665834 -0.08812044708801597 1.2518873556212826
Ni 5.267573779748008 6.764973880819595 5.287960715329385 0.4977529736194589 -0.6381033245464688 0.5788558517390612
Ni 3.477109191700811 5.325267819030197 4.602144788098136 -0.5440017201743534 0.42945058969863464 -0.5025995030784829
Ni 8.171815206717124 7.757981280914142 -0.011984508953049802 1.2962648532953933 -3.6418915233078955 1.4572781318883936
Ni 5.215407532300597 5.843717950898328 0.27439903755999673 0.35510894156226586 0.07759975006235023 2.0462317341830887
Ni 7.563144922684683 0.8927777348015993 9.924061154529166 -0.847147895516083 0.5112823755644614 -1.1689787917515093
Ni 6.253909391353228 0.26096851683559763 7.595488911299401 0.7123133322009797 -1.597593772922726 0.2889012353869411
Ni 0.25778454534665834 3.64055428172946 3.144665594283672 -0.8675110325534673 0.27019774544016695 -0.9690354117522149
Ni 3.87924689570769 1.2291557655130614 2.34401619806617 0.2895982614539658 0.3620370361406668 2.025373402676841
Ni 3.0599347956665466 4.926525497094016 0.4475827423094864 -0.009407152246512831 0.430882951269787 1.167186475737777
Ni 5.540028022995272 6.926130977539147 7.708662212340572 0.4886168156461456 0.19641942600643592 0.406345628250055
Ni 4.384325994677459 8.081887917696378 1.563981621563632 0.631769669018957 0.9431636861917756 -0.49772623414658146
Ni -0.1926902205055266 3.7736331245597747 0.6585897220503195 2.0030408006179115 -0.8293797728993845 0.4390161218998827
Ni 9.028549725321858 5.810157665040494 7.8863450271330695 0.21411787172746347 0.7750065974651427 0.18499884287432009
Ni 2.2917913779900467 3.2373091889609777 4.22197273505591 0.23614554095146426 -0.15299709315674298 0.522112890521062
Ni 1.2972922062579682 5.775343558849275 12.688528155048228 -2.008242656533825 0.8265191635221378 0.4561967474442272
P 2.1709395714035464 0.07295861544315978 8.183455601476487 -1.879608565602479 0.47723608461302974 -0.44664818452384375
Ni 4.8820286032187 3.581295255023849 9.306773372497343 1.4976292820119306 -0.2587419381947415 0.8030853579792299
P 0.24906820603632263 2.8430879418035744 5.454806678612677 0.4617343894330048 0.35616849317503174 -0.435769847048443
Ni 2.048751576724533 6.725894955100219 8.147410554884974 0.32648922094304417 0.5802301063787685 -1.2293292678151087
P 8.559062650268402 1.8674143790187454 1.9797164122078126 -0.8301081664249768 0.8515493670178882 1.2405665312918248
P 2.2256592193839086 4.502514577052171 2.3764855687142266 0.35111216169804693 0.13571953702321787 0.041149991875748484
P 7.077495462895764 7.127044245997569 4.15576186947994 -0.4329339202615447 1.7596804870855631 -0.1227758323783563
Ni 4.019070742813223 6.024588397969059 9.54268378661171 0.6601443635069082 0.8880736871961673 -0.4440385148151385
Ni 7.603752227934535 2.6810247997336196 4.1557481415200845 -0.185762460513222 -0.9018607136779305 0.4314431946486311
Ni 9.362834699754158 8.700424028877647 7.357717901026075 -0.7470399370488877 -0.17770565164701654 -1.7488810824772139
Ni 8.401740230334894 9.074355351369979 11.737025868778023 0.44029858815673206 1.7229437937861616 -1.0915183954805008
Ni 8.147919404596918 1.6987984241115368 7.071697687850514 0.818037608413688 -0.35734965796732654 -0.3079263703391923
Ni 5.233043384727117 1.281331164933708 9.337206429100302 -0.5122411399333049 0.23083107071708633 1.22247804922123
Ni 7.696113941836161 6.939849785420493 10.994308463146854 2.062417599914332 -0.3295892000246066 0.8311587191766782
Ni 3.5764813171015097 1.5533095055726804 7.485463889051547 0.4189736014267107 -0.9649393873059704 0.2613894031199176
Ni 3.9228468962058414 8.15067414854107 4.049285982453156 -1.3966021541645754 1.0069784666548918 -1.097975463959754
Ni 7.504023175577617 6.630064643342003 6.312156209818895 -0.3855616016251682 0.15830847806732734 0.11915649045821415
Ni 6.906326107455604 3.1206489861167426 13.298488867307002 -0.029636849029826377 -0.09828967431153394 -1.1240734465983866
Ni 2.936547892493566 7.308436355542775 13.152484692674935 1.5375279179790808 0.4492275152152456 -0.01906061617587685
Ni 0.5576480332395805 1.0539320859291808 0.4224267134746273 0.2377717637009776 -0.05596263140854878 -1.7596496338476275
Ni 2.6076991901636806 2.01997777286933 9.603590168499869 1.8052836296366588 0.40251417031910675 -0.3943863990056498
Ni 7.235888663697929 0.5228796869145433 0.7202740216635731 -0.9316502862355375 0.5125342456936915 -0.4275960529883991
Ni 7.8963042044089065 4.160020282626831 6.485673046394189 0.2782273006128628 -0.4372117217012922 0.030837811316463015
Ni 6.272442137156913 2.3007694637349436 1.9366124486590732 -0.15095923679110773 -0.9792964273585909 2.427006970163207
Ni 1.0274462753830746 1.2599155475605608 3.562169461354446 -0.5772717950813929 -1.4074213562672664 0.655155137822433
Ni 4.588598037313634 3.1801276601800272 0.46428417826857044 -0.7902830640082389 -0.5681960580323698 -0.8329749464498106
Ni 9.103074243385764 2.341404224904505 11.900040816064562 -0.8683075603128337 -0.33788666414670837 -0.9264592289529012
Ni 2.013662911336222 8.873423778965085 1.734805947612781 -0.4388837100870764 -1.0889105255440086 1.1157384443701301
Ni 4.994460594427723 6.336661533356647 2.885328874276122 -0.34263086369991314 -1.7832988978354516 1.1065197539853395
Ni 5.720102248394438 4.361784684596236 4.676379188610447 0.34000499604129186 -0.38556622961085857 0.11958457913456826
Ni 2.6843195100987187 6.6740124188231364 2.540853177645104 1.4352309222803667 0.2449914213778684 -2.017979167095299
Ni 5.639574035887462 4.606160673954262 7.193644070436086 -0.5536284446308402 0.350894389260286 0.3729480266262158
P 4.986416009952939 6.8130949560965215 11.46123939207539 -0.7604163583557936 -1.2103864081640185 -0.3994900387808023
Ni 3.0306027214439233 0.7077843237878747 13.41560026243179 -0.6873517771596356 0.9628467664429998 -1.281210272955116
P 7.000994118612799 2.997225475050817 8.313090556777949 -1.4074072151998793 0.4245999464745527 0.6943274371465203
Ni 7.834153154160598 8.91207256194235 5.31487117743366 0.826845436513305 0.22878370126975436 -0.40157288945175995
P 5.549024412686641 2.1252529210074984 4.1960937003353775 -0.6127404203016479 -0.10372550061512459 -1.0547724462097188
P 1.0747894329349086 8.232044342585793 12.69849373870533 0.40822279066810985 -0.049310673309669914 -0.22445859153183922
P 7.64886230401669 7.471616038347568 8.522063968065655 -0.8673616514597966 -0.04503081498739342 0.09694138781375562
Ni 1.5366895221754 0.7254512929233977 11.179934275511213 0.6729538565667508 -0.692159225850608 2.1942586278187504
Ni 2.116467026700566 3.0909233770449553 12.812256426822925 -0.5453389509285382 -0.17141956152798865 -0.9296162865246441
Ni 6.014612747141397 0.8343304881220559 11.94477932203332 1.2715213278021262 1.2325544596206257 0.2861838364557781
Ni 1.3042843138105686 4.921281416429567 5.940449732020328 -0.07686544299948697 -1.1647418708520265 0.4622213563717523
Ni 6.83985532583972 7.083755412589454 1.987111206582814 1.3150236219601352 0.42391397615112153 -1.1980826510960012
Ni 3.6145992856310643 3.415186940783411 6.204997585588678 -0.20609345876109025 2.5766534016801623 0.9325527434451488
Ni 8.8025508982225 4.5549004718572546 11.682134163700816 -1.4343909428775747 0.9154891030946426 0.2995134636851487
Ni 5.795432140103146 2.2932556937078687 6.456499301308556 -0.004292970948399058 0.3697822273037244 -0.18417994651745054
Ni -0.07445130227801462 6.023114930278001 1.7350731852312833 -0.3474015456156791 0.10731193241480229 -0.8456021482955178
Ni 3.8829992047346087 8.229765501249933 8.664745976412913 1.0860519730492908 1.2048909322670862 1.410273738114397
Ni 6.311932901671926 5.557050693214953 9.95627610032125 -0.17526490341600784 -1.0711951105421165 -0.7764212184244822
Ni 3.9836617583616385 2.3218006982321624 11.428944824116149 0.6950175212350095 1.001146947574779 0.4075283357042465
Ni 3.121381143975654 5.16913515561742 11.427176662886879 0.5269918158799182 -0.8179849007988815 0.5189136668574741
Ni 7.968101434448369 5.275719035928392 4.252914641370814 0.3941557710520825 -0.6650857666725836 0.05347611754126919
Ni 8.522042918527212 4.131585101781374 9.383351593355492 0.23298436961466323 -0.9211995232158587 -0.06856540777422385
Ni 6.722215861859191 2.9073714018159618 10.947680989902107 0.43633523263360985 0.02222333017457463 -1.578272961106927
Ni 3.7291728385774032 1.5481203367476484 5.09881230846634 -0.6423207050619261 -1.9454750863883012 -1.5046579067239376
Ni 4.043021456772849 9.167348551424915 11.410540205937773 -0.7303776459018583 -1.352635004555006 -1.0348952476698177
Ni 0.5072893005063567 1.3957033744688463 9.337407772511503 -1.0800415051891528 0.48653319364423947 -1.6822599429135543
Ni 0.5961531302370348 7.018199828297208 5.547565588152762 0.13070562874839428 1.9171240460494336 0.018944916533618985
Ni 5.9021258440929545 7.890684892841764 13.05507749592809 -0.3401530915833819 1.1140600282264426 -0.3295516619184518
Ni 1.9044066548402248 2.4530216904954902 1.832253413041867 0.8950760866559293 0.4221358012047763 -1.5278410297086202
Ni 6.302735168569358 -0.04424704500596402 3.2091220265902276 0.13578972813952098 0.38053766604801564 -0.6932879401384124
Ni 1.1364279726819804 3.0077593962458997 7.490165257703079 0.042788041699803735 -0.09250597775022135 0.47593947728879316
Ni 5.362498046155822 4.436766801321961 12.00148037221936 -0.27320027971191657 -0.21457501386954012 -1.6682340609481074
P 7.528715199369391 5.313864460377657 13.576605436395617 -0.13474791713856793 1.098988992825933 -0.0840323930615714
Ni 4.3931393449041005 3.8918766187739053 2.6995557151426572 -0.6042112997847142 -0.24551129843708042 0.35318215685319815
P 1.558068531655602 3.7561620076515103 10.389250462950816 -0.28643014813862927 -1.0268016720284059 0.792650535799151
Ni 9.575068959105991 8.116985735057925 9.440922996196313 -1.194695222681007 -0.4106406560809831 2.0154098637062257
P 4.996080493690564 1.0690694496621662 0.5964707037083374 2.20578385484953 -0.9725714499299316 -1.2098289929986519
P 3.275921364045298 5.599076554316446 6.755204149389751 0.8515102862498367 0.3512258044577758 0.25301454879266105
P 1.6283648380842966 8.07580185549418 3.794476743605648 -0.6216369514603294 0.6875556656403256 0.8461940162432458
Ni 2.956032443513836 4.209843624925726 8.546978384807074 -1.8363217298893857 0.5284439749454125 -0.8935910174699707
