# total energy = -340857.26084379124 ev
CRYSTAL
PRIMVEC
9.48355036584188 0.00000000000000 0.00000000000000

0.00000000000000 9.48355036584188 0.00000000000000

0.00000000000000 0.00000000000000 13.88013457237003

PRIMCOORD
 96 1
Ni 3.467840385136536 0.30788915332633804 10.658985242216675 -1.9936835277727276 1.2643620910495257 -0.4673828459680338
Ni 5.4566547031338315 0.10896883897003666 5.297811872697651 -0.4286170380537457 0.014102243729337004 -0.26734022138671376
Ni 3.539023914314111 6.701863835571083 2.6238451802832516 -0.6432226480509051 0.9674683243754113 -0.8276525057956327
Ni 7.100457458184125 8.615502049679405 8.12211370249931 -0.20300376409217294 -0.331633484148145 -2.2984415276862675
Ni 9.13015536188413 8.29797381574341 2.4702609785346503 -0.1617046482330699 -2.314627907638143 2.415236974111473
Ni 2.2502473514156573 8.534484078754273 3.4320295505338922 -0.9492510300364362 -0.1887534248207459 1.115486219150008
Ni 6.940868272332774 2.154226403784036 4.706420515855812 0.2551732470068767 0.3157373817431788 -0.3588784359070271
Ni 9.212614832467532 1.0314024890441744 8.053198638573436 -1.0200640961942562 0.30868870242651353 1.5475125399956187
Ni 4.326329300040724 5.817257222911093 10.677029593531113 0.12533510846510026 0.17850269362701515 1.4305085771040333
Ni 7.989929132190784 8.897400584825078 0.6530107254577868 -0.680064499469603 0.05849285402957023 -1.9119311889945847
Ni 4.112683877004164 5.5858301429057144 6.2600792794470586 -0.5063078051680054 0.04235892458218511 -1.7240272566583275
Ni 7.18086848188472 2.3394970440735525 11.573783685877162 0.060435322467921715 1.1769988338425084 -0.43733950552840806
Ni 7.29106733733948 3.6854025144814275 7.363730300376861 -0.7397734852944615 -1.0686890562908111 0.2522817843916946
Ni 7.063888887905851 9.029753013975391 10.278295614372396 0.9563752997860433 0.11292722171905067 2.313759131879944
Ni 1.9723888087332988 9.577058190150058 12.353611292126487 -0.059609227022200555 -2.5002954944447136 -0.4840032281335342
Ni 5.610013196383307 7.9463142839776655 12.34451941237395 0.946793569634879 -0.6688508901419707 0.5390695729800586
Ni 5.05660061376175 6.965743624988354 4.411662286390288 0.3092499742466222 0.24905145037985493 1.0319431070200291
Ni 4.5504161120493745 8.048727144567678 8.984763999311722 0.36818891467467557 1.0276442225343592 0.3008733201471528
Ni 6.893317750710557 1.6699963212091622 9.284630069013728 0.21987354326431813 0.746504890481024 -1.1534734970270586
Ni 4.292814432985894 4.454622769626954 12.859444902474678 -0.5468106503780583 -0.8961106985680309 -0.28610078982366854
Ni 2.9497919618945643 5.864893096486761 14.008248055134743 -0.04483232582334214 -1.1892023178872357 0.052081036965955466
Ni 0.9470188060879863 6.076139181276329 3.069106405977819 0.533839434929371 -0.4100261624254358 -1.1501220640563226
Ni 1.6826378938701942 2.0363553560691297 7.239267236790474 0.7747587431203948 -4.036018498004571 -0.4580559121401531
Ni 4.163420871555194 4.598734801252645 2.517273782850131 0.5922993788384767 0.13004485523594378 -0.8325769396804436
P 0.4693437535380978 0.29909790212095405 0.6810886730778305 1.012706113167288 -0.7241139243803335 -0.6524642212538312
P 6.248445808191779 4.406000606811416 12.123117393478832 1.399276615672945 -0.2507607197614778 -0.8137927170944048
P 3.4203467648166184 1.6302033438005414 5.72644369279498 0.3585861014775889 1.2571516893440158 -1.1040080433070794
P -0.008913589005329492 5.145821855768495 0.2660448839697945 0.9745326874213605 0.34239895019476513 -0.4393269682720821
P 5.194311248878667 6.685571096012453 0.5740658586464613 -0.8941420048774343 0.06353812976296154 -0.8791889831120278
P 5.190318674167267 3.278833225995971 8.562141905092334 -0.7011632291214311 -0.0712673800864192 -0.8173961181749471
P 0.7931586330232292 3.7990913164772673 7.285627572839578 -0.5466232169576005 2.4181772876867194 -0.4794536610896387
P 1.214311725288232 3.6481985463274667 3.472726310294048 -1.6945621573196752 0.9339501380133076 1.316460868627294
Ni 2.7036558952445784 2.6770071186673086 2.5979313788606926 1.878425086817339 -1.2553465178144767 -2.4007601206515363
Ni 8.994900966316507 4.725747991537119 8.741680687530142 0.7518689830064148 -0.48451384922136564 2.1223266175651387
Ni 0.8047143391653656 8.801284801689624 6.963080644040703 0.12069195326613408 0.08863543905122154 -2.355295303450518
Ni 3.2417715110977605 3.6577484815635204 7.496549320206035 1.981559233705368 0.9392754068809631 -0.1838863265364317
Ni 6.907163734270277 9.413723001897276 3.164559288941477 -0.6374716044997408 0.6590812123497165 -0.3513052515454595
Ni 6.349142146162402 6.860021005314545 2.337955967136255 -1.249818388907396 1.1813090311820882 -0.02361763941893997
Ni 9.632631795396607 0.9833967570035552 2.607771510738478 -0.6086137997277842 1.5130373890368845 1.302990344944685
Ni 2.8699025334650554 2.29919195494423 9.39071590866722 -2.1749079912062803 1.7135631239022102 1.1177248786725396
Ni 5.312959947725008 2.430871052017323 6.589204947146877 0.0901557323504899 -0.5155709756374863 -0.7724725181893793
Ni 0.12583533332686025 8.607346196349706 11.039620813823767 0.5642555853273831 1.0761401132522175 1.2821564389184692
Ni 0.78864730810586 7.523072913918244 0.5291346936401308 0.14564579499799432 -0.6074917703081989 -0.26808378442095765
Ni 8.139494205286912 5.829832410719442 11.749950117798642 -0.573462962858264 0.2803662013327365 -0.15898313553684876
Ni 1.760696997075713 4.628304511347992 1.5833346894508884 0.06922078197003563 -0.3054707097098481 -1.463271373357351
Ni 9.644012055856651 6.865142122521565 4.852036638572305 -1.3865553114515345 2.440743088802377 1.3912113221663072
Ni 8.962419806253465 1.3699652377304845 12.85739076546164 0.44304298367108863 -0.4134254179149719 -0.7989340548150177
Ni 5.6418494750202814 8.963093138330683 0.6854624865146407 0.0354781383019518 -0.8111653067738869 1.3284483800064735
Ni 6.512173860802916 6.054051992433459 6.3897336385133015 -0.6091650442455637 -0.23645998686808956 0.5013219219176398
Ni 2.9332621335763505 0.4021679727525345 1.720525626006796 -0.6381408626526236 0.9270451833633583 -0.7977899139082453
Ni 6.5041412936282015 6.776082100871337 10.05883677495083 0.026718132721134633 -0.021398520280434114 -0.23562257856845872
Ni 7.402906847010562 7.972953577004551 5.401051698881095 0.2812347199806189 0.42456857901598494 -0.6237082321670614
Ni 3.5143097820150486 9.4843090674007 6.979722378253442 -0.4355387048742435 -1.204037068907223 0.6894297427345868
Ni 1.6959433150580623 1.5386112141979535 4.25637104557268 0.4354255763351469 -0.9781440589217025 1.7045241536283933
Ni 5.329963953562391 1.7449637869897021 1.8142866435820604 0.8379556874938537 -0.2147742743645398 -2.2696300027712137
Ni 6.817923525162766 1.5975514798305983 13.68642377287508 -0.9529930135773717 -0.42530699984390624 1.359595752143555
P 2.1580862087900674 0.325887983598936 8.783598928579677 -0.5810819128561024 -1.117383693283037 -0.6722241774895777
P 5.068464535291346 7.84853887952512 6.829276283326697 0.8755986946576082 -0.3866700041979986 -0.5962843316281538
P 4.63989340991647 9.571273224416203 2.9313180057477597 0.5253673929026178 -1.514983971240294 1.2324045643063226
P 7.508800170591272 1.3534638600634208 6.761082917584998 -1.05325549534456 0.34802143858786516 -0.09697404082390394
P 2.79188136446107 6.791635123500064 4.7812068458240295 -0.19332304646929932 -0.4399396621554165 -0.7078766365858647
P 3.7996413623995027 7.908693039606836 11.224448572310381 -0.5705015662370949 -2.3660330015829962 0.861548130101813
P 8.066157910172313 8.132438443801686 12.32622564368443 -1.5121310751725314 -0.6333537256766253 0.8513112828651532
P 3.941325605127051 3.142383903080043 0.7940937110910294 -0.4097333137753653 -0.032284828175634724 -0.5205002946183036
Ni 6.3952891023278795 4.345647292171649 9.87116300299417 2.045047998287633 1.244534000580005 0.13446818111462006
Ni 8.691673926358632 4.039262229936114 2.965269116120224 0.47157091590745237 0.6815631955023165 1.171401285150073
Ni 4.767560965177398 2.8973194776233777 10.682859131951771 -0.3329257205970073 -0.10368282030264724 1.4700647421301005
Ni 9.19944218098503 2.451251201791185 5.708552026641715 0.06365537206711616 0.14927387866888484 0.24971376655420222
Ni 5.427350532449218 0.7596143669622111 11.547147237915391 1.1254201904342682 0.035312045037732734 0.5056624582745227
Ni 3.321281597511935 7.9612793264826225 0.33830574447092077 0.29502277490364676 2.108198919914505 -0.5891731745046691
Ni 1.824132465590075 7.077393463651769 12.221055914997972 0.11156659392609818 1.7898048172747694 -0.5329238650936371
Ni 4.171557757784125 5.912585871364729 8.444382763271951 0.29763964370120355 -1.4145659377318476 -0.3200750898865843
Ni 9.361089297269574 3.7845435501891775 11.811647251527734 0.7461063694910247 -0.8659819975034504 0.07202122753330822
Ni 7.775098265356302 3.913975045821412 13.74179158507831 -0.6603690779232047 -0.3423740104941007 -0.7864289803694713
Ni 0.11965111012186466 2.8836252308697916 1.1244342215949577 -0.5678016508074286 -0.2399407463278384 -0.3771828906431698
Ni 2.30003599092835 3.597404650474137 5.353540059815449 0.19795874546909778 0.30836268654566246 -0.60222717947515
Ni 2.1626857307260017 4.776115127623198 9.200447437325668 -0.10172543946596029 -0.12133087240171363 -0.5235689062412984
Ni 6.656077254320173 4.336277544392879 2.051664651453004 -1.4884936382592493 -0.025914920093548916 -0.31560317015815964
Ni 4.198339304066763 0.8937288397737533 13.542389506362534 -0.7473122168736678 1.2073622766257142 -0.4373569890299049
Ni 9.442581445713872 8.059747030113154 8.966594465132223 -1.1758212685946396 -0.9781103774702897 -1.3589992562101367
Ni 2.152367627908895 5.0451634519994055 11.563595507700308 -0.21479278630730103 -1.5770894823217871 0.02067578318179665
Ni 7.668389356442622 6.443949199344951 0.24798915239489627 -0.1626703545804489 0.3563078469663734 -0.05404921643591982
Ni 1.5201657087022988 5.703521003163336 6.311519005081496 1.4560977384270473 0.3135498871735568 0.4774996226870615
Ni 4.8297825392426885 2.761875411048087 3.6318062294898117 -0.029686985541471454 -0.04290219868016482 3.644633090608775
Ni 8.686960601818098 5.286045631737005 6.404696784308182 0.5929915198094948 0.39956614343437635 -0.20916669836977525
Ni 1.7430860440137947 1.725693212610694 13.60924948492033 1.6576508861156227 3.0498713662727344 1.216819565383872
Ni 2.2114406632469072 7.517667290199723 8.229087202468685 0.6755262452796172 -0.7285195096471969 1.0197108266198955
Ni 4.549202217600303 1.0538405692512278 8.846253900897487 2.730387630113246 -0.19081339267356817 -1.3184334189726328
P 5.558413198747393 4.4305061010020435 4.922284141327042 0.037687744358760905 0.2525440369141457 0.5505156100334713
P 2.6191574613287516 2.85570565854115 11.563582230729772 0.03732830413681313 -0.08029143796190043 0.3528576836342439
P 7.449072770276808 2.2482558058351496 2.3515582234511228 0.6169326040061246 -0.4629952584232994 0.04968219771647572
P 0.5154063061051644 9.240591306098473 4.6996890917936955 -0.6907631168340297 -0.7702819382959637 -0.19084913100751003
P 8.027351222003562 6.235538696120011 3.251060648698272 2.251927186174812 -0.2782347568120305 1.0444726069456078
P 7.81651292988048 6.382144901496528 8.357784671301246 -1.1147758233465448 1.163033887021984 -0.9533776506103001
P 0.8980931696601802 6.253111714980396 9.916856645451322 -0.3495887830749851 0.9622469280754717 1.1602588953800084
P 8.88994651422375 1.595977210466959 10.350583028814597 -0.32373196991288117 -0.3842845346849575 0.5089285306203042
