# total energy = -381176.06910741614 ev
CRYSTAL
PRIMVEC
9.11744854753387 0.00000000000000 0.00000000000000
0.00000000000000 9.11744854753387 0.00000000000000
0.00000000000000 0.00000000000000 13.34430755513787
PRIMCOORD
 96 1
Ni 4.606982984221482 2.5100336152611926 9.016975284505543 -0.06365485784648392 0.13489858378381928 -1.2337857609245655
Ni 5.775912841633058 3.957683878116048 4.340422520051991 0.4694497557993915 0.1349852299603546 0.44759974980383566
Ni 7.711346607635293 2.4880149767546333 1.327735754628781 0.34483712732261257 0.5339839309270352 -0.04120578481434839
Ni 6.232222912016611 6.916751839732539 0.5282421815626421 -0.24636336202473053 0.626398891625347 -1.9596038124801993
Ni 5.367086443854955 0.8983923621379196 6.897232293902853 1.793756859943982 -0.9354256941175697 0.6634536303857993
Ni 4.671735104583215 9.064932152696288 8.889751317691184 -0.18383336181130921 -0.4563888088503753 0.336812200135607
Ni 5.288111103588364 4.1911726207721465 0.8844864294463236 0.9554874978644513 -1.1803983464423604 2.640240125292872
Ni 4.945705319276217 5.364852668934 6.699442921463084 -0.15748546794539972 -0.47792925402531233 -0.2366211950363022
Ni 8.896067886120726 6.4642619803362535 10.405717711587778 -0.9093845328588016 -0.728387869165339 0.6566335221401723
Ni 0.5181491658993869 4.341063476692575 7.448205186712163 -0.23689501752297912 0.1925216336139265 1.236282302094174
Ni 8.975508216268821 3.928097757224212 11.64469692703078 -0.5627823432159662 2.0000652629293554 0.5027560832610052
Ni 0.842386610272809 0.7931815633609253 10.651199546207241 0.27906985111881616 -0.4562440557423949 0.4540074531023923
Ni 7.905949431769456 2.052465336962979 10.920540832217105 -0.9794159836555905 -0.42331413778359356 -0.6832691224498297
Ni 6.9626673111689925 2.8863927783718606 8.158856516575149 -0.28430718825835555 -0.5900177818931516 -1.460974349793058
Ni 3.4101354990222923 4.2906257507222705 5.110829608412695 0.40290806332341583 0.18898251011241649 -1.732174054135178
Ni 2.5105441923859826 6.628120767599145 4.110820545758354 2.2071028307712695 -0.4903893341655361 1.7556212294145248
Ni 6.42317875668799 3.6846618780833698 10.20501896128157 -0.9494248366101392 1.788647049521242 0.7313153272247792
Ni 1.0578155106292004 9.028006485635599 7.656336481163524 1.7798613329088122 -0.003359917611168407 -0.484960706950797
Ni 7.609969696018551 5.381163784581301 8.486179305574087 -0.25088336138227113 -0.5697662307329672 0.4143669558926347
Ni 1.8496112217942675 5.317833986210054 12.340215115612944 0.630857698727649 0.572521424880601 -1.001158774649321
Ni 6.854780541211181 0.9901913939405252 12.9668236272458 1.2256065675478827 -1.9387740202190415 -2.336301021736202
Ni 2.8341406801188205 4.517431403512817 8.331531876689322 1.9263990435934568 0.08083805449398981 -1.2507910372333104
Ni 1.3527923270278397 7.688862979247229 11.554008400474594 0.36277648540985263 0.29426455658138356 -0.761608836001998
Ni 1.814572866605569 2.6000593033000197 3.7359119687290097 0.37666455624585454 -0.46341126291479545 0.29700380988941755
P 1.7515621789373157 4.705132319013661 2.9423930597677765 -0.16162571536601844 -1.249852327469125 1.0725374835026238
Ni 6.444376824815422 3.2460761278889474 12.634790764270676 0.6354090655437573 -0.6810826563214721 -1.1806924806440118
P 4.081653827504739 8.97998488355939 3.5639705632317225 1.8663897529193598 0.9677727429897075 1.088271606408429
Ni 0.046399607960137076 2.004352560400199 12.729215621286487 -0.3390392896939129 -1.1915175962839737 2.138563391138975
P 2.5740928095249966 7.7253054215291 13.25337956806487 1.3858351454560587 -0.8017753809185546 0.8299032495030223
P 7.6818790135759984 0.1983956827754579 1.9395284121940766 0.5446298406766557 0.9164563521039184 -1.0835798573597146
P 6.457268897216364 7.642792511183609 11.688586501375656 0.08011480317472008 -0.49893722373554716 1.1922542173396822
Ni 9.078854496795467 6.308225964021033 13.045715086984746 -0.8036438015858611 -0.06310464176996873 0.462510605477397
Ni 4.130176889257082 5.12587522218641 3.0330943507520844 -1.935477865966273 -0.9396821554010785 -2.099860061031506
Ni 3.2292817874628263 7.904663871508825 6.334863502017209 0.5529823264064089 -0.24846960973445592 0.041095484488729225
Ni 6.064872141918103 7.515677042008267 6.958548959610643 -0.0875792298725653 -0.13333021085543492 0.29462733923744094
Ni 8.385545466022887 7.768193900011442 8.328769289746262 0.0003959498868380278 -1.636879457896226 0.3169794816803961
Ni 2.0199616325009155 3.0639277386201926 12.33563815638715 -0.17376466472139748 -1.3288103913315823 -0.645097753586431
Ni 6.174044472136547 5.854569071196655 2.559705475544313 0.3431738806875767 -0.7380104798567677 0.8581637870106124
Ni 8.029983203298746 4.50272495882914 3.1439989962153505 0.43042092403170384 -0.22165583197572147 0.1155194079262591
Ni 8.66556966662411 2.3745300933214475 4.376038921485541 -0.4454469651268909 0.794784037202386 0.07053641545766562
Ni 8.767502742608928 8.69316818370873 12.760547733596132 -0.5992655257436648 0.14699999503304362 0.7575950868569147
Ni 2.9433038928886073 0.8257417960046622 1.8532837301132912 2.6056770426060223 1.0418667938916444 -2.147022063429289
Ni 3.880887608078471 5.714652704106941 0.35366309816889613 -0.0926443031002985 2.2646142947241774 -0.6398745575142787
Ni 6.697969541760118 1.8717301522360534 3.3183556138618666 -0.8696393917503797 -0.5541269815338133 1.248921073904107
Ni 1.0976314089141463 8.145528630128403 1.4594673880591416 0.1943363182251621 0.23051765324172557 -0.5324433259127928
Ni 4.137097032787715 2.625724921269363 3.0630524635491247 0.7884742929342743 -0.369607392288757 0.20733504447767517
Ni 0.4711359536446364 6.52347980936321 3.5252460235510146 -1.6426649542297516 -0.4369409845384088 -0.34968751343637844
Ni 8.540651502575097 8.87790592839606 3.916327131008076 -0.26444978721279616 -0.5344968660077117 -0.7362040227756482
Ni 0.7399639272951132 1.23805835312865 1.797304418849286 -2.2790821493230493 1.2300124099250624 -0.016120302600630302
Ni 1.9398192588062337 0.6308061849945208 12.792907382369414 0.9394602691982594 0.18205852929907357 0.6414776403353404
Ni 8.254655373103562 7.042226168149629 1.83784515430246 -1.391874923892235 0.54598635470455 -0.07662684462611964
Ni 5.6470468223155805 1.0698140730617602 10.596981726023762 1.0368307741296336 0.6716914449145593 0.6315621809938413
Ni 7.920701463696418 8.906981472163107 6.32434743673627 0.336148341299363 0.6498000441581067 -0.11213557905569074
Ni 3.70154739299606 3.830714288119218 10.601679035571827 -0.6428657789321186 -0.9404095204854063 -2.000728093324335
Ni 1.856458425735645 5.96925745785256 1.3092957147200786 -1.06649950483866 -0.37182316899315315 0.2739181317145476
Ni 4.721124323957969 5.68055344612991 11.272430586622223 2.2345817529178293 0.45329268642355486 0.7932375186508726
P 3.9207490936067018 3.820411571136853 12.588526094550662 1.5207147030764843 0.2423275013924601 2.0490908008984388
Ni 4.98843880113139 6.46469050042313 4.649584263071128 -0.13361483197538923 1.2454912222869519 0.21412995591232156
P 8.73114235736497 6.147713280415245 6.697788104531845 -1.2514451258775416 0.5487549185886227 0.05134313035866641
Ni 3.485992671848203 7.476116432285716 2.2311016850090724 1.2731655482737687 -0.374104251717846 -1.3643479221165598
P 2.6528128612291924 5.711115134028041 6.467185034375675 -0.25246536115741036 1.2324102207332774 0.31241397379690067
P 2.5146105744869867 8.49543807468523 9.565719872863092 -0.5422945076752596 -0.027667126897965254 -0.5021824701457223
P 0.6530582301866983 0.8211812481864506 5.3940357985951985 1.6466931015525381 -1.1473619848126821 -0.4849298537128616
Ni 1.4374569552563736 4.344509872284906 10.071002495217776 -0.6570639248093716 1.0486905016816972 0.7587672527881448
Ni 7.804362818833604 8.87955618660297 10.496205654273513 -0.20939784054397487 -1.2450484783225784 0.9014737626521572
Ni 1.5514615332630064 2.3893094775943804 8.880143350296478 0.16286524420007434 -0.2966160875326956 -0.611041178222354
Ni 6.0206251635858745 8.16069094724493 2.6825658314314516 -0.42295855421638767 0.6188534751779212 -0.4155342367278585
Ni 7.1424269288896225 5.427890708948223 12.036992478648948 -0.5995156940812578 0.9970303543032442 -0.36325651037006473
Ni 8.638572901150852 1.151734349244549 8.796447906860179 -0.7717006730203613 0.47888956105605274 0.5735601505577606
Ni 8.933020905527385 2.0873213431785387 6.802060717842038 -0.553194442417215 1.3422891425443075 -0.38263105824193455
Ni 7.36065306249397 4.464304030188709 6.218220334369251 0.24350455241969673 -0.0612498479494171 -0.9024189001742459
Ni 3.059733712237991 1.2911948439014151 10.673124274992634 1.0226025463453938 -0.19318934910491245 -0.8230155212442535
Ni 7.315430517155447 6.637201746461478 4.837058154100414 1.1089569026719224 -0.09254403007700836 0.1331232370509514
Ni 5.996545981682842 8.801282889882966 4.93226984693532 -1.1019928126492635 0.5638125842526935 -0.4102583330408999
Ni 0.30923650609812525 4.069336154369185 0.9265962778133607 -0.3387898926872681 0.5994100217413288 -0.6056668012843183
Ni 4.502889072904964 8.759278803920349 0.2703059120777701 -0.15372754356486426 -1.9621018963117047 -0.1985678398080064
Ni 0.8412341647625693 7.50894836489943 5.684141162176424 0.22362298300442132 0.6724656040764225 -0.16994297698246216
Ni 2.2532680261838745 3.0601439974275544 1.3912907539818546 1.5802665944981882 0.31133745290327025 0.09190871048585461
Ni 2.0229339207630845 3.024157427578532 6.402265152958654 1.0028199644018279 -2.480956684906785 0.20914947197859463
Ni 2.781587706060101 6.315601979984514 10.331656676147288 0.2644428452342607 -0.0769222643793514 0.5591570877585531
Ni 4.650819677364147 2.972434141347595 6.4513325263958174 -0.011149588858916282 1.013675161948777 1.1437084472204948
Ni 4.201074170013605 6.870143442198158 8.485351441236034 -3.1664377274062696 1.4444622110706478 -0.9040075848176043
Ni 5.658498337828723 1.383262840439401 1.2957325980979846 -2.264147382390088 0.6490878485824305 2.6524140416512445
Ni 1.0522994541917394 4.660912693027402 5.090732928083023 -1.1530659771759948 0.7173524372867839 -0.4555598851911767
Ni 4.410884898507578 8.034915743022161 11.090547515109385 -0.6094008144054538 0.8769120141523931 0.7122914778241087
Ni 1.3463007035840837 6.445480036102914 8.678417063526632 -0.6094568644543696 1.012115530771141 -2.3879909939113255
Ni 1.9870841126439163 8.957729191387749 3.4699733145579232 -2.626582168189805 -0.3778837733649363 4.085295746973145
Ni 6.266568341107382 7.09339329001249 9.500866548821268 0.7359489693420487 0.4751516912801753 1.14015569687223
P 5.265554535611043 5.246508185366653 8.794739296981865 1.9093690846943632 -3.4813929795677847 1.7700299486406872
Ni 4.518516379902995 1.6001213567452037 12.54921347943158 -0.9795090575900292 1.6592585969223745 -0.11875745524758258
P 7.488944682546059 5.019811941959991 0.9507338113877978 -0.4073691844185629 -0.13702899986326078 -0.3402469368487689
Ni 3.132773593428901 1.0913130169948728 7.747331353994585 -0.5535423126749369 0.4690324657563148 -0.916691093822544
P 8.718432633937166 3.489648768759644 9.426658722457402 -0.9191683517184427 -0.1806711620332437 -0.34767305410951094
P 6.649327953175234 2.4092858076017807 5.8463551617016005 0.8774131221585276 -0.49263544988723545 -1.0023476527510995
P 6.816943129284795 0.10389332744606354 8.51701816391139 -1.1482289607986675 -0.04670897402076471 -0.6756175194418429
Ni 3.6867862436204413 1.1967471932639624 5.323698329186212 -1.2458108104098995 -0.5343672824083829 -1.3439027668883308
