# total energy = -381171.1906071146 ev
CRYSTAL
PRIMVEC
9.25427386717651 0.00000000000000 0.00000000000000
0.00000000000000 9.25427386717651 0.00000000000000
0.00000000000000 0.00000000000000 13.54456524094808
PRIMCOORD
 96 1
Ni 0.5281774959674026 3.0332270436356326 10.10904014433364 0.8207866319137347 0.5155779176160218 0.9381788313826744
Ni 2.7828063953028934 3.045822110242464 12.372513353115236 -1.4028386219925906 0.5365853731056243 0.2771374099827937
Ni 7.6399027314739865 7.167758937782633 8.7477170381582 -1.4392919797236179 -0.10293462928271305 1.5642895023436414
Ni 8.575426521592425 8.857052581092125 7.354400982117606 -0.28021604890811735 0.6581047073690601 0.22296143816102246
Ni 7.7008698870991195 9.115089496741119 12.435278614134717 -0.09242344533874405 -0.3647289811505332 -0.7515925894165766
Ni 6.681317291109976 6.555098251102207 2.6209815369484795 -1.3147523705766195 0.7066797880642861 -0.21571169857714464
Ni 4.531716070266469 3.225697429593663 6.72510666375524 -0.44649648943732784 -0.22016484925249177 1.1890210551143652
Ni 3.60482651757946 8.319527343185296 11.32905326625755 -0.7951720166694242 -0.07899560196861234 -0.18884444187265542
Ni 4.348860874759944 2.626825610836954 0.7892618439702754 0.4561460967119499 0.5182647204195655 0.6030802715040645
Ni 9.062645527262122 6.39768305420125 2.6340115544227034 0.459803233848563 -1.33504403094612 2.100981833340775
Ni 1.8294866367164642 3.9201381336176375 6.260650395288204 0.35335416365468825 0.21929041706733846 0.3044119294280306
Ni 8.324200751441321 1.9474508645175514 11.919434288826334 0.37843424655176755 1.3109309399480005 -0.5028386156724824
Ni 7.112261057958117 0.527198393802081 1.0275205257088207 0.31835990696769045 0.29104862074724713 0.7785809450799623
Ni 6.321899806263453 3.4791164626292774 5.073563979453278 0.9108181799815346 0.377531275121524 -0.792528665509306
Ni 4.56186649422316 7.1188871179805195 7.118210630567617 -0.9433377498757947 0.41898568561156874 1.9452035778944692
Ni 0.38659265978477486 4.241955504119153 12.80012835768676 -0.23943758143917473 0.21474779200197852 -0.7607279760589415
Ni 4.606203719875864 4.290688509814651 9.988683686761895 -0.18973790022120227 -0.9104566828770578 0.8455766943742211
Ni 1.3447570306920538 5.004961122536964 8.612826743623907 -0.47936495803057444 -0.9492723701926749 -1.1231159677811238
Ni 6.874000525364816 3.2657591807626365 10.13453104144497 0.38026127245817737 0.0205143179032679 0.3664557340336527
Ni 6.5614744457327046 4.8904950102225655 8.291833928915683 0.18686854909320721 0.32365277993551356 -0.42169999921893825
Ni 6.816466705309951 2.4797289291943496 7.233461505298078 -1.1907552641966526 0.45633815811809797 2.6546367603341765
Ni 8.247112650901345 2.2061633421520694 5.6806313830645125 1.793059319656325 -1.0092824321977198 -0.633864603874773
Ni 5.912305649012639 9.290828155715202 3.1253542644862335 2.4090881809012576 -0.16212528071025628 0.3879822952515189
Ni 0.8614840473597196 6.733974108885781 0.4710758504977981 -1.1039568783541698 -0.15789093091393455 -0.5993835393787678
P 8.029859319775722 8.751017112186119 10.29526482092139 -0.10760555239582113 -0.7211219316315451 -0.6690617206011962
Ni 4.146617975696245 8.199527175153861 3.2067298700658444 -2.903444984354974 -3.2724777350871834 -0.08574089111224588
P 5.174119992857517 6.233521491718824 9.281169470176959 0.77055447523106 1.6183184070645873 -0.19721543954517
Ni 1.032971292961887 1.647529105766046 7.147277379065337 -0.3401140108153304 -0.022674558779380304 0.7135371773057518
P 7.12928892170284 0.2896670979821963 5.658661737124309 0.12981705549585384 -0.34451728208934856 0.18312322311816204
P 2.19881544877527 6.427268967457709 6.829778978134291 0.06269943591175008 0.3274209887286942 -0.17657282359415397
P 5.932100540615881 3.8386172359397697 12.435535882945643 -0.3507889740306732 0.07624555002730095 -1.1426913188098902
Ni 3.472768030820103 5.091331259672569 7.944943954477438 2.175142475814589 -1.017949878064731 -2.1293873810666617
Ni 2.528110272486425 5.015816385674227 0.23304112218459108 0.937575650581037 -0.47269345954766984 -0.09610012285938288
Ni 6.4305542346475875 0.9653040431241566 10.046613589734301 -0.5157581519476279 -0.6611072416408098 0.1364499874313392
Ni 4.914880021617864 6.601915622126425 0.8376663229467866 0.73948269352692 -0.4657352830622818 2.1451572423064085
Ni 5.9511735988647265 7.527787204698261 11.179562503989533 0.34843410064525154 0.4327613992394225 -4.00682696404228
Ni 5.397675484423443 5.3683949622015374 5.975997262836927 0.04554812094344414 -0.36707022768920006 -0.7662126533225965
Ni 8.087328359914165 5.28607819697908 0.9309503280191753 -1.2481006348853407 -0.12011705459927055 -1.8159686201543306
Ni 3.101042361853752 4.21448881955701 2.6075323008722795 -0.586161384261539 -2.0291634658468922 -2.0325745484109707
Ni 1.728300407268195 6.137425112846423 11.573844539853381 -0.028759331520879502 -0.9943864889224938 1.0217401983450984
Ni 7.921084585832521 1.0202466665222154 3.5557594326007083 0.34583342979761084 0.4498805754182123 -0.09792380633168296
Ni 2.6937895358678374 2.9000117726544876 8.784164995418308 0.2343005173229255 -0.4510463135915393 -0.059054125849678944
Ni 4.495568876904027 8.510378231232822 9.164726644984368 -0.353581706284462 0.010471074734652934 0.17555852339702668
Ni 2.140309929974103 6.335337011783746 2.383911103962556 0.10416644480728511 1.128337106970747 -1.7986877215866959
Ni 1.7533332178276944 8.569947991518035 7.264735398090971 -0.0550239216443633 -0.9558178846206764 1.1429890525559672
Ni 5.08391858637935 1.421252857710473 5.194720006279124 0.3939840213609086 -1.0587769393834217 0.30895326894180986
Ni 0.38824824936299834 -0.03908357443102945 5.299541314465941 0.3131781056564348 1.245441857106255 0.3001788651832895
Ni 7.12481910746985 5.36915381265103 11.357036339296299 -1.3733665806754023 -0.7014699617285726 0.6019811249026149
Ni 1.8718156849601428 2.1225509786012084 1.5045163351400426 0.4027661384289128 -0.016338075038391214 0.2027386833562444
Ni 2.0701440262173096 0.38541829244281534 9.741576068440358 0.48298995637767145 -0.08288465261037338 -0.7604376985120324
Ni 0.762555860712381 4.210481719012735 1.5982047519763687 -0.1589679660281972 -0.24180299634755778 1.073989642568118
Ni 3.387786034750645 8.68842120437671 5.56841405927727 -1.9365793265605682 0.4165680773090117 -0.8650556290344391
Ni 6.115760857940771 0.12553052203896053 7.679118642019988 0.007355926144438945 -0.0868570069945601 -0.8430444148706706
Ni 1.2669193339763603 7.154932514331444 4.350365619675646 -0.7685220181820636 1.3364108293866597 1.7192792004503807
Ni 3.1482021410076193 7.265169423530986 13.418018634477045 -2.182179070946397 1.6229967863768628 -0.4076833732248721
Ni 6.861784883982731 3.2049493477916675 0.7050229660848938 0.6561072173230571 -1.359263308504801 -0.9858794798927474
P 4.778249923614 1.963127604291227 8.91695642066059 0.4525550369265819 0.028525618243518614 -0.9541129861144277
Ni 2.4329578295390033 1.7970596614112935 5.23444582731009 1.0128398105316752 -0.23180680436679435 0.49786173128318134
P 2.3413590277209155 4.271504400280514 10.52409987567556 0.28638746782615193 0.162830534307397 0.6989695639042219
Ni 2.9974592754979374 6.373140720151789 9.6776864131573 0.8726874345480842 1.267365910872856 1.0383595520693343
P 1.3381124621221017 1.202481825685863 11.558389902650287 -0.22109713125877406 0.7194442868188061 0.911460955771856
P 2.030665294296117 0.22927463275844825 3.8688962943019236 0.7835678567715925 -0.45156361954759006 -0.588155274763116
P 8.74197568670862 2.157994847156803 1.7046779480318994 0.3635514159026642 0.22912103000451509 0.24929056297385455
Ni 5.5358510461476165 4.539683999986147 2.0028080793806993 -1.2720658874516866 0.34045262510167174 0.3507946304576281
Ni 2.214806833857272 8.71996902367332 1.525416187031937 0.2988930564923304 0.47728030758740386 0.14272656446867032
Ni 0.3125695747188505 8.68260026617267 2.9216436376019295 -0.7619860168357586 0.9934266961123859 -2.027295045179586
Ni 3.795307234676014 1.1974382464788658 2.955735456759098 -0.8855573485322168 1.7440540934022157 -0.02674384375274749
Ni 6.8291543146545255 7.0967231322910544 13.129031725617262 1.3800738174922489 -2.267698590076456 1.87025694918425
Ni 4.491848658846756 5.93545058772218 12.167408107173147 0.4988590621994441 -1.631302735139397 -0.9871133522998483
Ni 0.6211736931254106 2.4278309618680374 3.9477936053647755 0.021724793271601293 0.752987155771258 -1.0574692763155917
Ni 8.006834686625247 7.7912101076839 4.411288354786661 -0.63982930609864 1.1829776771337628 -0.7538762432444306
Ni 8.828160738368739 4.475773985300785 5.460220493727095 -0.041961946254082574 -0.18710637613562614 0.8607387468266401
Ni 3.951315781963277 1.7667241519791161 10.956726994923248 -0.13754579159867925 -1.072120193459547 -1.6601975637968762
Ni 5.304716304360533 8.7008867111507 12.954875547458583 -1.0913502453337527 -0.5523493208081003 0.44435913137935085
Ni 5.952608011299745 2.295161693039577 2.952863855606931 -1.3538027996108621 0.38704847058333985 -0.2912139426805178
Ni 0.8318389067511055 7.380607234591687 9.683984871888093 -0.3134809816088343 1.0997510678029383 -0.853102570437621
Ni 7.600572067933183 3.8060144294328873 2.822104668885487 2.2375297798025593 0.9694275049843112 1.5711718312857716
Ni 8.967011862078436 1.1681021986143134 9.38821180406961 -0.8695807705983024 -1.284463489785091 -1.1917556804367087
Ni 1.1643634720094935 8.270646269109408 12.296839305607977 1.2626011424943608 2.0911491635210697 -0.18111313466666873
Ni 5.662708631045812 1.5415028911338142 12.39626999932126 1.4567446279824268 2.1786008666768346 0.5281665529143097
Ni 0.09748637079330155 6.524022399768085 7.363408166782138 0.387040757273856 0.06590225911976393 -0.8720138055198272
Ni 7.199177197246405 6.9232147532965795 6.3120921269174435 -0.0019792352135578816 -1.0486131114765422 1.6403566178115494
Ni 3.4318548864638934 0.9937609349801496 7.39372054052988 0.9535686835751835 -0.06464293279136608 0.48121152432100994
Ni 3.2784467901072114 0.7810061063362164 13.317422827695577 -1.2446142189986371 -0.33145530669906786 -1.0196172384648245
Ni 9.050966633758947 5.185336172671977 10.129736402202502 -1.3394074501211386 0.6453965157737724 1.0184638415866718
Ni 8.664628466502966 7.129048310584708 11.527102128446733 -0.6707622482320706 -1.1059481977525856 0.063651001191742
Ni 0.3939784956840491 0.7855656870248172 0.16727099847059346 -0.12418865356548288 0.044243800309723795 0.08821712056688032
Ni 3.986750396245097 3.373071739449497 4.439624015656211 0.22433543569041364 0.6502751840223123 0.40523336902248275
P 4.731034618817486 0.1463628177323023 1.2456011889098675 -0.19851976017889036 0.5479514488507209 1.3611618110790944
Ni 1.3774893970317768 4.908873997938339 4.045395654580256 -0.9323673669072201 -1.830617480415757 0.20004853811859094
P 9.207548946020218 3.434288760466536 7.664531130269548 -0.5324353554929928 0.07669806418368726 0.01092384600135538
Ni 3.175104314869529 6.165789461964673 4.873835466574058 1.8745352648446296 -0.4460576021276963 1.8722279568676916
P 8.133868102725154 7.596731544316845 1.2054552238495475 -0.08268307812252858 1.3026275622886276 -0.674012122627936
P 4.0541400178695985 5.992382879981715 3.0103069837788072 3.8973972139535267 0.2716344778866935 -1.1254867820061456
P 7.5418444465614325 5.706074157952214 4.391242672364135 -0.9757740160276291 -0.6364765875763232 0.45500658379086806
Ni 5.466582806946931 8.088244533017823 5.335570053124071 1.63591555132106 0.4141119024590353 -1.4751280155856208
