# total energy = -340873.33298644214 ev
CRYSTAL
PRIMVEC
9.20594885721075 0.00000000000000 0.00000000000000
0.00000000000000 9.20594885721075 0.00000000000000
0.00000000000000 0.00000000000000 13.47383670409940
PRIMCOORD
 96 1
Ni 6.359764009286228 3.756422959042401 11.30717621242875 -0.37806220792432954 -0.3327974225492591 0.2365152655860572
Ni 4.924713095229605 1.8532495493975532 3.9081397567620204 -1.7898827217005562 -0.3978136795196439 -0.20621764304378032
Ni 5.043626335652674 0.8265284935870604 6.406701459748492 -1.3578543439724162 -0.24827369167356597 -0.038441591805649926
Ni 5.673239584782859 0.16710454110950526 13.182936147789182 -0.39534644892607396 -0.02978057369654226 -1.000093309499284
Ni 0.819413215773095 0.1773231442580388 0.348580488863313 1.1042998635158852 -2.019141048613884 -1.6318982026315507
Ni 8.256401195295528 8.738148495081797 12.228477186946629 -0.6142923381698001 0.27767939852919277 -0.31517379593022493
Ni 7.997042000247207 4.419380154662666 9.787853122622586 1.571369034898242 0.17286015062925716 -0.9704945127962447
Ni 1.7853556771268912 3.94026575622818 10.464536387877502 -0.8395245746428702 -1.6720503493704042 -1.9918179353188987
Ni 2.674153208278529 5.3232570299199775 3.5595454589755335 0.2969976392418304 -1.4206458253773404 -0.2531482461570479
Ni 7.145399678381589 0.08859344810802917 6.270211301315066 1.645509108546766 -0.6816267017504003 1.9028953040445618
Ni 2.956996778670911 2.2725068688484664 0.20226390069948658 1.7363317850572937 -2.082914434316103 2.409099493755167
Ni 1.500256649282806 8.334136226814643 11.701177931989855 -0.7180960003210278 -0.5252730334165986 -1.372229895967798
Ni 1.9384229875328975 1.4616008703452452 11.756084051718219 -1.1751098443499117 0.5368573958200883 -0.728683546028887
Ni 0.7664707249200307 4.015450739934553 7.903092531137542 0.6180453774543291 0.771072295407743 0.3509890058566213
Ni 7.66696270665201 1.6312112707133368 10.716955218138724 0.8155320683830148 0.6931547569946578 -0.1983464678258197
Ni 5.348554977174184 2.7422956411663177 0.34692802105686094 0.2129822154611235 0.09939602000183527 0.3895696943432968
Ni 5.523919095531315 7.117072973977952 0.8443539722145428 -0.31741245545275654 -0.6276399631212997 -0.13113191765253543
Ni 5.655729870198615 8.071122270099684 4.904139640890557 0.5173794896011348 -0.16207411575734668 -1.8424252716839626
Ni 1.5920215467463936 6.317646793606461 6.968088501856967 -0.5097008900099543 -0.4572910089496705 0.17519316963780796
Ni 6.708430113473217 2.2048063215022364 5.218605645350698 0.8440833976581462 1.4744093922520412 0.06157689227153266
Ni 4.507333789330314 0.7435055650872994 1.8596458426116085 0.4637136246465627 -0.6413310874551471 -0.7194969944336125
Ni 0.4656479365554991 4.427895657286444 5.399815541184693 0.6235364824758874 1.1663832631101914 -0.8547902425526892
Ni 5.407344166098991 5.3820830426399136 6.912186298470341 -0.35375011354152625 0.427216043941161 -0.47863990693909186
Ni 5.07676775126954 5.576825683184128 12.351398697469584 -0.8696977557921409 0.35704781045619155 1.7008233077380386
P 6.814040757905629 4.944561120804595 4.761182303437452 -0.7795245399401544 0.3436621331779049 0.3935973274454512
P 2.999555879892236 1.13033400935711 5.322260025666837 0.26087492537734425 0.06666279143487228 0.1495818968276069
P 2.636003756524004 4.999870461089629 11.994531013512299 1.179097625353066 2.34857752511071 1.8044076547896086
P 8.774705317696956 2.5505633458739685 5.6281700213285575 0.7420031459559285 -1.1618594070979087 1.8545369673458316
P 6.343101241989971 0.9630895378261112 8.389484232084564 0.6078085302176693 0.43213096474427515 -0.3022457750146472
P 8.983091174336781 8.214063036844982 5.341770192921509 0.22365280780109223 -0.613698156229227 0.4985037357425544
P 0.577417360723378 0.8004351523580483 10.16564592816241 -1.5485816046900813 -0.7098350458638163 0.29097225898335694
P 0.0840549153582751 1.682009696094966 1.3263148500125657 -1.5339900800291517 3.3295680523422724 2.5302673582164554
Ni 6.0836591934026085 3.871626202106139 2.9281747942227767 0.07768973867299524 -0.00544276828212611 -0.8157639818881628
Ni 6.02186886517472 -0.02161648833610052 10.559890684771371 0.7485733429742786 -1.0262913080508906 -0.6834706969376745
Ni 3.482785337432482 0.8870539244522393 8.281195577151333 -0.5901275679981385 -0.970037113543852 -0.3076049824440315
Ni 7.134545864767066 6.397057307803984 8.231517515736531 -0.8047444908492076 1.1207058156777343 1.774970323365098
Ni 7.395801485264573 8.540542804466236 1.259082885459363 0.5946557948857952 2.6517555821316394 -1.7538551386530372
Ni 1.9817461825031666 8.62332269591814 6.384900852436742 0.17919303482582044 -0.5535078598925758 -1.0425545639872884
Ni 4.07764612990887 7.807730869484646 11.495352249706434 1.2511229666514323 -1.3177803587696661 0.15476678346265602
Ni 3.1580823179262425 4.784423641733657 8.379998422459115 -0.5172373075963156 0.033725931497535465 -2.322702457116161
Ni 2.2587992111113797 1.382199562096505 2.3623946733553103 -0.8926985875626884 0.03756278874512241 0.1933497859421767
Ni 5.7975659230900165 2.9126056936418765 7.370834952166534 1.0426795196009269 -0.19822254065344572 0.7017898069618366
Ni 1.934271104632007 6.554561885523137 9.85012952494619 -0.22545335134494077 -1.062684244857628 -0.14315953824103086
Ni 3.7530167579928904 3.1806829221871884 11.726522829582855 0.7575336374913599 0.16439427925009106 -0.23987569741785786
Ni 3.8616469536259492 0.7736697768679164 10.671076451786442 -0.25339944293590555 1.4953006338787538 0.20921889176394934
Ni 1.6328223117502678 7.274402638670239 4.176135052363168 -2.740064233971062 -0.7749749728962588 0.4274217321940639
Ni 1.065606983467615 0.46087465211179224 4.262892834283974 -0.13624429917843633 1.2994401656995813 0.7088827092528759
Ni 1.2899375433986646 8.577366599596088 8.659513121771758 1.3317653601948485 -0.372848524933874 0.3353114472203645
Ni 8.722351086971091 2.5579465167975033 3.495382757746404 0.44218217833269 -0.31977375659608154 -0.431378917069599
Ni 8.372838035496114 7.597374939805375 10.082646935129484 0.6705624735164387 -0.6737904935354331 0.5158481405582729
Ni 8.400888561436279 9.071928580087546 8.315351488324026 -1.8246918589599415 1.072460093297469 -0.07529552740920581
Ni 3.4396462614378622 4.767070428278714 0.6407727002442859 0.3589337146249948 -0.20825858473320907 0.5802205932970717
Ni 8.057939351443197 6.200215710937369 6.29283399985309 1.061758904829881 1.8113262362863127 -2.6109262068201033
Ni 1.28921027344485 1.4859229870285116 7.003551657756771 -0.817999813197217 1.5687832764489371 0.0636977952692774
Ni 3.366873236312495 8.619032723785514 3.970793602985705 1.9468421419391566 1.8435907527469733 0.1667154711841
Ni 4.882669527140098 6.920498349626027 8.922333753562283 -0.5667104746257788 1.0883212286994417 -1.052197229283375
P 3.2574329171865792 8.23708711474992 9.569563506282588 0.03836420160049522 -0.0262645901234838 -1.0287112303462929
P 5.491560185560959 1.905852340740545 11.683972013715433 0.6048419913901778 -1.5677000706870872 0.36825370647433997
P 8.618747339373257 3.4774550930874364 11.670094045925872 -0.1479073373386614 -0.10239058385378495 0.6020490020260728
P 2.7067238550708814 4.572677613788234 6.006744411920012 -0.2396764369228582 1.8264988302616931 -0.9829867317259845
P 3.720538170688362 3.1144461206973695 2.259548575342272 0.0059467045017381455 -0.5822281106454037 0.4843775807538174
P 2.3188496150193836 2.7272255030094263 8.721789524095362 0.05969330209557461 -0.6989664785804284 -0.18446328208582424
P -0.008561532367690252 6.177210044929994 8.531161942656908 1.1794580940162782 -0.05376048155090741 0.27942492046538975
P 3.454569104414234 6.722690128137252 2.118828283443305 0.802703806270095 -0.7152937549855424 -0.5406047786776624
Ni 7.5851402338734815 1.765747006220246 13.298811425114039 0.8270688653780207 0.6533656500221781 -0.09963024749982842
Ni 0.08823073372600015 8.390246484643752 2.5294025520025993 -0.4922857798573005 -0.2077289374819842 0.2082328737015962
Ni 4.147804665580018 5.196454291390338 10.294402169023689 -0.6339255390196953 0.18444605569464362 1.1395147208541214
Ni 3.4964653773232217 6.858008369290671 5.556785253279585 0.25568823897008225 -2.1963011121700755 -0.30189559076408007
Ni 6.4422308984795285 6.058333628302054 10.54585069228324 0.8646504231762207 0.7663836316828221 -0.2304667453991321
Ni 1.4047081068696263 3.539061302339676 2.006523993651165 -0.7650582280031791 1.0597223340158266 -0.31319121828255736
Ni 3.5745870586911996 2.8309397219926504 6.770831716700263 -0.6501543421737319 -0.8062033347829213 -0.34704364805562815
Ni 4.766186657195598 4.097484949535078 4.918664786879527 -0.6760582065236873 0.5154676172904026 0.41375117668550676
Ni 1.2853253630586507 3.3813357818497436 12.965643535702325 -2.6660974526756087 1.4874880798128705 -0.5918957156421548
Ni 2.25509841970083 8.375636643925985 1.9785388299473567 0.45704906814219354 -0.4120483350617871 -1.2112371862000881
Ni 8.105156662748449 3.940256550279398 1.4968486070435385 0.07904702403183805 -0.19031125622616904 -0.516330222401014
Ni 2.757430220964686 7.114081040623651 13.311422654351135 0.6010401011455843 -0.43235567916057155 0.9312270826551898
Ni 7.916020445012754 6.731794811483108 3.914324313154079 -0.08919876775385929 0.31644829176727435 0.18439514785205016
Ni 7.614930684133531 0.2461293260530428 4.0913979762001125 0.9047269794821322 0.19683774449077712 -1.1819479503176675
Ni 7.7453789783810265 4.276098767812417 7.339481331803223 -0.6255062046077486 -0.7951861577368112 -1.1033197589908033
Ni 2.2582928839283443 2.92895545867953 4.151114204167313 0.4639211126716784 0.011467634319967347 1.7909669559036703
Ni 0.5151639732717309 5.4569734359852475 11.621507810036668 -0.8975042364814478 1.4619765658053272 0.5014396784424268
Ni 8.069317904138321 6.48552647560345 1.5109963091324268 0.5139612079482051 -2.0682578607451925 0.24209327389446691
Ni 7.537324535897371 5.366791961712243 12.83544656385659 0.4370227456189376 0.19402495763233035 -0.1223441441575764
Ni 8.342384756923728 2.3497539850821108 8.355018080437901 -0.3262552505553672 -2.1085005103153236 0.10886359317263833
Ni 6.792655338883969 1.704996950204775 2.2229401994139315 0.4098680395810167 -0.7232772874116511 -0.4768288218722821
Ni 1.1267897190758618 5.669465145782049 0.6876005999160386 0.15606544766942154 -1.985598179661432 2.140398644575501
Ni 4.418367500296595 2.8544885389781895 9.36874954251634 0.580643025546471 -0.01628099654821067 0.42479972119018455
Ni 5.350681551342933 6.205720868309281 3.1738834084164615 0.10987018006028175 0.43907628571385676 0.36616391382484687
P 0.3700800616498762 5.480982550409909 3.077397700417227 0.27297582240593626 -0.7395989073898102 -0.6518803237259031
P 3.274666453307349 0.12671252023157223 12.943156164611404 -0.20199846275611022 -0.2667046446852439 0.5745001458735267
P 5.886743948945733 4.8075489850752025 0.7676951161080982 1.006665820510479 0.48738191479778 1.0964731683826148
P 4.939322935947373 7.707846325194927 6.744517432700471 0.025090367309724533 -0.0910839005917141 3.363966327316484
P 6.421250541204296 7.492040473836438 12.039155929640406 -0.6560892196009281 0.7112350115351364 1.2610304555731313
P 5.834159569500306 4.6220214992622335 8.998394222997868 0.1470719859215596 -0.6780963199996387 -1.041524322950561
P 9.300493876458528 7.071199731194941 13.213010141271731 -0.9901752790546238 2.06559754030421 -1.299818889195239
P 6.1466739128185655 8.575111142144385 2.8432756933611505 -2.1220561375125713 -0.32966787578134193 -0.3224628733924705
