# total energy = -340897.8120434165 ev
CRYSTAL
PRIMVEC
9.02995037649625 0.00000000000000 0.00000000000000

0.00000000000000 9.02995037649625 0.00000000000000

0.00000000000000 0.00000000000000 13.21624513738025

PRIMCOORD
 96 1
Ni 6.26044645807073 2.0676870413811863 11.474673848614174 0.7922568999051581 -0.34166592868348256 -0.23488775728496322
Ni 4.647399352577063 0.2430799401393678 6.171801242319944 -0.11804628811317089 0.7983005349960768 -0.5440014630640373
Ni 2.6500014440501793 1.450688599748502 4.735459427550747 0.47641795958710853 0.6912081747912483 0.20281273112728943
Ni 3.4315616992924243 4.272665446574915 4.77997256737671 0.18762728163610268 0.06935962154074507 0.06268863727847268
Ni 4.945487040739113 4.392538036328367 2.5041081496162336 0.8842949368800256 1.324476539842919 0.5475092191069797
Ni 7.058387043091715 6.160114680688387 2.686215156588578 0.6379763120503013 -0.6981910338669847 -1.617222345786931
Ni 5.037502233928391 4.388194630251425 11.580813690006266 0.7578146590668884 0.6717477520737914 -0.8408237530702679
Ni 5.5971966111862805 7.782273005998343 12.372083850767297 0.5145677311839525 0.9119412378423842 -0.0907969654789146
Ni 1.9569888810958704 6.262261478073777 0.3886472533687861 0.43655249085073855 1.3494365522223661 -0.640163035288975
Ni 2.7067366215583477 1.502511484313102 0.42789141721575424 0.060378758198373426 -0.4824194285861821 -0.4048808707790704
Ni 0.47911290709277743 9.053247535594439 4.792395069954775 0.11268990889726399 -0.15776057598365734 -0.3037233880014383
Ni 8.473335099695648 2.3262506372380867 1.431927072085169 0.401990693715469 1.2909629814665058 -0.07576861039088241
Ni 7.019224148797121 0.6231947935037819 4.845921003139149 -0.86559684624989 0.28219939788673337 -0.2369281847537597
Ni 0.5804722928151542 7.378516839847976 2.474873685636813 1.2509175355088455 -0.3665434086514526 -0.45450059068872695
Ni 7.687702336884377 3.9793816919532667 3.864932490328321 -0.2288587774820639 -0.918814825033766 -0.5893408104307851
Ni 7.673877483030326 3.863915717928604 12.634095984629987 0.4251398781384227 -0.3048194492790944 0.5089964077437622
Ni 7.773243055734429 8.771106739598459 7.089365190467096 0.22497872570136737 0.18401719568734115 -0.10502467904252237
Ni 6.896787053168717 0.7279991052518416 0.34041467702911826 -1.1253967933955005 -0.08822997608268676 0.3785347766853739
Ni 1.835572169847289 6.659073612471193 9.365440909063748 -0.39463785289482356 -1.0387344189102499 -1.4648975961068642
Ni 0.3460502689888267 4.801287764974678 1.367538108733307 -2.016652220753759 0.11361396337343013 0.8606119914407888
Ni 6.472749618725602 2.0117284395957142 6.939255812254929 0.12992581315957624 -0.5690128975067104 0.5152678425747707
Ni 3.5103660752455976 4.178627544526519 0.321828330400905 -0.2873431468712019 0.6904720679561721 0.08859173029747969
Ni 5.9322348558282645 5.589322494556148 4.798528212174025 -0.2778393211458247 -0.30432142659675326 0.3168480983088543
Ni 5.320717594005776 3.0210150105435947 9.382912959829394 0.05808122041344836 0.010682162304194507 -0.2920114988811487
P 0.29277898040189515 5.49525750265696 12.381295303031516 -0.48241505771080784 0.5713965672475385 0.03255479400756974
P 4.083235149938536 6.15825451093402 12.509334579803651 -0.7749523471884396 -0.588492860608193 0.18434295445787607
P 2.278825338452013 8.389464921644418 1.1644743931884722 0.04316110876850631 -0.09649787251843381 1.3474074376074794
P 6.270650301868953 7.694682488438382 5.84114432954601 -0.13695932296758992 -0.22872328034546416 0.8047460335111043
P 4.719693134389955 1.0372703868157485 12.732662406735734 -0.000662573284663375 -0.4427033409434828 -0.9496132984718613
P 4.065644806824433 6.152448252914325 8.26953634619933 -0.5471371804795416 0.343562374375247 0.10935827342086973
P 4.586230469489312 0.8830415452931843 3.7698940697906838 1.0498025037989533 0.7645347513995414 0.1771423229443788
P 0.15169323148845718 5.6145702354940505 3.6041628776219463 0.7704503455530279 -0.25754226145968545 -0.12828133557761778
Ni 1.362222177012941 1.0443769576734483 2.58442323624856 0.6218637227591548 0.2150828067438941 -0.3203437701669386
Ni 1.985965991492769 6.399977249548722 4.776099621708517 -0.14696348536815335 0.5874739324253753 -0.1290830055433067
Ni 6.091035561169448 5.541400548505559 9.164210273422487 -0.22523815001034114 0.39600567977662765 0.3406953372400971
Ni 8.661347694140591 2.343561051894009 10.10504801537985 0.1791989483630914 -0.03160271450694557 0.6845456751694081
Ni 2.4241714178999656 5.140597176091492 7.1338250535865 -0.6633564426863027 0.7871455468205217 -1.0409489100630653
Ni 0.6675047594488057 0.08892514420896777 8.870888593009731 -0.4423670406499865 -0.36506862387813904 1.1873176992700132
Ni 1.4829526120414653 1.1118487460454105 11.466916218342446 -0.5342798649008992 0.28570689681935957 -0.15889263270557152
Ni 4.133766751615397 6.807110617097792 1.5241770439813098 0.2096438951165099 0.26692524533648226 0.2998271382708256
Ni 5.506003143471018 7.8400646876873905 8.101320111717964 0.26522857436034963 0.368157804326424 0.4111170814967694
Ni 5.20337339032622 2.6839269671917023 4.964219672561602 0.09908697340184872 -0.2715779136171452 -0.811759231604144
Ni 0.6750556038594901 7.343905040486396 6.837490078770676 0.2378167580063001 -0.2696421300470131 0.04702136305486095
Ni 4.954354451898276 4.619505836211834 7.035734509859661 0.7651142780520952 -0.3402441086352914 -0.2444232075792242
Ni 8.235233371136774 7.209566470410154 9.007822370791821 -0.41735303510415217 -0.25361207316734385 0.5531579327523247
Ni 4.485998021559872 0.3678675318214682 10.416277893156 0.5445395949556944 -0.07222383046241755 0.13443295700131042
Ni 8.024961949291283 7.1977282056141645 4.619157280131647 0.31836016407800655 0.11188001140145894 0.7085122132873347
Ni 7.2454876125600025 5.903609913491659 6.911620552467248 0.1030007066339581 0.49413723124374254 0.4453140390934524
Ni 2.4085134841423392 5.201928598283994 2.4586838878086428 0.5717128129363767 0.04212186887071455 1.3799689164832685
Ni 2.379202265585676 5.3250790599832465 11.285021415201303 -0.1513361605145523 -1.0498510976487017 0.584548017027832
Ni 1.1559961728856836 3.4707336235372805 3.8641784894812843 -0.1750371036759179 -0.13781370054808523 -1.0552977225855695
Ni 3.626193247280816 2.5638195987313885 2.5362502575806336 0.3006432064142177 -0.8651741568901745 0.8580480873683546
Ni 1.1196506230734318 3.3674942021699574 8.163344131095705 -0.3321366490368087 0.019070386367889738 0.1234746582175938
Ni 3.763376251690191 2.608653301791719 7.009804104681806 -0.7615633274760433 -0.12032711372754762 -0.3286708019753952
Ni 4.0764807471411295 6.875006813132158 6.089940228202435 0.08214520334118755 0.176602905501141 -0.16243561286182348
Ni 0.845061574483164 7.488926041724849 11.513794302142525 -0.06293931983669805 -0.14443891917408672 -0.029986519059761258
P 0.20580791743003826 5.464212533649627 7.990092796347182 0.2657795617678132 0.7346443915980122 -0.006666356276582068
P 8.648064637302374 1.6930163450308857 7.891539016171802 -1.9200851855602867 -0.05954700632569744 0.29047860717639
P 1.7071572471441745 3.2106078462847236 10.38446628137126 0.689450054449561 0.179376097370904 0.4369931779325829
P 4.077925539183355 6.169993446277108 3.796485467327856 -1.2226387431688104 -0.41761914428134533 -0.7089554714723403
P 7.069999559131108 3.9311527275937044 10.474138202467051 -1.0439563294308214 0.5446421819718298 -0.6517643669733292
P 6.498394677475116 7.899382430971038 10.239285450013137 -0.892765693355198 -1.1398589915674175 -0.17273622345688316
P 2.336969188201352 8.545150294144552 5.817037974321467 0.7231549029011738 -1.3265889582002315 -0.5227332977138803
P 6.964520710098332 4.151095226171846 1.628955168873604 -0.057900728971526094 -0.7653415635715528 0.20207919539537456
Ni 5.415134753965257 2.862792222019302 0.4329328384480972 0.31714660338587963 0.18660552523980767 0.4224327636199047
Ni 1.450697629698766 1.1923417226979356 6.889985694629938 0.8503664024533806 0.41278984121350193 0.09173001881614525
Ni 6.852233278566568 0.8141935925010019 9.272610311365638 -0.05051497803041623 0.04359459676149911 -0.510985670259649
Ni 2.826157713798604 1.685386037057879 9.169602959720095 -0.2983268995762153 -0.3119851137895982 0.0939103142969157
Ni 6.313524505722015 2.0180945545317734 2.5848331959905413 -0.09162588913811318 0.05168508707911743 0.8082910705498852
Ni 4.1340737699243695 6.888362109572487 10.377858163768128 0.8040191826474089 0.15526146371088745 -0.37002519655246596
Ni 8.10506663808246 7.22074554883688 0.02632681999443993 -0.2130063838308396 -0.640353039812594 0.8587052613363793
Ni 7.636656028042474 3.7449732130523348 8.253518117426173 0.1905549968058589 0.2867582209020094 -0.22285987958615164
Ni 3.2039166531391636 8.294244096111449 12.349973114551078 -0.36036119110014064 0.18979035072569247 0.3715760859793536
Ni 0.11377647033028424 4.974978858301054 10.185112069394838 -0.20958450263348422 -0.6805812912050214 0.08075655052377705
Ni 8.756360830817489 2.3663345864595993 5.667363839712021 -0.7714476764692908 0.5610689600692853 0.1173340925374947
Ni 3.604033749333172 2.6154980040917652 11.475083808356155 -0.6642031069573142 -0.43068986142237436 -0.19495929652114166
Ni 1.20003524032279 3.4225678688295664 12.79495100365621 -0.34079098227769694 -0.4186092761087565 -1.9517213244083291
Ni 2.849491105280557 8.403208505946093 7.970003865995054 1.3070439461887684 -0.15527046257195193 -0.12212919993329291
Ni 5.6052332669211635 7.80545288832581 3.7100245965459107 -0.5986507749778013 1.1135463218148178 -0.4689319356227085
Ni 3.0309750456846913 8.332350486225163 3.4950359286825514 -0.07894803656012857 -0.7018183462069267 -0.14016008929307475
Ni 3.277601047292698 4.2496029536008795 9.13307319892246 0.3526265414600443 -0.06310464176996873 0.8496457222372722
Ni 7.104340459984771 5.971822157785262 11.44948389935796 0.6124732826831903 0.3089928639304937 -1.316820565959558
Ni 0.3049739282333104 9.12304905113449 0.5129318768211865 0.8939743689513184 0.3004442030295342 -0.41433250311027353
Ni 4.574003916831973 0.21786922199754757 1.6222278559269885 0.15448936143155328 0.09626878722676324 -0.42221216296866637
Ni 5.979633064763547 5.62670648864875 0.30634738366845166 0.2548472311260256 0.022033068540639474 1.0247841273777447
Ni 7.944721811246148 8.956509678417133 11.444488530871963 0.4160145187983867 0.08448516432827385 -0.5601773014929513
Ni 0.2285823549906546 4.9540022838379825 5.757141411225902 -0.3114780922461926 -0.4357791030198237 0.2244305665073812
Ni 7.908078273075187 8.892758229553902 2.5950225918683416 -0.7974471858568459 -0.059136658261156216 -0.09865091430569461
P 8.553755836746062 1.678785143414958 3.5188388775782276 -0.7564020949900779 0.663812813497431 1.328931490290479
P 1.8878736417758764 3.2053885350321814 1.5643937334717015 -0.6437299267046268 -0.16509104820679954 1.0433626617108807
P 4.844243238380114 1.1896869173203453 8.290629407020806 -0.15254432189004052 -0.9504908159808083 -0.3100745270304466
P 8.515369518174165 1.768190680977966 12.464332919668411 0.28412823947833 -0.059101948368478846 -0.3949204171322489
P 6.4072463595111735 7.846105724413948 1.3318932830615346 -0.5196803698201695 -0.9384325992646935 0.5010316443707307
P 1.803723535266466 3.288707886117312 5.972143624014658 0.879981397106336 -0.5259273791711458 -0.07843073060407783
P 6.856071007428731 3.9084785224810177 5.965694433536171 0.16509541908217373 0.33639053921715617 -0.12964839112847348
P 2.3527264514118813 8.52168145340864 10.21095036908 0.49063153208332927 0.9609639475979903 0.3827362163612312
