# total energy = -340863.7179099409 ev
CRYSTAL
PRIMVEC
9.31175147243130 0.00000000000000 0.00000000000000

0.00000000000000 9.31175147243130 0.00000000000000

0.00000000000000 0.00000000000000 13.62868952616886

PRIMCOORD
 96 1
Ni 1.5826066470154563 6.099374100197798 11.373550101736734 -0.11297890089259252 -0.6872314495316875 0.4836000791578446
Ni 4.527438720304099 2.4503501378901213 10.852362063279573 -0.2932374008684498 0.5887139754800635 -1.2546505201887166
Ni 1.404277295663987 5.042574120341414 4.683199179750677 0.3686378292866361 0.5088853360871946 0.7552070462407123
Ni 7.414202711767889 0.4594883735804004 0.9926438749563072 -0.0580663080151129 0.6037341030379796 1.189420861655945
Ni 0.7167208505481129 5.353670423370041 9.077074793631624 -1.0706436089140206 -1.2719095643794804 1.2514047595579094
Ni 1.2171948979822802 6.822897185154675 2.0795878564938026 0.13181017466648268 0.408565004498877 0.4003462161335105
Ni 5.835888782154814 8.185215728942012 1.8405132947856253 -1.167746462006305 -0.2994072771245876 1.7287920250368225
Ni 0.4395919543316571 4.59397118416532 0.7088924611333992 1.8056101597381418 0.399101545093132 0.020864245043518907
Ni 1.3571598335033461 8.509022572652313 12.641372992163165 3.2931612315784635 -0.4278873589765728 -1.2587203193827161
Ni 8.303894000728054 8.52553230791137 7.032390174967214 -0.1193719489031299 -0.09891805192415222 -0.18780674463676042
Ni 1.2788386923505497 2.401714860248812 8.09308339809027 -1.3828824905856376 -0.5297698928456877 -0.2487647723773716
Ni 2.477540452022349 3.9651392993490666 9.887996115020782 -0.4874636758783089 -1.8055337979742518 0.19337806807695085
Ni 0.28929283709006165 7.418206764876401 5.458330784575721 0.6478719738974583 0.4491904913297232 -1.8035939006390616
Ni 0.2770776815836725 2.6147770443787772 10.253435799308203 -0.3597932344118126 1.0061991652867057 0.44863281905404023
Ni 6.158578215695298 5.107393221942249 12.17980996036747 -0.03544317129895831 0.8465868808062904 -0.6414223616173728
Ni 8.49567883287441 3.2556583355262303 2.235541069194675 -0.6364233657408845 -2.748606467114118 -1.667493840347973
Ni 5.494389610755734 8.761454841765518 6.916941218571947 -0.6186097345982314 1.9883276627774529 -0.09034805086695408
Ni 2.629154388563763 0.8049478328563423 10.267023506973185 -0.38702070266919797 0.11156170883009173 0.48799075202637254
Ni 5.790931646322487 0.8917305625200824 3.328725786530601 0.5233920143438019 0.13582932312820478 0.5254111016563596
Ni 8.559510888825239 8.589923068947106 12.623055845954429 -3.091414479821844 1.0360460734448094 0.49886086197165697
Ni 2.4434873770971586 4.801716358237236 2.645764690738101 1.022857085558361 1.0414525891723614 0.2553797065907279
Ni 3.661119927395951 5.717415368899906 10.44021649624406 2.0511836788717255 1.141133744514783 0.37179051598300483
Ni 8.902816539998856 5.245551677688776 3.001118817067778 0.6785341788680056 1.8963389909832822 1.11034375571712
Ni 4.4327661436663055 5.960023740270131 5.856765728827572 -0.767189158303253 -0.15076486139211454 -0.14612761973041932
P 8.918721011415926 1.9352612966098817 0.06925335762472701 0.8647201000718914 -0.16348488006194425 0.3053074446591065
P 4.198016890490464 4.245665122481768 4.040606388693121 -0.3472688766925568 -0.2155270933701643 0.7861456448010977
P 3.1188500837348987 7.171221870341057 3.7048227703126573 -0.60929745605837 -0.688534227503511 -0.44786174521597055
P 7.251824390590564 5.229786882542934 1.5113810604410014 -0.4172651033760362 -0.5551091429414247 -0.527001071851299
P 6.960999770392712 0.8677751508294766 5.274820374736864 0.19961607856686267 -0.9172405385681107 1.7197337714892962
P 1.128779818295465 0.018134635880997667 6.951190771451995 0.12513584797010063 -0.19702234969775748 -0.06377672813632887
P 0.5912124090990618 2.9196530974620867 3.8735051471980353 0.4505922567732562 0.05292435880285724 0.8891316961470366
P 0.5743106491054295 4.25091695027991 7.093787207922983 0.3338238069312444 0.4881671297032366 -0.3379645685724954
Ni 3.9797121903137707 2.3857638300746657 2.285845012689579 -0.026886797088514984 0.9843309044587046 1.1011397206203488
Ni 2.817903589748781 4.278116576163553 6.490404339724324 0.00839413760096619 0.7307895366282963 1.0128922610361653
Ni -0.030833071285832847 0.2617756804831624 10.511522163880684 0.2918286934463813 0.3263403540700057 0.22744878450841474
Ni 1.3717885949765414 6.397638809776353 7.135709643969113 2.365442933407481 0.10971514253965621 -0.12969107144095082
Ni 7.38223546915969 5.1397608698612975 9.565827208384405 -0.39414625797038577 0.9300716288945079 -0.010744897221329883
Ni 8.261432414274985 1.1862519480297489 3.6442163050520358 1.3594106327159428 0.09052160033034087 -0.5895141027838557
Ni 9.165975946742309 1.7656384328315746 6.265925948359389 -1.3300584048060704 0.001752978135364723 -0.2893910305391661
Ni 4.818170222987801 9.025489553141995 13.532716185824379 1.6631167943262004 -0.27195997954691226 1.2214856034009738
Ni 7.683461315688262 8.107024952309027 4.2486895793414075 -0.6356918868914988 0.6645252661834233 -0.1504002789638442
Ni 3.686932102318737 7.591023559390103 11.997866718291782 -1.1699491260845787 -0.5592874426888303 -0.31792641897469764
Ni 6.6563937581004415 3.027157267549952 5.1474877611855865 -0.6167284584151185 -1.3389289678228231 1.3902026783961348
Ni 5.111555574824819 7.901291116542782 4.249861928844575 0.5655750754697549 0.030029456482554735 1.1192621412526724
Ni 1.7209885847959476 2.7068982011288205 12.732643986009005 0.13497700243023852 -0.4350579085830831 0.42917111078500286
Ni 0.38961392213628315 7.71962815818469 9.072659161110561 -1.1580485179922506 -0.02438279971973865 -2.4060915601667787
Ni 4.9543825226885625 0.15147053556962087 11.278094406804925 1.383845111609223 0.5310014512599436 -0.9867793659991972
Ni 8.693488368186365 6.890230459637598 11.087824596613816 -0.28849577241840635 -1.2470837635850522 -0.28934166535846945
Ni 7.586805335999042 0.9107395718589624 8.32777026253163 0.48127143102466785 1.1937991932292988 0.6235141138783842
Ni 3.1418128627246498 8.143946046670083 6.142055443984263 -0.6394654950013181 0.01102051948021973 -0.43470643878093523
Ni 4.467042700625459 8.085989705862213 9.352306886084815 -0.6608334191541329 -1.4315825268945024 0.7895929799197499
Ni 0.5567403053601897 9.305456671189788 1.0029091497163647 -0.5730634134270001 0.4656386095834174 1.4326845017094294
Ni 8.037447545735054 3.356262497815472 8.011802051162599 0.47253739358577973 -0.2276400745836144 -0.2639453367725519
Ni 1.3787724085379012 0.6314298634610791 4.779431474750508 -0.4946933608575287 -1.9030187169963033 -0.43996151653228743
Ni 2.8934591407312795 0.743157843990855 1.0042193131404757 0.06274674420991774 0.41061340238747346 -2.0748607107736916
Ni 5.91035485822174 7.183559940966126 10.958624976903799 -1.3419075908351727 -2.010446863273996 2.5881901986751688
P 3.248730392473361 2.8456991677229935 8.196225943815282 1.512556592745724 1.4191196185408013 0.5048780147000143
P 7.127577691458265 5.374491499534309 4.236683007066718 -0.4284180346690622 1.7226434889369235 2.1919965712574507
P 2.233768111725231 3.300866888646766 1.2871149770083319 -0.35320863921575946 -1.3119344415118501 -2.0120782282298313
P 4.235170778636898 0.6739612880497605 5.095112884175954 -0.11899656784158216 -0.43436628183269704 0.33384720397001216
P 4.368449876641889 3.995849455516219 12.32311595229629 -0.42258728691989805 0.9952208118983313 -0.49012502476055586
P 8.926794299892858 4.656927935483125 11.197576623493296 -0.5442210352740111 -0.41000919314457135 -0.2637879852590812
P 3.2611802041154117 0.7103516125801528 12.545412600304656 -1.5888651348004765 0.77858043085933 -1.9111781128786438
P 1.4902992552371097 6.540527635241775 13.505458827081961 -1.150243163015219 0.9824534849303339 1.0493409907815026
Ni 6.905064079641926 3.2277044577779606 11.105133280144289 0.6150153323787537 -0.12249789612662129 -2.2731572991981817
Ni 8.034756449576076 7.334205455360365 1.9755606943843527 0.2659348563987549 0.18740359566107082 -0.7040503208612391
Ni 4.886071514307048 2.097434759256072 6.879012592707772 1.550076186957737 1.1445671956763643 -0.7690871466569141
Ni 3.055558109366148 5.188386835751192 -0.018753867350104904 -0.008153225234753701 -1.0296247432994978 0.12140054929738447
Ni 5.231388503786338 0.7290803382014367 8.926232801282525 0.8764150199113164 1.4993953727734175 0.6836661007779323
Ni 6.365904360953533 4.733731261155252 6.8700584125469675 -0.27998079296885975 -0.18868477636633957 -0.1423226441620323
Ni 3.2843664651391267 7.782454544982684 1.0530985586688624 -1.129518528873358 -1.6812361296347307 0.45428796045728853
Ni 8.67421304275701 4.029567307390465 5.2236588189366255 -0.11391606799488123 0.5712980939964613 0.8623503142881342
Ni 4.835834615422333 5.977082868862679 2.7494789780000026 -0.09081830563515327 0.03405503270218006 0.004250033525605584
Ni 8.141487744296484 6.140764835238124 13.36064060672332 0.13137308712906406 0.9694748132824788 -0.5602706325377061
Ni 1.7551440889867045 1.589059690746153 2.6669303017047294 -1.6000448055663798 0.36538127002255133 0.7646165124800703
Ni 2.8030234109873775 2.250650317040891 5.497199897332825 0.1818106749543256 0.11649462735533485 -0.615877680379049
Ni 7.305748743035677 8.18067159425142 9.80458796406989 1.7846176166468748 1.9860982592263021 -1.4334375778253698
Ni 4.9176942221128845 2.089473211796122 13.230336613295469 -0.8396194483495216 0.48973318863877585 1.1581019969380053
Ni 3.225506884443986 0.8176639605888661 7.764264038593195 -2.1810850665512698 -2.1833568933045817 -0.1348222220199291
Ni 4.552291784831124 4.641861521693418 8.488560930092671 -0.006154449637170046 -0.3680809283419016 -0.40198452306788185
Ni 8.391741063578545 5.974596631234836 7.216950019190558 -0.3094926863850476 0.015831310605301768 0.33432902870243714
Ni 6.272284012225651 3.792909145174518 3.0820053457354475 -1.1673978204176347 0.568628260473782 -0.6119778311040105
Ni 5.101303336516742 4.1978585907164065 0.9383451901043054 0.5688167223355042 0.09907000412098423 -0.3973655362386318
Ni 5.137637790538644 6.4325113188260765 0.1990535853010191 0.26901118133123353 0.7827849558589809 0.09433403209789559
Ni 7.008675937638261 1.588175074361714 12.631069539222306 0.9788845366321527 -1.6680509984030238 -0.8579077051357484
Ni 7.697810724619003 3.775654469802252 13.360558663310867 0.20335626233558524 -0.16058698968885893 0.35291424790379217
Ni 6.53420495603089 7.071576818447575 6.05191489676022 1.2237242629235052 -2.7716733762359103 -1.600209099058386
Ni 3.6461745663746408 -0.06959696125194591 3.0331605536872965 -1.0172081148026997 0.10142744860956728 0.27832268854014647
P 6.08837692177651 2.6530669661978594 8.81676757634663 0.3497721027303847 2.2877848193033694 0.07306303853426127
P 1.8294891122852337 8.050297762687956 10.415044038643494 1.4642463356761104 0.6715276656431853 1.2821024457520824
P 6.499825969806169 7.174499606839189 8.207482920101052 -0.14971713685389054 -1.3452844777272057 -0.685003074421801
P 6.669895797652404 7.938174963898177 13.483339692770421 1.1275287521368387 -0.4434538459562621 -0.5471875741015028
P 7.113610064335546 0.902231424590943 10.496871054204092 0.01842246837124569 0.6754231440428498 0.7529521887682645
P 6.0156428314728005 2.2531551781715655 1.6422847306599881 0.935044399518751 -1.5328896478761214 -1.832416995518341
P 3.344976655100315 6.936491240668046 8.11130556443457 -0.7287779055149062 -2.1589157295430814 -1.9229365389661528
P 0.24912194148511993 8.552871610066237 3.1442748897988144 0.17781029554568087 0.36967886895664076 0.571991263408744
