# total energy = -340866.2696067136 ev
CRYSTAL
PRIMVEC
9.27867364477931 0.00000000000000 0.00000000000000

0.00000000000000 9.27867364477931 0.00000000000000

0.00000000000000 0.00000000000000 13.58027678184189

PRIMCOORD
 96 1
Ni 6.863100834261245 4.288417367316596 2.6297932209613535 2.4577920738648635 -0.03596022014469291 0.2317846928796073
Ni 8.13444613443647 8.752925402331782 1.1230572500702722 -0.34511994867035406 0.04545556122963784 0.909921122088562
Ni 1.6512605909813565 6.887587253908025 6.928236195109455 -1.4098052831184107 -0.49799234332377457 0.7742607204380537
Ni 2.227596123357277 7.442526164948033 9.563176296320172 -0.5140375697120955 -0.6176280874112524 0.05040313504290029
Ni 3.7369765162261275 0.19759121017889214 10.165054161399258 -1.5994182277259745 -1.8059955681020188 -1.970121938402704
Ni 8.69635332935474 1.54017631056785 12.290435488443201 -1.1227213034458665 0.4152501298285365 0.7743964746849695
Ni 4.625400235346809 4.46192856375266 8.252747367180884 -0.37124389945091546 0.47343393725812016 0.572511397578272
Ni 5.7108287524744705 3.216600664369239 4.476805989012852 0.5758977975520018 -0.9468146526808017 -2.3362251741929443
Ni 4.228931790827205 3.8820485780591683 13.118955162894853 -1.153970234157819 0.3434271343489634 -0.31795547244042016
Ni 7.325345795975249 7.886390074248141 8.583074642633365 -1.8243231627666128 -0.6552240433871555 0.5501006339832397
Ni 2.61582510571457 4.34170478983704 1.9159050638428616 0.3441886951053363 0.5702411134868566 -0.4120509061649484
Ni 1.095134009719754 5.682426732565872 13.272941246461377 0.269298116444033 -1.1376804958588602 0.6825723534931212
Ni 7.123887234637289 0.7442368427496727 7.743731395420074 -0.4658263001141913 2.3700989441222537 2.107035752844339
Ni 8.31662361202073 5.9996831405092905 6.641448167686738 0.5860294866693649 0.2683581211282669 -0.3211706369436082
Ni 3.55552277518315 3.252741098065414 4.85761110461782 -1.1629492977279776 0.8075469932950092 0.9940314195759203
Ni 6.6340289402712145 4.463487380918503 5.946070036545268 -1.7351182243651664 1.5181837091245143 2.349916812747424
Ni 8.883754700179296 0.7240046949513391 4.9460043887273475 -1.3007943657346306 -0.465437806426521 -1.589446204114927
Ni 3.581066963621037 6.735027302474775 2.422653327774314 2.127998471138935 1.0535691699302372 2.3487605876557938
Ni 1.029682246101572 4.491147106938604 6.590643718223315 -0.2558612742128368 -0.8863114530894219 -0.32893382582879477
Ni 3.443557020777054 7.400855641782559 5.245123773372712 1.7183394622449308 0.8940584440246925 -0.34030941465558806
Ni 1.7452442759386237 1.742117362933332 4.838733643165991 0.14277901497316056 0.16237390638595262 0.09490815943381074
Ni 8.290754670006628 3.535369496110469 0.5215217680472548 1.2312982186160215 -0.4276269062263345 -0.05778991442527466
Ni 6.657383361738038 1.5106608498265068 0.512556713608938 -0.043377081434054325 0.7204089647249207 -0.12230917715458292
Ni 8.796692905732257 8.915265075745973 10.624597173359135 -0.10405691581261434 -1.0162053845697983 -0.9924725597292328
P 0.7587245637184038 6.071583582283786 10.957178238630563 -0.07085111848460701 -0.4594281098973313 -0.16292540801404842
P 4.806761189653724 5.6364880195415425 4.781873003439797 0.6090999953355833 -0.31042651105322666 -0.5608157064078986
P 5.857209107285987 8.745929282432702 10.058517358920152 1.114069027087507 0.7014776750380565 -0.14563602480598145
P 6.435511718466423 1.2023676405866843 5.350153719258169 0.4078898328087233 -0.07560431689887626 0.533489764899436
P 1.737041928470737 3.279333776620802 0.21665146150076184 0.04948422277305672 0.09936079588852566 0.09070954797143088
P 6.839115462989201 5.534181364359508 8.358890753899084 0.5812387501489409 -0.6566201524037336 0.7916573186479463
P 4.982786906637071 5.899686875055201 11.974299944271413 0.4444699459256023 0.8722560034376204 3.308326883575309
P 0.09777031165596023 7.136153641144695 4.874748814768482 -0.28719916509416993 0.24322995860207144 0.639571681561879
Ni 5.5218964005048905 8.96003467589592 4.040159032043651 -1.2276917322116856 -0.13891747513522526 -0.19565760813974692
Ni 8.120444615964704 8.486376945646281 6.51777272718961 1.5826744326087323 -1.0096336448895513 -1.5560971963408363
Ni 5.021256287408404 4.935911047578514 1.5714825553151914 -1.1269471686017558 0.15482180507030754 -0.3322034977190021
Ni 5.236066860065694 2.540241030518411 6.719982861089671 0.08468031105821545 -0.7342787807284774 0.830148532744609
Ni 4.91383708306935 9.151630007190482 0.3669242198900819 1.0370369766031688 0.33578941529804746 0.717888255185596
Ni 1.5352864495773793 8.711635304784162 5.4563240141298275 -0.09585869627253814 0.360891609682314 -0.5859194434540619
Ni 3.313813327741466 5.23003572222166 6.351495184696943 0.6304720332534561 -0.2883602752818066 0.5559964306423845
Ni 8.12371070907409 2.3777900130209444 6.554995982095629 -1.3527928702891088 1.5386406914272854 -0.849619239874711
Ni 0.6293520176270643 1.2260653729769362 7.086310462266874 2.320104871592314 0.23238504546776756 0.2014014526020596
Ni 2.7734512129368087 8.657327228167034 0.819635344473708 0.9787600952391466 -1.1628500531459522 -0.6701176726695363
Ni 8.596663260129654 2.752824721510211 3.788095512724802 2.644263901740285 1.0738160931047311 -0.831740045601445
Ni 1.4214278457556173 0.8893218947257625 10.957259890958298 0.25329351348566054 -0.45082519871966875 0.27747011073186406
Ni 8.397505809846034 6.792861275062261 2.8153546308097983 0.6729538565667508 1.3525696985347093 -0.0022988233365057184
Ni 6.414978013775888 4.673918419633664 13.14907559315532 1.018308032735098 1.4960354551622492 -0.1070872179985059
Ni 2.046346513133636 5.694303434781816 4.290267534833673 -0.7472258278074486 1.0931711005925755 -0.21774801228088306
Ni 2.7088809233112165 8.965509093323583 7.852727046404823 -0.07414547296516263 1.284137216793924 -0.9516971775840837
Ni 5.290875985057557 4.289168939878698 10.70086415893271 0.4417623171864521 -1.3856261147690458 -0.5030859557965981
Ni 5.559261619117085 6.59935453700482 6.93097897102745 1.2092656642960142 -0.3333954611445742 -0.8243766632578382
Ni 1.3037185923872796 2.2476844517147145 2.054247303709321 -2.1287150375899855 0.19231440269912686 0.07136045402085775
Ni 5.836072288811049 7.027342635764709 0.32201822323812346 0.7516517247892862 -1.1571062086836394 -0.11955398300694894
Ni 4.967022440180126 1.8166807840328087 9.286274695624869 -0.8312119410121168 0.24598103898464732 -0.9834898966146481
Ni 1.7736091811527976 4.880879234420104 8.974620750804876 -0.130257228357066 0.7659079775979841 -0.3796704329517138
Ni 8.246003627203892 4.53501667574875 11.183806129992718 0.30232882164675673 -0.8063210913077081 -0.5660566430918638
Ni 2.3668597355128327 7.439937415011901 12.08347189005468 -1.8872570832866724 2.547012181774962 0.4149521389721434
P 3.1111856535291254 2.282692887230932 7.057819367091656 -0.5677911092844673 -0.3327449720447689 -0.9248880278110393
P 3.293372409786993 0.07649802454637084 3.9292491906939415 -1.1082938151666268 -2.137181423189784 1.3961442406915503
P 3.1730651278089175 0.3371860709821895 12.210529407081271 -1.613937504388072 -1.0099174946785574 2.7809771701353396
P 1.651603901904786 6.654878119864362 1.9054619166990758 -1.4712932152205629 -2.1687941649990585 -1.315666654860773
P 8.07351308486451 5.7275860370072795 0.8651017730114813 -0.6319411615998148 -1.0540617932959395 0.6893785777816772
P 3.1771013508276176 3.816439076989681 10.0551492004011 0.9898523484975661 -1.285802520311489 -1.5629635844433662
P 3.742395261612152 6.994737376712499 7.741898857382848 -2.185860890673358 0.738466850667896 0.9243095295997502
P 0.12204053820771499 8.298567313183053 13.11957961762855 0.8108243784947005 0.5707121395860042 -2.1799175286057295
Ni 7.026451883098513 1.5339781565989041 10.390364481109332 -0.15930760875580305 -0.886025289307571 -0.08223956282720676
Ni 3.3147040804076617 1.74948462977666 2.8341903382303983 2.197386117704138 1.1377499156442148 -0.24212361291177012
Ni 6.570878287707372 3.2330981460410744 8.773347762939043 2.5087014591202217 1.6633001139816 -0.9015087296551507
Ni 7.2358808250642035 8.845443056859267 12.5202951418224 -1.0108891145632073 -0.04642563845239102 -0.7865449371220454
Ni 3.5169420503285425 1.8333174458087373 0.45610711912349783 0.060901463471062865 0.013804767093576224 -0.025638526503710686
Ni 1.2951822126695693 0.8459376005452222 13.527680735248255 -0.6386208876128356 0.6172905015661756 -0.15225507278439585
Ni 1.2861262272299119 3.3017974454214287 11.762556901108335 -0.5074601736048938 0.8025107164226823 -0.7539639178622306
Ni 6.877371434267591 7.384089078576143 4.981679960875851 1.2343485754065708 -0.39944864401990565 1.6184860429907029
Ni 3.4600266664280706 6.255338434381102 0.22952933259881608 0.18098560794986895 -0.4776433473537774 -0.9498740083324156
Ni 3.474677692052271 2.2419038380580476 11.409482957310237 -1.806864086749901 3.0683483420309994 -0.5411303121638293
Ni 9.166290311488288 3.3937676582061487 8.572535925151435 -0.10640484721950062 0.24195931941976392 -0.1364859828755972
Ni 8.284176090419827 6.5573685389367355 12.483683351507029 0.5116886098639445 0.3964743918829301 0.7928454254187766
Ni 2.9421374990976457 5.450868154049379 11.293657274683959 -0.7335524440854141 -1.140995676275022 0.20495034629558254
Ni 1.3397105673057552 8.625816852600355 2.4879473539411903 -0.8821691487862743 1.1774366927108755 2.09485360895585
Ni 6.180487374399833 6.5330676927620805 3.1656978609655892 -2.566613758055973 -1.0056304372674294 -1.824753308325496
Ni 6.9141613751162 1.585511909807776 3.1214265255882956 -1.30725503375831 -1.935397647547641 -0.7509032766590359
Ni 5.295069945527563 9.07898727152749 6.936724325724413 -0.9490736239183075 -0.4959845688651264 -0.8546442038931281
Ni 2.2376263695255867 1.9933467294949836 9.027177013845153 0.0010294697057788723 0.7309054933808702 -0.5260729036100746
Ni 7.083228086894891 6.7290703940195895 10.634266479124163 -1.395793799330667 -0.01865952408271625 -0.9871331497941903
Ni 5.189497197236143 1.1412675748898133 11.908925193644162 3.8034074525689268 -0.09898721459919081 0.945099469761908
Ni 4.686602366453348 8.167079229509499 11.823735835530858 1.1383973194202266 -1.2344766163440029 2.5132955062488067
Ni 4.606527413231785 6.795524254387241 10.181798455789018 -0.42609375741125965 -0.7723922997707472 -4.614657091526504
Ni 9.082902871789308 6.395168045626637 8.989613231617787 0.4364900130439192 -0.38167357942467167 0.3824245986580833
Ni 0.14329705157217384 4.751729376495313 2.528565675519721 0.9938002774017208 -0.2130218104498073 -0.360056001154896
P 8.960127462631982 0.7853886880605598 2.506389645600887 0.22699498480044777 1.2460499230038993 1.501785213161833
P 9.035850717932234 2.24219147693984 10.32383546348547 1.01669672238392 0.53474137791835 -0.43810595138078745
P 5.413827689013402 2.8172929457261353 2.038372421036462 -1.2069506430095922 -0.6754434557578238 -0.4486040226986338
P 6.553953987049652 2.8543426894357187 12.115603008885612 0.7123475278730248 -0.6319383333863375 0.46424558589063275
P 6.193737320309497 8.414745585406367 1.9880170593755784 -0.6636960854139086 0.3395100586827443 0.8087939783282329
P 8.501362003520306 4.069255096737995 5.321037241481893 1.4626165133821716 1.5122282628720278 0.9844769431182658
P 9.225200610214094 8.98640466628476 8.279677789455537 0.6417789736258431 -1.2413975118335523 2.036526591080183
P 1.6429932927982263 3.730667018173907 3.852085885250006 -0.20703911050381119 -1.917378071041769 -0.3174571926477629
