# total energy = -340857.4768609539 ev
CRYSTAL
PRIMVEC
9.38101289754699 0.00000000000000 0.00000000000000
0.00000000000000 9.38101289754699 0.00000000000000
0.00000000000000 0.00000000000000 13.73006062287384
PRIMCOORD
 96 1
Ni 2.7383926768508258 7.9792737023231455 12.716974088417786 -0.17481547458341506 -0.6027542556232135 -0.8550522379648242
Ni 3.698276665918375 0.23832650572759428 0.8565521333612588 -0.7785619189165689 -1.544445728144837 0.04462046692285219
Ni 8.992179175589692 0.9505029762934875 10.390717445769814 -0.34255733014950035 -0.6182842329380127 1.755610173670931
Ni 4.648770261199089 1.8698140851132197 12.214563630188854 0.3753764335620503 -3.1497134726730533 -0.04089853798657472
Ni 4.720037815243636 7.855266094462823 2.7313071979025767 -1.089053735990092 -0.11094772939517666 0.4251833297818484
Ni 3.153455587039189 0.7236335014668549 3.422272260485039 0.5977028092422352 0.2637974983407779 0.08825157334924157
Ni 7.453411650260339 5.459336669941896 6.302976777320937 -0.19451860943929725 0.18328340284511013 1.9011914339795772
Ni 2.3739215685529773 8.864278447428134 7.13975467385575 -0.6739517017036458 -0.6166448975623766 -0.7660357614251
Ni 8.646366901699452 2.5888968572833773 0.5534947632900834 0.03334823644314257 -2.5481195559065277 -0.5208810749964901
Ni 6.060650207746483 1.0078115833302308 3.1566920364462403 0.2570727780224347 -0.0812399179180988 -0.9725660506132928
Ni 3.5362196702464574 2.3488930264717807 1.552265864609951 -1.7324735876534678 0.5225211817030743 0.6976850407648436
Ni 2.1975303853622936 6.135491927657947 6.195538852323439 1.28031012973835 1.8551311492864049 0.602209181753021
Ni 8.218789720470491 3.7279488093227324 4.510557923796282 0.5573663144067175 -1.1028461617884942 0.5357597918805355
Ni -0.059843356688294894 7.636547781635572 5.682240790668932 0.216482258194582 0.17568399323129746 0.8224707044843771
Ni 8.654359524582953 9.271977262588857 3.8170806259929253 0.29827239218919605 0.49458511741443856 -0.5924019658546119
Ni 4.492210539012771 2.730456340043969 4.168899562362396 0.3960601871636469 0.8968666028974489 -1.1371711603226091
Ni 4.778884908375325 0.32490293451813307 7.630344117888085 0.11605496871475496 1.077354702385609 -0.5406142917593594
Ni 8.353444777829374 6.583576002811008 9.610149639675901 -0.9245296160303561 -0.16055099424460093 0.8864415509093831
Ni 6.788504226860388 0.7963082074275115 9.384400257774491 -1.0087959794796046 -0.07641575705657808 0.16414976733945277
Ni 8.49762156315393 6.0873767131397845 0.6807735303047214 0.8543557261184319 1.1863905594700535 1.0265952124445545
Ni 4.4602588095043165 5.408341484502097 0.499096146415854 -0.028477795724718695 2.1319839381492445 0.4709402243019889
Ni 8.855929346059218 8.100748436734472 13.329884434213666 -0.6510969085926593 2.8992720839242065 1.1134200806495986
Ni 8.567697728576169 4.345829215686312 12.743542054695205 -1.3736221483296343 1.6981712148271721 1.6097113821218665
Ni 6.614523963952638 8.140983600522421 6.4273024015143 -0.136693470900713 -0.21455470215456593 0.9636888027283209
P 2.294192340986226 3.006858500418925 11.66725658292454 -1.139225985969109 -1.3704180395700398 1.0793267385103154
P 3.7461104500533158 2.521006467837492 8.054835884015658 -0.1502249297282445 -1.152220598456564 -0.03970965988479613
P 4.641546881363061 0.3635114306910617 10.545002272358422 2.7226221272352142 -1.0110618926956456 -0.37821416012116155
P 8.006000207716447 0.7965905759120107 12.879607078274029 -0.2743205093592888 -0.8600491769587834 0.12529088549072614
P 5.0781579778934445 6.577694107801671 7.274405978809524 0.13057501670780094 0.8600972565878995 -0.42229855203488564
P 3.5937252785514566 7.375521101197303 0.966521055605198 -0.6971775050008058 0.4281300711149982 -0.35425636375398345
P 0.3803991298869277 5.11844942775804 6.152563494704185 -1.3468430804635771 -0.19726609027744735 -1.487806639494554
P 1.618703135177134 4.837835192647529 9.129419640069106 -0.48850831509273934 -0.13057013161179448 0.15774283537184447
Ni 9.425103534099868 3.9929530391772037 7.8854344934429275 -1.0948559444941661 0.0418264491174828 1.576893307150581
Ni 8.212757729256769 5.9901425157366335 4.259764990193236 -0.42622334101058856 1.285670879829631 -1.0930098924243625
Ni 2.2715653381751895 3.81845682056688 6.818924975084116 -0.112717933921722 1.7209419328647846 1.9888220859153685
Ni 4.886091122357303 8.66329024874386 12.781231211616277 0.5358281832246256 1.7466830463846303 -1.1629811794071776
Ni 0.0391009993435669 4.845668338313871 10.842862561352769 1.766612695429022 -0.40167290536473405 -2.4817262160829583
Ni -0.10864619944279648 8.800937849177668 8.917413441881695 0.13669861310703557 -0.8024544092634504 -1.2700655691922063
Ni 3.5577866186140255 4.58006372364186 5.015810828895752 -0.834813542320446 1.2460506943348475 -0.6700351402580589
Ni 6.911076539766278 3.1787655595036077 7.340886402035467 0.45837832847657833 1.7016972257025595 0.9719692975695582
Ni 1.1866605918677187 2.5048523638405578 9.635221334415858 -0.8764307036406002 2.6518178028281425 -0.011743256578857195
Ni 1.204925423738817 8.36403594125129 1.4768331408937203 0.7119510637655545 1.4973734572473825 -1.6370578924556194
Ni 1.6744357320678351 1.598355718470194 7.526242081033044 0.5651693553909041 -1.3623848848529183 3.246156323583835
Ni -0.44635234019496905 4.139081075158764 1.9540077366591466 1.129111009022294 1.7195597078052771 2.668592965403952
Ni 6.91447246639049 4.495981706147944 0.864393721939097 -0.7715551485814325 0.29250566490874785 -1.2062525885013033
Ni 1.0384687330758648 5.7326712391397345 4.135865263979816 1.6630201208473359 -0.43757476146766583 -1.1667074792188294
Ni 6.71284635883758 8.236285309294116 1.4196605585422009 -1.2703360492447735 -1.7807661041112686 0.19296103514419025
Ni 2.614544546207662 6.552130847992353 10.547899129103053 -0.8635471628097128 0.8404815392395009 0.7274453027464117
Ni 5.457300990169925 6.633783183177786 4.961385007084478 -0.8012896995313877 -2.6596167300472713 0.2951981241392464
Ni 0.554553879632275 6.821103246250253 11.893472201160822 1.4861282233508664 0.32938505443360044 -1.2262858530030945
Ni 3.9987786481098957 3.765885624981038 12.897084843173385 -1.1486742758662025 0.9473820951484974 -0.3473115570050341
Ni 3.3933374646847225 8.413689641864398 9.15506732899339 -0.132550652376933 0.3694233013024089 0.4727955323431729
Ni 1.674004205480228 8.302064970865837 3.748773719579872 1.2175237905397482 -0.16567545995535982 1.7832829569958513
Ni 1.6404858468385053 4.742073814249906 12.87401880896452 -0.1545271566480242 -3.7832546317701357 -3.324131711818049
Ni 2.4623188519229617 2.027180574398106 5.586637951387192 2.8473447989272964 -1.2729711728747755 -2.8551794644803667
Ni 7.030750119724985 8.44940315749525 11.48928751338526 0.371364998409812 0.6841898344918862 -0.5172285658455673
P 7.882658651763083 6.453208068289872 12.279081545542464 1.373833493009492 -1.2031358972491926 -1.9574631119881125
P 7.995849951894912 2.1765732028250397 2.683828954151773 1.761851783705269 -0.840557643893075 0.8205901996322126
P 6.6312034046649195 4.455258729695742 9.226380850000531 -0.6779114576823422 0.8085083287670138 -0.3653861551185578
P 8.649509540978764 1.94305165184032 8.490106433820628 -0.2205656842353363 -0.7441711001415249 -0.47114976920963375
P 8.243949596730523 7.253689888300563 7.620856161568399 0.2113048277587006 0.22565389739152103 -0.13174821108029566
P 2.5174885880472186 3.3026793572361894 3.325131873209629 -0.8708835485701261 -0.12136763917692 0.36639377044746574
P -0.0777310718458759 0.4206718177259749 5.663485331829752 0.566262845565399 0.27193889650098974 1.805914064131806
P 4.9993668516040985 0.9962354135670387 5.024886020653379 0.19866374195592237 -2.4266141056001627 1.5452543400890615
Ni 4.778997480528614 2.851893550404199 10.03994167802082 1.1394627845702632 -1.5077409165246356 -1.5512776634650058
Ni 4.7541190346518025 4.139540744784693 6.962747158125811 0.4359865910449394 0.7356990581147718 0.6452849298965726
Ni 3.467785182059677 5.8534799216441025 8.515507402108955 0.5654586044965487 0.002818957506033855 -1.7611552718588765
Ni 3.2525847490226996 4.411618258270806 10.468415684070981 0.6819761146700191 -0.21191417920792538 0.4665289826081707
Ni 2.7140864727532312 1.1945687856362528 10.554558710071358 0.4791199318993039 -0.9759005143031646 -0.34549070174621144
Ni 0.7601078172336845 1.9349652188290787 4.085420743989853 -0.4868453255680196 -0.391689568899777 -3.2273078234187644
Ni 7.320473318239109 1.0780097019185353 6.911327950908624 0.7194486576941803 -1.862749585063611 -0.6101942568410266
Ni 7.948973031062925 3.1849757899600366 10.249421569468172 -0.7459320486966895 -0.5917237088406647 -0.005806322269131936
Ni 6.447091647961183 3.5157221573351327 2.941665152145583 -1.3380046562363408 0.7946930201504765 0.32939739572877463
Ni 1.6541821254886355 6.399670628388301 0.23092207234502732 -0.2778776305829279 3.180649500130277 3.1233840907499046
Ni 8.281942698465475 0.27631397885488007 1.6502571097439682 1.3368461171518653 1.58696483245397 -1.5362025142994382
Ni 6.0237546845060965 1.159690180142291 0.7288343349487947 -0.012528471484313906 0.6750691031375405 -0.7787220986435169
Ni 6.644280536471962 8.340020548549692 4.039219256077599 0.22162780695126344 -0.17878217254064693 0.39333121826825806
Ni 4.549950672637121 5.13099184183696 2.9649929166108424 0.5741134519580693 0.45267459322358167 -0.7177339889959188
Ni 5.809905117308586 4.581771067966739 11.339368610141703 0.289614716514198 1.0101283251377828 -0.09912656839053251
Ni 0.028547359972747398 2.3642685064084676 12.09353355578302 1.7126385552054115 0.4698914713225004 -0.07318310905189332
Ni 1.907263088107274 4.459855425955032 1.4022512750360967 0.4337319906828079 -1.0425378518167399 1.4368054658563385
Ni 6.213382476720982 6.969886108846873 13.222378027822918 -1.4207422417458888 -1.6201981405858032 1.0082941001425216
Ni 6.915185423361318 2.6704741443666182 12.499627279658101 -0.6462249252123388 -0.35954332318453563 0.1343018307400848
Ni 1.2399072203732935 6.879181096334468 8.451881621070159 -0.43932825382366275 0.2568539771434093 -0.47032778752897064
Ni 1.5500341216710016 0.519073951219496 12.497705110140696 -0.7811142530247773 -0.009829584495912104 0.06385720366527711
Ni 5.25982129026315 7.03464324002622 9.860997921254315 0.6501047198827191 -0.35611732822212216 0.2581482704748006
Ni 4.0874104567992315 8.48046369079017 5.425968407504558 -0.6892644208013162 -0.007778872614470474 -0.1484930346388023
Ni 9.630360093596341 2.448144141621354 6.116961613125342 -2.718204457783493 1.3344966430830822 1.1891886910404812
P 6.0091015425530125 4.36289327792233 5.029458326279457 -0.4186992647194015 -0.8142591152078622 0.08268719188758662
P 1.5993876298753407 8.434074582622435 10.559981873556044 -1.0419269577056185 1.0052285738433204 -0.33626352672098864
P -0.04894637224994473 7.418579949830247 2.921372145312733 -0.852286502294229 -1.0608795875487214 -0.4572362444523351
P 6.69019121298822 6.349500972072618 2.927742791087598 -1.7956422498921527 0.5063438006122635 -1.9918459603433567
P 4.3227519242621195 6.349191398651074 11.776629810857328 1.0409139430600718 -0.3355626439992221 0.7807648401051585
P 1.597286283013951 1.34082815579665 0.724317377298084 -0.24165695768799672 -0.33696800898718093 0.7197003686936702
P 3.095490309108261 6.6172350766443415 3.9584177787507726 0.8956594699632253 0.29496338242062103 0.9361993390588005
P 5.166724119493361 3.3846506468559414 1.0218071162878537 1.3552588153310983 -0.1463387072999609 -0.38669494389866305
