# total energy = -381170.88521960395 ev
CRYSTAL
PRIMVEC
9.22799345803550 0.00000000000000 0.00000000000000
0.00000000000000 9.22799345803550 0.00000000000000
0.00000000000000 0.00000000000000 13.50610120570401
PRIMCOORD
 96 1
Ni 1.8478779636535576 4.403303081497554 8.157630927539541 0.52370826003264 -0.7142275185045571 -1.8882508146585093
Ni 2.671402536967369 8.72252991652526 7.152398862006092 0.11843992400716376 -0.7225877175437943 1.2522228845838304
Ni 1.9124370044068288 6.732162509150826 8.45363080731572 -0.18565293151855122 1.3942004867016182 -0.10037072521027875
Ni 4.412798686548314 2.6345736159201554 4.196345954156547 -3.1931867133653395 -3.3249220689298284 -1.3136928189638535
Ni 7.84948793145015 7.7047468573771 5.587851666200446 -0.6776882859279425 0.6160430023123197 -0.19205574972110148
Ni 8.026425473960616 -0.2497777844032435 1.3819307462512178 0.5014448206487493 1.608656715605107 -0.3395905342116926
Ni 2.4916227725369473 5.237116867281333 12.584363883890234 -1.1044839545022331 0.9682370842206358 -0.46972075007259106
Ni 0.9980628375801595 1.2160372660582923 2.3078823534050814 -1.222967844373455 0.16238161969543646 0.6066165667920972
Ni 6.332175141876593 8.197226400962087 7.500613495969555 -0.7264777966268199 1.1346771902561619 0.5689079964977299
Ni 8.315160154653741 2.594145777506765 10.94137320869247 0.644283999435884 0.01102411902464553 0.7787845764503363
Ni 3.379023515103781 6.881886699577045 10.539485797608759 0.20429857164419654 1.6329053037398267 1.7528804334445942
Ni 0.10490290442811766 2.585240764023788 6.117386216667188 1.2830336993170999 -1.5542827688399168 0.4665012146940288
Ni 8.367307544490323 6.561195478270916 1.0252374320927713 -0.7780937210308987 -0.9828846589304814 1.443669025745391
Ni 6.532939362949802 4.235759636112135 9.076937456756523 0.9588175906789486 0.01659081447914562 0.9170124817177046
Ni 3.5563486333306047 1.1206567278613495 5.872142145346003 -0.1592088783944097 -0.5430103027953616 -1.155593628693855
Ni 2.490469273381122 7.471130980345966 0.5264256395419609 0.6362924965899752 -0.7282323174240812 0.8243676643967739
Ni 2.529457544848041 5.689187028439425 3.1703813561959433 0.4849362814707648 0.6681618344947461 -0.12274909290547892
Ni 2.434049322671359 3.337054601818207 2.4523567384733047 0.30945386272731223 0.18609361860039564 1.2905410634377386
Ni 9.189632478682077 5.214978911482721 3.0910464526562027 0.09471326981418526 1.769572035167662 -1.4574722501770705
Ni 4.286393635056275 4.043512852805546 13.251808025029565 0.9782165640308509 0.24121832748868136 0.2521740551692367
Ni 1.9958303793764274 3.090233466451177 0.26186830115494963 -0.36919293045915774 0.5437574653740312 -1.1351585007679545
Ni 2.0358429580937205 1.4386256911597295 12.046848042064498 -1.039270493919378 1.7087844715666443 -0.8812965163733338
Ni 4.535189560978079 1.7466191937585256 13.200673868851457 -0.06810569452898593 -0.48605599689750484 0.3822965577206513
Ni 7.080546938190027 3.8629948489153962 2.5380128173869716 0.9238829835852927 -0.07948925377557924 -0.6659833387861885
P 7.834298654566234 7.3557256968038836 9.478906074180804 0.45058042969871426 0.25186398012798555 -0.8717248135244987
Ni 3.3155164655806235 6.115464948473244 6.609670126795348 -0.743291782860365 -0.190867128729639 -1.2038444932804429
P 1.1977935234097479 3.412751830420134 11.583048178690644 -0.2534153837755055 0.8562884243647704 0.22456143565829068
Ni 8.930455060357838 3.0613683035757857 3.9671069143222795 -1.1439796986040105 -0.9325326888404909 -0.6237046326226355
P 6.380216074718434 1.6144097345143693 4.581053610213046 1.1088139493361548 -0.8872537623980332 0.2258529007762046
P 2.7248049338854905 1.7388215394651416 7.754028032511287 -0.07986000685143665 -0.05235305968041951 -0.8681754056103436
P 0.3025757477637125 7.287226302934311 4.348613379521531 0.33437505144902413 -0.0346597561657145 -1.2926761075028703
Ni 9.139441423413773 1.5229695494337285 8.484491985130353 -0.1142225434917065 0.4154334494839362 -0.05740630583361081
Ni 0.9062535327696541 8.897981752123023 5.719171546895629 -0.6886566120139882 1.1645516092180912 0.9286405528749361
Ni 6.502348565337294 8.383188920867736 3.070855603432624 0.4358312964139978 0.9975597444441527 0.2493890362249318
Ni 5.886527664018141 5.563704776272046 0.7926486307099849 0.9102363393361357 -1.8348171203194013 2.9400168699417364
Ni 0.8172744534878836 6.429991870290639 6.226461096842098 0.2976111044561133 0.9714458209659205 1.4495275414086972
Ni 6.911730029736575 3.087908012153031 12.960319711151651 -1.9544698336877437 -0.1991609933073151 0.13060509861478797
Ni 9.146685398112362 1.7970870888242259 -0.03759945848330522 0.046376016161378195 0.5753159569066028 1.0400274266900604
Ni 7.2166136986112654 6.149765399370888 7.259677974695211 1.756956917506813 -1.8063228695344504 -0.1344617533567168
Ni 2.576243470608345 7.848500536172763 4.559781240180965 0.00829540723957281 -0.8443194249283524 0.3597497827683869
Ni 3.302320435237973 8.884794949773621 12.192889340385996 1.25135822259069 -2.0342804753584836 0.6117965683311399
Ni 5.516946534491481 8.821029516439557 5.307870659901053 -0.35744144635018443 1.2175723843894966 -0.3380216470626759
Ni 8.658017015738222 0.545570957130699 4.288632346217902 -1.1933546494927125 0.5805106137336649 -1.176793916920554
Ni 3.8654771790987335 5.425543261383828 9.016659282070353 -0.6538361619006934 -2.373806731991144 -1.1807215341097343
Ni 3.295344072343538 0.38973598957657646 3.262817241747893 0.20376455351759745 -0.11054766574328057 0.11250941745534172
Ni 6.753709873381656 7.614986167067341 11.353322823612281 1.3619529395218222 -1.5083741792332603 0.6035003897606187
Ni 0.5331860673944261 7.884738865652194 2.296198791155551 1.7158434352959546 -0.372426606905107 0.7104387408860862
Ni 9.012934863996023 3.859312879609999 9.075235814801848 -0.11629433841907069 0.31536919977048267 -0.8655986460221027
Ni 0.14333195950429298 8.438104708678303 8.098298622161149 -0.6825965218628373 -0.8476325484619853 0.08229509865549053
Ni 6.72320212770837 1.877924309664514 1.400191099287606 -0.7439960080162412 -1.109250008432309 0.13931393924269556
Ni 8.00568094514224 5.2140099721918265 10.730974962669801 -0.010203937116195329 0.7408050118827694 -0.00806426506537321
Ni 7.4553695678807586 0.5497761536531783 9.980251873677132 -1.751586654333835 -0.8007927052903112 -1.0719427873414182
Ni 1.7266590443661118 5.313976823032333 10.209761293713527 -1.9843483664147308 -0.9515452253872516 1.8696100596288707
Ni 5.493968831307427 2.2903971518014083 6.522096470885036 0.11787685241484215 0.2021974661407937 -1.466228913323778
Ni 2.4421053607756478 8.99637061611836 9.669031341839997 -0.82452398746898 -1.830151596522932 -1.6621870834230792
Ni 5.6344281165140515 2.4365870208141764 11.305349255121138 0.1090775089556573 0.043364225918247894 -2.2117683545677393
P 0.04235833460058108 4.518173141431333 6.862193239189458 -0.33205411662533135 0.8106161191386362 0.7351007624091405
Ni 5.252010848381359 4.771703027888648 7.151926388751866 -0.22947661357172092 -0.2872490444954988 -0.7413976511614457
P 3.9040040509033234 4.821912539143443 4.867436998226935 0.5539914843972137 1.8694802189192254 -1.559167607736044
Ni 4.570634283038301 6.663847675146186 12.75979449510353 -0.741176279179259 0.9907918295927002 -0.3895956624852258
P 5.650826260513274 9.244972754181987 12.553826608638557 0.07832402982288446 -0.28882024563736064 -0.5672856304029585
P 6.981816638444565 5.541133104790841 12.610430196413928 0.8338048985502737 0.06921409710181628 -1.5344562210322927
P 1.4778631184443074 7.501694093978733 11.487843895164714 1.646990063967667 0.45731492020907044 -0.7802382781777272
Ni 1.3167700403382676 4.5893025133761896 4.884305769881736 1.0248797724153447 -1.246933611160433 0.7332053451586404
Ni 5.9793059081195405 3.9101683503920577 4.627203727238658 3.8367346059661465 2.2192227539632556 2.0153790104682905
Ni 8.088723656368469 5.30506258155611 5.01809690716836 -0.8712987817306737 -0.2447903611106558 1.2152175110040748
Ni 1.9196625231189228 2.0772305078047584 4.4789744717183915 -0.5980889889370603 -0.27759249524234125 0.14786311436428728
Ni 3.756531490829277 1.1449540340796691 10.514378273583388 2.2028723376296897 3.351226511152312 0.3304728881811405
Ni 0.366551579343798 0.13551400362576646 10.50586914101069 0.655063092329259 -0.40456231109738716 0.42239393996216934
Ni 7.301889584203171 3.4781967585250793 6.986652106905788 1.426055940649318 0.7169323190302298 0.2407287894467725
Ni 4.757538058255104 1.0488168004365046 8.166004408611514 -0.06377544258474822 -4.864395026450422 0.3717817742322565
Ni 3.1496063749998537 3.525720923745112 6.2336598543737765 -0.5060753774422252 -1.0800006246488885 1.3605203208403538
Ni 8.032515949503377 0.30423032695282937 12.265066089564343 -2.151363628227437 -0.5133153468340902 0.3635812406993351
Ni 6.610242262376638 7.657278060116547 0.2596969543440227 -0.8605207172785632 1.3452567098130639 -0.6064975247157297
Ni 5.1694295368174625 8.614516255573712 10.229291418620646 -1.2160484915458025 0.30875092312301666 -0.9232867447621905
Ni 0.9139081531677157 8.94200850790259 13.130050190936515 -0.7127527337312435 -1.117843406528275 0.5953829028598069
Ni 5.319412111054587 5.235280496625259 10.972693940570784 0.6437245273879882 -0.7725180267153341 1.2161904164403055
Ni 1.9583739547884444 2.413055638035325 9.535158998212804 -1.1314964785353352 -0.09557947446922249 1.0698509378093963
Ni 7.773320075192646 0.7798438672809913 6.6151127972121975 -0.7018684827185719 0.22512296458871553 -0.26689130677475326
Ni 4.4500890072578585 7.3619269082656045 3.12779693576082 -0.2800263014948145 -0.699083463774267 -0.3186113608568642
Ni 1.1225300104904112 5.465380508229435 1.0724423087464712 1.5028475929880762 -0.5637192532079388 -0.0012081613754882418
Ni 5.595587492939077 6.403793597463519 5.294972693740269 0.005615032193932265 -0.39690608010371 -0.15811461688896639
Ni 4.740936898404456 4.4076679223032 2.717035886371171 -0.4344177038959228 0.5440418293836694 -0.9826152073191786
Ni 4.724843278182371 8.875114784857928 1.2492728065352763 0.42041187653513395 0.25712959940229907 -0.11399628641351336
Ni 3.4910144411446185 3.706035911783837 10.866751964103097 -0.3808932496152214 -0.2497006539280796 0.9188906725770238
Ni 2.6593230938075587 0.8302582399858615 0.8367556700307983 -0.48604314138169835 -0.8577426403127938 -0.43118351322934123
Ni 6.7096277496426096 6.098743824710391 3.082213417520549 0.099143537671397 0.108285094961349 0.10632977100719107
Ni 8.973485192866772 6.833707346836503 12.378962596210606 -0.46224012542482973 -0.16679697515431274 -0.09140965936224903
P 0.26278371808501316 3.3068606079153047 1.9141524883513732 -0.25961559904894643 -0.008298749673682482 -1.102781627099146
Ni 4.5770108263717075 3.0547518324179683 8.889999537964707 -1.7323072372789328 1.6691002656031446 0.5893732063306172
P 6.592736759187821 2.122576866618591 8.771821242452019 0.92601699920916 -0.27367104870074804 -0.27794833591986323
Ni 5.834952409762848 6.4428095529101785 9.08302885509861 1.0467639740829457 1.6893081080095873 0.6937844201588569
P 4.118241142116579 1.9100838661289437 1.9496322767859326 1.3596479455377295 0.7114116463223167 0.13562312065466967
P 3.8423795120024735 5.812639122092549 1.322025382492211 -1.7730839049756626 0.810301930332327 -0.5681677758975957
P 4.18867841456794 7.428008567904565 8.039912186090534 0.5708610064590427 0.9265672152856751 0.5218190134297271
Ni 8.672301949283973 4.079059082791481 -0.017786956982837356 2.1408079641987774 2.1916492152203615 0.17281104255887658
