# total energy = -340864.65236655023 ev
CRYSTAL
PRIMVEC
9.34225560597023 0.00000000000000 0.00000000000000
0.00000000000000 9.34225560597023 0.00000000000000
0.00000000000000 0.00000000000000 13.67333540900600
PRIMCOORD
 96 1
Ni 5.285399623962009 5.71467625527936 8.830212832393677 -0.663197034290303 0.6625676282364202 0.49999857512052603
Ni 6.539709505875616 1.5665373965002714 9.017933307838758 0.47083712306522135 -1.4613353326769027 0.0857149229703169
Ni 3.4218065354922524 9.371122875040745 0.9083727075057814 0.13341891391449925 0.8741555344531784 -0.21997201651539536
Ni 5.115688214070583 4.5057136806217795 6.43981276988701 -0.8355794739521931 0.56794434703288 1.0946268592024955
Ni 7.791057892857176 0.5615013075673408 4.79091778750989 1.4534834407326516 1.7209745858749328 0.0324905164285376
Ni 6.083116120043098 4.87809597712471 12.911894623826976 1.2217792233819924 0.16198721247049522 0.11185789991427188
Ni 4.404938772634396 1.867955921697726 7.275568126898128 0.996256195141381 -0.1420025418184522 -0.7096329571553391
Ni 8.063001602563743 0.6046102104520152 2.333792534930144 0.06863559889052695 -0.8673279700083836 0.6057331357458793
Ni 8.722882463857973 0.33770384480652066 9.105333843129864 1.1179367375730296 -1.557230538614331 -0.9958646161299171
Ni 8.240747352018454 5.451542292326487 13.664666463855731 0.5797223135044145 1.142780793199903 -0.5523241239971197
Ni 5.19433131923771 0.04344428985016496 3.0522988509470235 0.07728478992509272 -0.03481453657602391 -0.4664989007011837
Ni 8.871723275395471 2.326511181144535 10.057517056893813 -2.057796299092237 0.8266284354064926 0.4378838080676523
Ni 2.235769855355951 4.731086247627216 6.224840001488374 0.4177338154823386 -0.35619523264790914 0.007799698550076891
Ni 6.975628480715637 8.011011951785047 9.500492558069176 -0.6882532059279824 -0.1988213505797092 1.3581006556552675
Ni 5.633613505987943 6.428191004286167 3.537565486765162 -1.4849735409211329 -1.7328016604168481 -0.2317777509010718
Ni 7.419142709119553 3.186727365223732 7.352945356471272 0.42636192347098184 -0.8043002042229374 -1.3932350374645555
Ni 5.678633834308254 1.6344369080653314 5.206559397207923 -0.031807888539216185 -2.1368849749952874 1.3813519128737242
Ni 8.559701290425542 3.0571129151062797 2.3361850865140483 0.6281940358525568 -3.012878848208785 -0.5617629008125165
Ni 8.570360803729853 9.162622421118206 11.808592956681892 -0.20809120591740934 -0.2878457975392333 -1.2223361243267272
Ni 3.200609956608663 5.982154366949591 12.114301445515927 -0.0628614154109111 -0.6819393478948127 -0.979856670737435
Ni 5.593273647576009 7.919102844083196 0.9903388528853037 0.7736662813871643 2.285065363489678 1.1524535404029763
Ni 8.4795167131329 3.4460777147776165 4.594937824148646 0.7760118988012055 -0.3788664489931797 1.1950698324116065
Ni 1.3737506160026682 3.888087840077244 3.4075595961503815 0.35854804915080185 0.4398751274660682 -0.20844653237429905
Ni 3.6006453288177815 8.581982569330696 11.97028030349087 -0.1196030910773295 -0.5442094653097853 -1.228042944903517
P 6.49823923457164 3.6480012209646295 5.061157469848617 -1.7667026840396671 -0.4270854319005677 -0.45437203553066263
P 3.513398006513696 7.349804490237346 9.349211549445712 0.8113388562372736 -0.2644166199820156 0.8199865046099426
P 4.97301329103514 1.6545040724629305 1.2989051376174894 -0.2219437955297855 -0.4779256544808866 0.3817525122917232
P 0.6962652088095401 1.7623604099723718 3.452612622364265 0.0525201813859031 -1.0548143551912479 0.3569508798670111
P 1.8899289061777784 0.17359124852006758 12.926320000245195 -0.5072891952446682 0.981194158601936 -0.2294010231387791
P 4.485403617586221 4.186656977406324 11.38858944798142 0.06759198811736102 0.2000657645097716 0.4149629376054208
P 7.542563243969031 0.9285267548777275 6.991723318157063 -0.34524464717367637 0.09917567646091308 0.17694511933190815
P 0.11497793872931537 4.336263853878926 6.806285155683273 -0.9855130976922641 -0.10902068757579289 -0.6313248681720547
Ni 0.7284455414370864 4.396969828858254 10.4892665831907 -0.2141160719552506 0.4079368839965749 0.8933434202355388
Ni 0.24375532277133716 3.6165645318594524 0.41163004526957475 -0.923981199726054 1.179651183863691 -1.0401089306602733
Ni 7.61453597884757 5.5012150637892585 7.891578691500232 -0.7601345654493166 0.05165089140707234 0.9194290615789973
Ni 0.9364770141432566 7.496477898543819 13.517254083154542 0.9617231943615179 1.1956105354064248 -2.745647898706426
Ni 0.17761589210595474 0.08314233532256589 6.473982068669235 0.14631968113656735 2.227477280662564 -0.08105454138017008
Ni 4.095635383958555 3.142398363796075 4.733790830538345 -1.0744406140626077 0.6469571753926728 0.8310576748224396
Ni 5.485249149471057 0.5941758455005821 12.811176703596958 -0.4043203702899101 -1.2508856538296458 0.9625690873015811
Ni 3.365865110719058 1.6315314666651204 12.000074624113227 0.5050893593798721 -0.04333414401126085 1.2970968622783856
Ni 1.7636589834599257 8.227836355185362 8.52845518332861 -2.8768458937102066 0.37900528856388915 0.5128414925214652
Ni 3.293789611032151 5.578821178617403 4.146110655152126 -0.8375342836857188 0.3195608692543271 0.27822807194381116
Ni 1.9691512311738857 3.668843792552638 12.5906798596358 1.0092857746318296 0.09561624124442887 -0.39826053724907534
Ni 1.9163488041835557 5.778194249105838 0.9481324118632029 0.23742183656072657 -1.657469623342752 0.9766083390034664
Ni 7.952417326504907 7.9332283341060865 7.402880645308146 -1.6521587526527999 0.6696376477093241 -0.9663095281806197
Ni 3.3177151268711875 9.216349731383845 7.2552627349902234 0.4130299822487661 0.2744729757767531 -1.8816675050140366
Ni 0.9484537854457342 3.096163542285965 8.50890277719838 1.5905921447939122 0.3715483180652117 -1.7088706035225474
Ni 5.832743677838418 2.4057148216300304 11.366917284122225 0.13094782666618737 0.6617770140143248 -0.3479252793296331
Ni 1.475842781988218 1.9639008836918324 1.1042788670501062 1.589835469133546 -1.3050564834450942 0.5078905762740931
Ni 8.69765837453138 6.768193043897998 11.28099375939502 -1.4250506393132554 -1.4049746944989865 0.7231042521688966
Ni 0.1884239472696336 6.546491983227877 7.210222787933769 3.1602938192920607 -1.8222783644224423 -0.3366723321236331
Ni 1.3220786019043815 7.678857406630377 10.765673088257014 2.1482577356086034 0.438632770418535 0.9154682771590362
Ni 3.020117584093946 1.709277715322857 2.969834763359683 0.45946976176854415 -0.02980499917657448 0.20707587727901758
Ni 3.250946028198171 7.499943875262399 2.3760970696329595 -0.008162995426766587 -0.6765747411487896 0.5195988658499567
Ni 4.062872094599906 7.521244217360408 5.458532167746545 1.1556985297028355 -0.9598033516309857 -0.33902206330273227
Ni 4.508002533171785 4.216561536641293 2.7878971439491065 0.6433218926329308 -0.7249384771641579 -1.4267701931075234
P 6.040524778102383 0.1785949604620387 10.803056122864552 -0.11907498648800137 -0.02725420773026274 -0.6572251329775842
P 7.596664244446915 7.599177311124269 13.075741900062734 0.8594570519007392 -0.25780117154802695 1.0698817910473315
P 1.5094935856009515 7.958872824921453 6.175629671663256 0.7029313767654475 -0.5245783213424191 -1.775348018419491
P 9.133381162009973 7.251664098246295 9.237678100247772 -0.5188995257900869 0.30060309720490164 -0.2401857724591089
P 3.9225981311781424 0.11571691112403143 4.793105743702588 1.8205564966353291 2.4831704047286527 0.9205870864428403
P 3.377272004447861 7.2837360607122905 0.08566848115734742 1.052634831041426 0.08840044022228001 1.4315156782123089
P 2.6805452882261966 3.662752642093032 1.617063115872494 0.6026344422158977 0.7637091701744525 -0.918575198219134
P 5.804595462601004 6.638606620546464 6.965538844985001 0.4373086522904726 1.0865667079021804 -1.0205328083005585
Ni 6.456965150629093 2.1899741198452296 3.161644343952264 -0.5418095976190411 1.026934083841212 -1.0115604295986191
Ni 8.124959439754095 3.6390513403813425 11.785334477871713 -0.6811464196798721 1.8716360889199635 0.49974969233451355
Ni 9.301775313903232 0.46185868092306204 0.36594454837146567 -1.116253950553968 -0.8708732641574808 -1.6101309861577884
Ni 9.046404765109765 7.935143496443846 3.820780627498593 -0.7202590694106177 -0.19551208370081813 0.3157528083621465
Ni 1.3420430014936129 1.1996296616067421 10.787440543120331 0.16611897525068164 -0.6914493442677768 1.40584115626434
Ni 5.625831407317923 7.352252161127557 12.474744339737606 -0.9413633997582432 -0.4238442992554507 -1.151272889831314
Ni 3.6725993791857086 0.8529890153743633 9.424044882898993 1.144846931700312 -0.3719093009490563 1.1066200270086297
Ni 4.965941203768388 3.2352790660497663 9.074937881265793 0.6665836913743488 1.2445728242377403 0.6199999300775386
Ni 8.146259781852105 5.119742752873449 2.786926483622798 -0.08380767864527502 3.203763717550237 0.5835242037490079
Ni 1.075060029354608 8.947871998395856 2.063662156978499 1.603532507004664 0.34473659718900634 0.671952668995746
Ni 7.144648563714408 5.68150190668724 5.367522719230673 -0.38413926735634485 0.33491395467162965 0.047553581409247134
Ni 4.87618081478695 5.865245384048496 1.110694193768836 -0.7792825991326772 -1.376596914687242 -0.24720976918542586
Ni 0.11621018220419586 5.719235275868759 4.8892020502326545 1.262441219877729 -0.32595648836802577 0.26441482020980267
Ni 2.0272133479015753 9.113089783485027 4.202923712345383 -1.9982598342895004 -0.4423295025438318 0.9062004787038651
Ni 8.772742080426866 7.419376265502207 1.3878985274382938 -2.900891878915817 0.10139325293752216 1.6292126853795879
Ni 2.7866265972274706 6.754020842598576 7.1544355103731245 1.9748355418282888 -1.8972643310110293 0.6597072759694896
Ni 4.489551578942149 3.618031265942517 13.656503201169222 -2.1105550788515073 -1.9422799764897711 1.1880854306739732
Ni 6.525752176448236 8.119213952740816 4.899183315801739 -0.7663967443089446 -0.5509534689018382 1.3210549157558797
Ni 6.609066409268435 5.801755416987936 10.922670622902308 -0.01699010680009332 -0.8417385515750535 -1.491357847180922
Ni 6.943575202760254 1.993758731650271 0.297697504909017 0.017816716466446735 1.2820232557747147 1.3814442154772144
Ni 1.2134655417151425 2.6903826830635675 5.66983996938858 -0.13779030350931754 -0.953993686927744 -0.2597184431753979
Ni 2.232294536382065 5.59613237769969 9.167315035958483 0.4730570135346756 -0.6639233709333662 0.0827697242990639
Ni 2.9674085796566776 3.131486609598498 10.297251472981383 -1.2304615816473388 0.9565856160246364 -0.8976703297456669
Ni 5.8814448547493505 8.94948820856382 7.350497685581062 -1.7132198816301787 0.323239860767811 -0.4191484364416781
P 6.903711799368934 7.838778132960963 2.807696185619419 1.911363746526889 1.1464374161158837 -0.9670386930371603
P 1.6784109037913548 0.9947540027429876 8.716915565393938 -0.900441721843217 0.918814825033766 -1.2215889617480573
P 6.997386593323648 4.083200842146077 1.312752228432257 -1.473044650694031 0.7763731387953662 -1.0305760514691735
P 8.520575925203408 1.7823715208381337 12.59422150862236 0.6397462594665304 0.89747621145699 -0.9376054753777078
P 0.904835729646875 5.566891118591457 12.326579907484271 -0.14255841432192223 -0.28669034377855146 0.5680849863758022
P 1.4248247257613615 6.627975134008072 3.369574920301128 0.5138912739422182 0.06732845004332921 -0.8889771728470433
P 7.179420437963878 3.867796461552297 9.389055334100888 -0.31851134494389016 0.0029585684076916786 1.6550671845488465
P 3.218556429051767 3.524832927008417 7.783983937139363 -0.681604076042581 0.9471982612724655 0.11586907795619401
