# total energy = -381167.4626672533 ev
CRYSTAL
PRIMVEC
9.28114588460099 0.00000000000000 0.00000000000000
0.00000000000000 9.28114588460099 0.00000000000000
0.00000000000000 0.00000000000000 13.58389515471151
PRIMCOORD
 96 1
Ni 5.159342612379172 4.099899805368707 9.740291635808306 -0.03436819306722468 -0.5837054665218786 0.22982139850564934
Ni 5.457870670964294 4.1993194404865 2.6768152043272746 -1.24414447845107 -0.1465204842934638 -0.1001131006735179
Ni 6.826236419992658 6.836659146863203 7.975594040582069 -0.6020145492437116 -1.2165429146837177 0.1665064404970874
Ni 1.6448789294862085 6.662294258424258 3.845519373591353 0.7974890948383749 0.6444590915611674 0.07178854269721184
Ni 4.5553163546214135 7.74479143190528 0.7649891714851561 -1.28387316449926 -1.049426094296141 0.3782115890180002
Ni 8.703116154094204 3.36116699569724 5.6928340173579715 0.9691369703270857 0.2484187018918625 -0.8095537393123929
Ni 3.9771009636730827 0.3126261192408279 10.31941379471323 -2.0324868737931707 0.6379143484641143 -0.4932538001975247
Ni 7.754397417934679 1.326461375189975 13.286652761006428 -0.0014207916069265854 -0.426194287544866 -0.6612895328549451
Ni 0.5518123870290723 5.639836817913459 0.6513758799086584 0.9192881651257587 0.6326009066710008 -0.43868547803334135
Ni 8.631558519034627 7.987484116622903 6.063416252309502 -3.8938817446011003 -0.27125729705293283 -0.434985917694567
Ni 3.2052159007677887 8.801050805864456 3.5483574996859684 -0.2890570442385151 -2.091276433127553 1.8500717324856266
Ni 2.9881577410870728 0.8274160151865472 5.636025979397834 -0.30573836154893796 -0.3104946452870007 -0.5316046320615813
Ni 7.408405579103814 4.259238518559734 3.830984170962714 1.4740201272334228 0.868038622922163 -0.7526979066656133
Ni 1.4998053375774867 1.645315143344548 12.504532450378216 0.9118679614022877 -0.92447356598144 1.3258590220127424
Ni 0.8727414194118324 6.593409593390253 11.673551547042978 -1.5827330537608097 -2.3524688897453165 -0.17466892170322176
Ni 0.5349169889924376 8.777597350119247 3.4737008900029944 -1.0669571612013689 -0.8022386937082183 1.094018279084219
Ni 0.7326267437693016 8.51805938555297 10.20170937401426 -2.6523891019505808 -0.8672091850423322 1.1718167754209368
Ni 7.3821120927064365 1.9065979633441856 6.710471758791413 -0.9311278380731642 -1.3317365638394418 0.23099562131940865
Ni 6.690805938697023 8.146200993037146 0.3614430905620162 0.9106034928675671 0.9395194045709692 -0.32098397485409885
Ni 8.577839246437371 2.236811854107439 3.01792051983014 0.6931835533500643 -0.6877294722140285 0.5141059610561856
Ni 1.365952651088613 8.430343275442976 5.946581474983436 4.412468881357091 -1.4579142228104955 0.5910796474987626
Ni 5.135963405801341 8.31750310332179 11.88483497773095 -1.0520002827812205 -0.3042823458287018 0.9737991516894455
Ni 5.060916059875046 0.2859400403709445 4.892728702161866 1.2824225480956624 -2.2425364889885318 0.34475948000714174
Ni 7.399040902868391 5.826137260008255 5.820821019624062 -2.1047369295078333 -0.9468581043242272 -2.191973431328999
P 0.3624612322696732 0.7019581251842347 5.217723804573109 -1.2767679209130465 3.2350918382395575 -0.5078116434070415
Ni 5.543312900323367 6.303067505508445 10.646921303325591 0.1522095642584411 0.47108497740996935 -1.2205749186612462
P 8.669611217315335 6.283929782617026 3.53855011279006 -0.23913804792088494 -0.527273351676079 0.2535308263074472
Ni 5.016988396225632 2.082011621272331 6.324906041863203 0.558267228954432 -0.8987589348241554 2.1128677861450837
P 3.4065146746727377 1.3667415484919938 7.865564199446104 0.27722482749027744 0.9855604059904317 1.644027896015549
P 1.3631868696038203 4.023506693283704 6.801945804885276 -0.6840772201734219 0.747134810755539 0.4557421764053119
P 5.022844799302493 3.4920404343451117 12.431098167613184 0.020458010744035734 0.5005259083789056 -0.45609493175904037
Ni 0.38574391492991367 5.6081973914649375 5.430528415077716 0.8345502613567306 -0.06822602215693412 0.24583654298698307
Ni 8.369264054129477 7.520679601323749 1.8105705870609288 0.9266178660179526 0.05139403820125988 -0.30094762502851397
Ni 0.7444314332676513 4.427487131835998 3.2592655821598706 -0.37010952873615616 -0.05951975263218782 -0.13457436767518113
Ni 0.4668305025077352 8.770228120257082 12.785705694203557 -0.27656791063256886 -0.6876898772253447 0.039495229881144886
Ni 0.5803537669687883 0.48442662706149026 1.3758175810892388 -0.7959135228211389 1.052027022254098 -1.1127065995223417
Ni 9.189438919267582 3.2426838868554033 12.543953189567844 -1.6955006099735443 1.6132782735375184 -0.5653025385346586
Ni 9.107839084320268 1.1583705413943857 11.101057982555638 -1.7401290473161966 0.5363022946475667 -0.20326473106304346
Ni 5.608624324177355 1.6699380234759436 8.96333349854198 -0.3638738322390894 0.6533178275033781 -0.9997840057889815
Ni 5.893759689196851 8.53937817773609 9.546557923944482 -1.2808719157790909 -2.313628519839351 -0.22068061254664573
Ni 6.662201446965038 5.637562937162538 0.8673694921521069 0.23413622383091937 0.04246356848084945 0.21382528018770913
Ni 5.61319064797104 4.02051816429678 5.259480608191337 -0.37424154862665865 0.9627873739599743 -0.4841176422242114
Ni 3.2812656104536733 5.309734300901271 1.1115480883318618 0.33474760429709444 1.0257140953911819 1.0442116399747372
Ni 6.206970520630773 3.9099147483428265 7.48321811203828 0.6377482551998952 0.35917591254278786 1.0278748504879267
Ni 5.1387570307239 0.6878693456744505 0.04838446992121732 0.17409890813236467 0.6810615732755497 0.40478342596925765
Ni 7.365071908793417 8.479765377478287 4.081172309127044 0.5132091602735291 1.5926626541696958 0.3432960080877378
Ni 3.6723823807579046 2.587518515066742 0.2836605909324708 -0.6059699343470337 0.5909294950741436 0.7375947324755877
Ni 8.529159636075832 3.9031859175492865 1.3529237784431352 -0.2303351049172743 -0.4581194183882368 -0.009084478799771452
Ni 2.0964716466190003 6.4262283118950325 7.107922911187494 0.41309631671032726 -1.0695465191951001 0.05781074036088109
Ni 6.3671166935170245 6.816908868340923 3.025799284603431 -0.8856373098405329 -2.436563503503391 -0.25882627037843164
Ni 2.6259331780384136 7.466468427992623 10.807143581608404 2.0238880763805662 3.501552742345112 -0.7855244662773311
Ni 3.255965206669963 2.4752259305549624 11.435860471862789 1.4073136270448086 0.5578208854456328 -1.1741310253764103
Ni 3.526863293844921 7.359661000720819 5.475844538157078 0.4545044473434689 0.2927527479225474 -1.020633595544481
Ni 8.69427122203042 3.1308275162019643 8.148720824155003 1.0930690277970723 -0.5621701635532641 0.3789978323647215
Ni 6.578207076369814 8.926633991336717 7.3315270630870835 1.0266954854678445 1.9663154201724202 -1.2328483367119607
Ni 1.9147932151934213 1.281568472364661 3.1419277667248244 -0.6960945563492722 1.921379478891678 0.8398253937127408
P 6.143450357939755 7.475601075579992 5.692019132746008 -1.205844040208975 1.515297645825971 0.04873371776027736
Ni 2.8004372836661906 3.389121807214677 2.4922104275924495 -0.4410750613114404 -0.5095713064106256 -0.8516221292373527
P 4.40332830900071 6.656632759411763 8.795599060749801 0.029173793350478792 0.40297774021908667 0.7549753898458804
Ni 8.849080736011448 0.4658708320193876 8.192338497530619 -0.4682007138836388 -0.4469754859562754 0.09874835911550735
P 7.663367938730485 0.7501402661243497 1.7117338079070448 -0.30296954055454917 -0.8611686352752072 0.6913020200566352
P 4.037679003106787 6.869403029676457 2.736706438962741 -0.25786519201674296 -0.7666086032094346 0.41555840509757463
P 8.774813006342612 4.847969447837831 10.870281361087429 0.3551881315396334 -0.6069374404666257 0.4900070111254529
Ni 2.8345269326381524 3.2249383358523023 9.193960693560841 1.994787559470184 0.2172494753779097 -1.3109713062676325
Ni 6.367348722165077 3.1306604555753657 0.7213956290889393 -0.80526102547431 -0.4743731612429379 -0.5630255695750239
Ni 7.894013696041191 6.566679893134536 10.04880899174941 0.7625431748908092 0.5475894375256117 0.34056575364076835
Ni 5.416383948692399 8.897797470956677 2.679219949235697 0.5240337616928589 1.4719578453877553 -1.1347237272233814
Ni 3.5654635797350354 3.808156264452658 6.9566114611045125 -0.4751735456570462 0.32052657560170605 -0.2848787444911094
Ni 2.653071248714704 4.6798786140422415 12.549535798840001 -0.41583865534215475 -0.4429720212238371 -0.2940889502354677
Ni 8.611297777486628 5.336231972508934 7.523535409923987 -0.8725424243297877 -0.19468650247572922 0.3118586155140629
Ni 4.920789318742816 6.031482613535251 12.811256688927164 -0.9818132802431735 -0.668491707030339 0.4182698904914667
Ni 1.950609157306898 2.879911736197339 4.926960352666436 -1.4718786554103878 1.2910300872590152 0.06301593871090437
Ni 4.065689501499757 2.428959418133174 4.298868083532611 0.8887342035983017 0.41887332840342056 -1.6016316904375256
Ni 7.498943157574135 2.9999355152622478 10.16758631291698 -0.23380917950880375 0.2031390041184566 0.5155154398092024
Ni 7.379429841534943 8.693760759004702 11.508778722914549 0.7806707377294555 -0.6516805490102712 1.3456341477571405
Ni 1.494283055753823 1.305281800195688 9.509554923267565 1.6425672523096229 -1.0795918192462441 -0.8426173546355811
Ni 3.104153502821779 5.554821521266801 10.218960239939713 0.6456880788722622 -2.847964434789166 -0.9646408822289451
Ni 1.9231276842314888 8.525669925209112 8.427665664844442 1.8271778586065888 -0.23885882611756928 -1.9387526800628028
Ni 6.620464133753245 1.916575195210469 4.34622141814188 0.06819439758805029 0.4865792163908266 -0.3868949757246111
Ni 6.770484576438459 4.779771587602062 12.111537176139345 0.9697738325801364 -0.9204747292346922 -0.28127560052088335
Ni 1.4786350437291218 1.785293386142024 7.078676164157696 -1.741837288256555 0.5843837235358258 0.38585059362049673
Ni 3.164471670169664 0.268045062918497 1.5404409787683226 0.3911123562400684 0.8492281750838794 -3.0213488333530094
Ni 1.6220009047881725 7.662541916743416 1.7500268878671368 0.7793003397444902 -0.9565133680258042 -1.203234884720902
Ni 5.696071281055608 1.5763191045594778 11.476394948563074 0.6941646863164109 0.3492776795924694 -0.1666321674416743
Ni 4.738832452939573 5.936341586687556 6.866985291163744 0.5960614169840702 -0.5845415892699287 -0.6935041699142765
Ni 0.9575451059314646 3.2397696070358566 10.246168847325011 -2.1515993983873267 1.8905133854404408 2.3322170814748158
Ni 8.150034106302984 6.777872368592471 12.729061004411648 -0.4417299212866199 -0.7431544859515523 0.3067107527645363
Ni 3.4421264315759283 5.04896194392735 4.071161665135442 0.37004062317143366 0.4144677431365571 0.23097608093538285
P 7.324856703512853 0.645042425931401 9.880626274609192 1.6517977697689552 2.669071447702268 -1.2129467126920273
Ni 1.0145963099147615 5.228422181477542 8.850573144275726 1.4174609998914556 -0.4094540919720496 1.9242038357143503
P 0.046031699429958856 7.359364004051311 7.895028125290479 1.0746702135749104 0.10575332967843078 2.214043009534529
Ni 2.5195805269167937 7.288521017227738 13.10580963271384 0.4228341128233814 -0.5048903559951885 1.146329944003742
P 1.3006876329642365 3.0928305047967877 0.570577935969015 0.8470617635601799 1.0866916635158186 1.3109584507518262
P 2.951274467192551 8.909900085239127e-05 12.36882910339247 0.8135080959744505 0.09155801201465523 -0.07622960918770097
P 4.640062498036329 1.831448524812747 2.248107936809256 0.14729464345532697 0.529406853079314 -0.5915596724589747
Ni 4.323213457400935 8.936221415074272 7.1881491365383345 -0.2865599888482742 -1.7535874868139478 0.9292697018185029
