# total energy = -340885.7063990197 ev
CRYSTAL
PRIMVEC
9.08900533787251 0.00000000000000 0.00000000000000
0.00000000000000 9.08900533787251 0.00000000000000
0.00000000000000 0.00000000000000 13.30267804271873
PRIMCOORD
 96 1
Ni 6.5437384928436755 1.8121477150546643 11.221155162953744 0.2864147215196616 0.6988003853162094 -0.04631842345056539
Ni 4.65097130005057 0.6809864570428968 5.994386282947373 -0.2968500579203726 -0.2573589418042858 -0.47476936824009197
Ni 2.7922969664453894 1.704679315417762 4.386837532445014 0.09150453306890048 -0.21940380271675117 1.0734671944057448
Ni 4.011032609113912 4.605808032307356 5.0835915960246245 -0.1114344392236081 0.2625309729235285 -0.7061475697099
Ni 3.7284372537764154 2.6622514774395705 2.0021724594769146 1.1286055301407854 0.3806759913980928 1.4218277615005837
Ni 5.563580152447569 4.482588386343427 3.1124408208170524 -3.196315745912624 -0.6943194667267203 0.8950912561645811
Ni 5.4244274800489745 4.557100052465157 11.579489200139545 -1.9139106813184588 0.12655046892944014 0.9531807041081456
Ni 5.602890100724768 8.296435023694604 12.673620941324458 -0.4425146219714443 -1.560511523358448 -1.5185557477519525
Ni 2.0384639490667475 6.704941092299029 0.02130462861543467 -0.13834900422626495 -2.099036536688946 0.32306348309094685
Ni 2.733772860790618 1.6621064142084205 0.25814138635719613 -0.5246348856119675 -0.40353309850192437 -1.8152263426716675
Ni 8.43492419870031 8.995961233915727 6.525043317673416 -0.2900533467135134 0.09482074192632702 0.8791517021161891
Ni 8.614204829860485 2.617988021229175 1.4954467759217072 0.6200595796708804 -0.7934074685698336 -1.0635537919467748
Ni 7.00901376735422 0.7565960750147731 4.777351193185823 0.35109313553465343 -0.031185938684501126 -0.6693232017926989
Ni 0.6142913355496974 7.259406776623251 1.706400773037115 -0.7945978893335088 0.7446274709526531 1.1325367468743914
Ni 7.957142452784119 4.180806140644504 4.068810507426821 -0.21365378760685141 -0.05227695502684545 -0.6252853468461942
Ni 7.4543386750512495 3.9829566714888798 12.668725603025708 1.828312486431664 -0.3412900334013026 -0.3850710351419949
Ni 8.448057811477318 7.378218254976904 9.161860122451966 -0.5463506800225042 0.4793454176465487 0.5155601770042089
Ni 7.056149349265331 0.9739869057417213 0.1735772802829623 0.6849470243728848 0.5772730806329736 -0.44817490558101525
Ni 2.1197105681765476 6.453121109185021 9.039010399007086 -1.1141212204816813 0.5422567124587887 0.9008050187199067
Ni 0.12304877266274643 4.930312791461308 1.5024707592809254 -0.10375378274989873 0.43907088639721803 -0.3268383767523468
Ni 6.660468588964847 2.0118149852866902 7.052667351303483 0.3050832444634423 0.22183812318985663 -0.9364975870255097
Ni 3.5666166019550842 3.92073334064363 -0.16277136178428894 -0.39116532096519085 0.8878258328514194 0.03293634571670456
Ni 5.941355572145489 6.042916118284085 4.9740845324805365 0.25999663653744903 -0.7662890150864868 0.6364017684743298
Ni 5.438488171374946 3.001144132113247 9.11166972583196 -0.6734356812991757 -0.9867914501840552 -1.0449654874216263
P 0.023595057971701534 5.933648095581544 12.428293234754824 -1.0008954936856052 -2.2531980824674354 1.921845105674187
P 4.205046517998328 6.118545732067801 12.497346953144653 -0.5467049780381295 0.43358698046451133 0.824529643895935
P 2.4302546150637303 8.558162022675003 1.4060136896643298 -1.5588469911718315 0.34673177324216414 -0.7784151089260594
P 6.249518299622585 8.175896634318368 5.979061310972764 1.28584494351365 -0.2229300707024548 -0.41356965680232
P 4.647144828784743 1.2535101772600992 12.346721229252347 0.22597657083826242 0.45787722047044366 0.9852878690553353
P 4.075119186062476 6.216225272908277 8.100213395402898 -1.168896002229716 1.7814371620363643 1.688791316274169
P 4.661968996562805 1.2443666378457956 3.364992468864312 0.5281878930705484 -0.2693729355460264 -0.005881141371125356
P 0.3275977476854507 5.945772828761147 3.5986807951417443 0.374614101474729 -0.12053485886297952 -0.6973353707349087
Ni 0.812633428797026 8.629801563096017 4.0081104938835965 -0.7558086843804531 -0.06600304636368633 -0.5587693654018312
Ni 2.2053199098697123 6.386844081939395 4.840538867502105 -0.2537730242252404 0.5340253256879318 -1.4185866288554665
Ni 5.958761017452041 5.803357203430411 9.344971769380658 0.27177383167803515 0.050228557138248975 0.37682422175217034
Ni 8.793458194004513 2.6360387859178496 9.9746008015125 -1.0942571345679026 -1.2234123881100414 0.8480236132528169
Ni 2.5572371092558113 5.311542033204393 6.945062616585849 -0.0939121140691286 -0.8069160445792297 0.04692391824504821
Ni 0.926678632728352 9.1555369014077 8.647286082749392 -0.5616284321171812 0.19128673276556088 0.8285585625496698
Ni 1.6003557116430354 1.1727998094678382 11.131308526951486 -0.0740454570521886 1.4753113352410203 0.4362223612048294
Ni 3.9368935922128463 7.0174756313648725 1.3995477712355668 1.9695344413303497 0.20337991648466913 -1.0113115468126068
Ni 5.5139814500779325 7.886420901906688 8.087123409851726 0.7878029778988626 1.2467505486153496 1.080869657517403
Ni 5.4233731554246605 2.6469183253601174 4.820677572941333 -0.18402336633492822 0.9013524065829446 1.158830647573914
Ni 1.3073261781269885 7.435987973184968 6.949199022935203 -0.8316130331052775 -0.019042104233115593 -0.246352306281137
Ni 5.455775459611532 5.069701777999834 7.173123030730741 -0.7611393525647472 -2.7477865423159837 -0.8798515563966911
Ni 1.0292117024428225 7.289873122663754 11.329518829620776 0.14865861368238914 0.9740377500628129 -1.7851452070155707
Ni 4.655043174461711 0.3362895635322682 10.333241138179671 -0.40059381336794236 0.7484206194464982 -0.5867761350274023
Ni 8.235493242608216 7.094695821090442 4.964971895684531 -0.1236788038085999 0.24591804695719585 -0.27365485075083196
Ni 7.2265954671941905 6.451421465178586 7.072834036445089 1.2240147975807307 0.5033075848891009 0.11210215471459403
Ni 3.0431898710104313 4.896083597192653 2.082361118360248 -0.656047053509083 0.24229279149978272 -0.12750126287848362
Ni 2.448459892843899 5.196538848105803 11.364890511865951 0.6041879027459466 0.007686827121296438 -0.5386106310657692
Ni 1.320541591952433 3.416984306351031 3.25177345552221 -0.48645297522560743 0.9709845650587858 1.3922752446544473
Ni 1.6180701831325754 1.234096061764123 2.3419094827505798 -0.589440826343759 -0.5374034981315454 -0.547234111068722
Ni 0.9416936696194348 3.4734088517625583 7.90628674097015 1.158301000322689 1.7545629633533397 0.39982248241955654
Ni 3.807575223637588 2.8068484640619893 6.8564666277241555 0.44396626681630635 0.7536001067649086 0.0019409257764547215
Ni 4.163727899531704 7.457419847875751 6.158089267783318 -0.9975299196474819 -1.5429074371234397 -1.2420672842070675
Ni 0.4979357064502641 0.4078491207059201 13.280289328060263 1.0842316320111005 -1.4517659438209127 1.3135007575577056
P -0.07993689343425187 5.687054290562193 8.119914723468947 2.0461687421556376 -0.06999468402158268 -0.682713764166992
P 8.832613629190218 1.8108116312635087 7.9099450656364105 -2.062034248432984 -1.7949143705871924 -0.5910886463598272
P 1.73038302263809 3.2867661262429544 10.285231193950812 1.7537677211455538 0.7286938304415321 -0.5325294578686958
P 4.019194535946959 6.224632602886638 3.412881529321591 0.7951380781076952 0.39418071075274697 1.9692529055341892
P 6.817817450138229 3.9340305555175124 10.272301174894361 2.7240611736745857 0.17417321301372582 0.8573636597068203
P 6.3700385109880555 8.054603857495426 10.316732777704324 0.46324182721646673 0.629014217761007 -1.1007352860930786
P 2.2989730213259576 8.715165501643867 5.4695162179480565 1.3402597708191046 0.1454125959412657 0.9278517384250536
P 6.9996430028053656 4.021948504577709 1.7756544495453506 1.3539758348536164 1.139188190752638 -2.2202943897608796
Ni 5.609106980406064 2.876552046336635 0.43884172015804074 -0.26664936596727623 0.15046249966034733 -0.29257791290757995
Ni 1.3880547239300134 1.4297732586334457 6.555426953764942 2.4429292978204185 -1.5459809338424408 0.7313045285915019
Ni 7.186485686443374 0.6733807773392297 9.009863776548052 -0.2718103413429254 -0.41320738836689475 0.190409215256614
Ni 2.6810929855964805 1.925333099076852 8.799562370019071 0.05193165587228476 -0.437239232505118 0.8065020969702625
Ni 6.550337110751015 2.1996301925005737 2.806279492325076 0.6364891859818136 -1.038756787507753 -0.6604354123847658
Ni 4.0928609245681615 7.092614438857961 10.416635489261242 0.3992588966066027 -0.6066337931832778 0.31990231175414585
Ni 7.906371268720203 7.765200837126802 13.07514865878719 0.7274846406247795 -0.4225577192335432 1.498272572022884
Ni 7.548546215835797 4.07834578297309 8.274372372030308 0.3730788957771252 -0.15682597998452993 -1.112601184292729
Ni 3.0876078403123213 8.6063155731889 12.700013595152745 0.9598221206840631 0.22608121473692674 -2.1779105254780298
Ni 0.2850348443820296 4.927913294040457 10.193709454256647 -0.8164568941901293 1.2728457030405047 0.29226192432905795
Ni 9.157082032322643 2.643655372427975 5.333522883820248 -1.1864548370490857 -0.07335357319148657 -0.5680662173227249
Ni 3.7503054007255345 2.717103624920009 10.989728181215357 0.07801266923005275 -0.07576218263297921 0.24346727142385807
Ni 0.9353677218735549 3.512482485899825 12.49331688815827 -0.07448434436182011 1.2593636093936698 -1.2292608764710184
Ni 3.2165899156884445 8.691125082408448 8.054772004094994 -0.4479039113078157 -0.21347432460619364 0.41355680128651356
Ni 5.785070124601804 7.828778429773972 3.605304862264154 -0.734309891076729 1.6776322143335558 -0.261938076534536
Ni 3.447078003170871 8.519342880688432 3.2593691373199576 -0.5672120968525457 -0.06779896192184452 2.024966139936093
Ni 3.555964287647367 4.330901975523039 9.136439083299019 -0.8425157960607104 0.4843590688110561 0.09215065129333162
Ni 7.126652764013593 6.46549124550994 11.350204496969695 0.7962608788582287 -1.830869705635879 0.3712187026399349
Ni 8.046596443753874 0.01681556885725925 2.016020468076947 0.7828482049967486 -0.15229801020718933 0.9520465905037023
Ni 4.899937335474625 0.5181460188177046 1.164587893105191 -0.7289727951345317 -0.02910565911670471 1.7523451297664143
Ni 6.250827116397595 5.766283150477186 0.41569565905221056 -0.7844618293407716 0.8726606950752068 0.4566536324759877
Ni 8.526932200182411 -0.1082491451992173 11.034026175646204 -1.0537319207603466 0.9605116905519201 -0.13125404505269653
Ni 0.32191893712277 4.992745169430345 6.047889622029121 -0.7673411105000849 0.5650120038774333 -0.7521276359844401
Ni 7.166308094495309 6.028228285586754 2.8711704462499457 1.7302940635036457 1.7748037158802468 -1.5286555551901158
P 8.801792811939817 1.5563467475833361 3.3799575162257933 -0.5449941659946098 0.08738922534894626 1.8450917627725318
P 1.7084966976782068 3.3796557612471108 1.1148083195284526 0.9354051252922794 -0.2923603975801352 1.2914381213307113
P 4.741434170617729 1.1972765009615949 8.132233052463185 0.6042755773637464 -0.3271096281358625 0.007524590511819298
P 8.731425732272285 1.88840447020974 12.156519249225148 -2.4800994791128126 -0.3808048036664732 -0.2869469398740478
P 6.398868836059796 7.836522262359446 1.5368453776356925 -0.000537360560708752 -0.646795453003828 -1.4255268076187255
P 2.189577752548069 3.563508162114437 5.602037552019936 -1.4238604756598963 -0.5132870646993161 -0.09015881767428344
P 6.957288237725193 4.078391227999999 5.986923300628203 0.32063353349321555 -0.4255206585166091 -0.5245058162332709
P 2.4158121855117143 8.562242986091526 10.314165133683908 0.965808677284801 -0.838852231166194 -1.8828347858492605
