# total energy = -340888.874811331 ev
CRYSTAL
PRIMVEC
9.11313416786091 0.00000000000000 0.00000000000000
0.00000000000000 9.11313416786091 0.00000000000000
0.00000000000000 0.00000000000000 13.33799302438124
PRIMCOORD
 96 1
Ni 6.675853852686429 1.7329809531711828 11.368572127661393 -0.2051074406987371 1.277457490780903 0.7511333903919709
Ni 4.805902491359281 0.2650983421247233 5.900715256702104 -0.15357867669182582 0.6680649039055655 -0.5067976003202304
Ni 2.5398852012985054 1.7385490782133182 4.920999554627957 0.7212612854228868 -1.1743583108958677 0.8406154937142039
Ni 3.655132347626566 4.2210853255181116 4.979966089955514 -0.9787816925057014 0.8144036112055263 0.43749120061492397
Ni 5.095317409670469 4.493458682734711 2.60925802465489 -0.21312234058341362 0.5837620307914269 0.6772972211371109
Ni 7.332409611541821 6.024118941862608 2.793522865758761 -0.9193976941204295 -0.6340543512880757 -0.5167156307648907
Ni 4.839766898325852 4.732487081638426 11.495082480296308 -0.24245091434420182 0.8953187987943547 0.7687629305482759
Ni 5.809632213561955 8.07807359733993 12.67039976251265 -1.0494176096557088 -0.7500905509497533 -0.359935930637264
Ni 1.7430236271424318 6.5571917312893016 0.13825718271562104 0.1472409073992561 1.4025462875631522 1.6158169807989722
Ni 3.126743709217315 1.8884419107714898 0.27610609701571404 -0.6043277707579204 0.3267818124827985 -0.04938754929419237
Ni 0.8276721698270317 8.999128965398166 4.917971260108315 -0.01625939928165587 0.9139433558740776 -0.6951388773042222
Ni 8.738712040350602 2.6582830418016528 1.5453132677289596 -0.23701791625408858 -1.5974829583764745 0.25686066201162866
Ni 7.193343182502564 0.8262997318051896 4.7106055349302896 -1.9040911241248757 -0.8420643103455884 0.9506111436087564
Ni 0.30929157547878444 6.889082968457107 2.177640847800356 1.662655024198433 1.049329935037909 0.47505836023542053
Ni 7.644060577484449 3.735610436410686 3.8377540906206216 0.44318567989654 -0.3734241949316859 -0.34655873799940956
Ni 7.612319530803995 3.818694881597509 12.792602336575683 0.9246656273875882 -0.28825460294187777 -0.011569964225786525
Ni 8.217313175930414 8.970404366162796 7.036965443594174 -1.0261115879399167 -0.4961270079802617 -0.49614192037859717
Ni 6.937737992352297 0.6692977431989494 0.5116295844771934 -0.7755357304957353 0.8872177669537753 -0.08947336157148461
Ni 2.1161426837711543 6.7912443588787665 9.313974084904245 -1.0795655939939988 -1.0682889926389152 -0.010933873303684396
Ni 9.391722789972949 4.787949616837175 1.1065550388563934 0.0841663475362744 0.35631478894490887 -0.0549663289335505
Ni 6.587675165439781 2.0460626811950147 6.961392043676955 0.4899411908845239 -0.005370777393610105 0.569711980456264
Ni 3.5421750482857015 4.580206607900156 0.5851616423167713 0.612506449913971 -0.306872218043065 -1.1348448261822779
Ni 5.954038939286469 5.585576694272364 4.885719877908452 0.534139482668293 0.33751925350496065 -1.0865463961872062
Ni 5.1374018637532535 2.9930995950717905 9.276253910825844 0.813407051620212 0.2114107572089456 0.5302743432859319
P 0.06132045791083573 5.619632477058714 12.375670064292175 0.4374842586363885 -1.0991188335355782 -0.46585998156560415
P 3.9418497781923003 6.462314890350395 12.925408953681318 0.47157991476851685 -0.07353149353024756 -1.3535022376513077
P 1.9823436463429516 8.379080422449148 1.5560904603227883 0.7357203982710103 -1.0983055936056634 -0.656274853249173
P 6.59616860658425 7.897697330631278 5.860874456277869 0.7634091224355304 -0.833707453740461 -1.660978664937275
P 5.002099159169645 1.1049128520600058 12.64235044652707 -0.9217286562464513 -0.23756684677902315 0.24021893968988953
P 4.122189592363851 6.291179341796778 8.067818587340069 0.246532283502427 0.7541490372898432 1.3584999479762152
P 4.678063443747046 1.0542255992214509 3.7961927304452328 0.1323313372772753 -0.5535322853726079 -0.7264909092529424
P 0.24183888951417964 5.210999536159612 3.6212114392274883 -0.37393584446078176 1.3305955082564633 0.011350134905496584
Ni 1.7211703311505486 1.1459675219696948 2.400692099692823 0.09090083804663054 0.9124917110292156 0.8153446349625572
Ni 1.7747829000914366 6.4162662228579075 4.672512633660034 0.5000741655534678 -0.251068995030516 0.9216967745672513
Ni 6.019899560693199 5.3230819746100595 9.375248977143704 -0.44417915415806086 1.4719617020424973 -0.7941237779105679
Ni 8.828467299826857 2.209944174865589 10.27110835155792 0.9383809200911517 0.39599128159892444 0.040414399261304586
Ni 2.310425593383731 5.405209540697987 7.258815584389172 -0.4052459674279731 -0.2698395907697998 -1.4122887116618967
Ni 0.6801888499712179 -0.14626307117636728 9.193665220143593 -0.5841397258458199 0.1663480605423522 0.39611109500624037
Ni 1.3366598566778503 0.7551726301008319 11.770058548661899 0.04603534499250782 1.0467223222117328 0.25115384143483843
Ni 3.71561621981094 6.868961167977508 1.8579293145913298 0.8879153072414321 0.7650093770431147 -1.2295791790423856
Ni 5.659183479812998 8.071940457972733 7.707319399055616 0.13993486065614608 -0.4147510787049309 2.393277953341878
Ni 5.39520331926384 2.726294362897326 4.9625873428927445 0.2159245859188991 -0.24948545259348004 -0.38464886000291176
Ni 0.9467179541771444 7.539277759588422 6.97160877851286 0.3407354464494132 -1.3926272286772272 0.39957102853038284
Ni 5.290803253007369 4.690420853824191 7.157980576261153 -0.8743393683292102 -1.3106519752550008 -0.15821977500826298
Ni 7.960140526684817 7.182161366746917 9.079291739736364 -0.2251651306805606 0.8305069445252924 0.36207431713650545
Ni 4.656301279097915 0.5766672898588753 10.343133096988383 -0.11054020954411284 0.3826943073797022 -0.4284352610602428
Ni 8.596583598194885 7.214576785363735 4.819283306415529 -1.8926800540744564 -1.1570810118726589 0.5088637388206397
Ni 7.284757032416901 5.928558615853063 6.975397108431053 -0.20449783213919617 1.6180044753685943 0.8083214095671886
Ni 2.3187276587084207 5.171494099076704 2.5801151325562905 -1.0335575026950004 0.06415982250736046 1.1415147820032856
Ni 2.2712117765976285 5.375373139081046 11.611576587049369 0.44396626681630635 -0.5439143026668698 -1.4348262306427806
Ni 1.106079333247229 3.1467834914884376 3.6133960152730933 -0.7794808311864124 0.8831155718599436 0.4562810796279174
Ni 3.5671997150053474 2.7914897255019686 3.0099579821674474 0.7790715115631357 -0.6454173417093788 -0.47065457474077005
Ni 1.2455649664631443 3.535358423847866 8.329109461964622 -0.906962039460238 -0.19584015646419822 -0.20095228087978292
Ni 3.557840526104737 2.890959586115566 7.0396993838767274 0.14700128058462425 -0.08229946953086473 0.5803486342345038
Ni 4.1536754712846 6.740794047531367 5.884535798109948 -0.40437950566261965 1.4269619974033554 0.628829869664343
Ni 0.7728439087738348 7.506251760975168 11.284289305317385 -0.1756156018872072 -1.1164457548498 0.15402399175936055
P 0.1374360893174273 5.576609370145586 8.142618282157324 0.8536360743435879 1.2556347384788569 -1.324642633107138
P 8.719638250312649 1.7395332967150376 7.948790117945079 -0.3777670452814139 0.4359004590890364 1.8147766567287587
P 1.9622036195948023 3.390058610964386 10.497094032686995 -0.5675491684769902 -0.26356867015942353 -0.40915224446091464
P 3.9210353795077877 6.007642395093081 3.872859706475473 0.4710780354314339 0.9679730319259717 -0.8622613541187536
P 6.786186569356041 3.910874234790961 10.80268111908292 0.11740171255063651 -0.5183207704684816 -1.347650663966537
P 6.270446961320742 7.9677317675360415 10.42098751441468 2.1613757610478004 0.6199932452093193 -0.9453442387828623
P 2.755957614963039 8.560522925867994 5.93946156969989 -1.451026751662043 -0.0451565419319803 -0.5862606288435646
P 6.876069412712149 4.026410551131702 1.5993587105479186 1.7814160789904416 0.255839676946282 0.3670398886718969
Ni 5.43462673813827 2.921752866831401 0.4694002315594337 -0.9567375682214685 0.0388910206382427 -1.0476533186664345
Ni 1.4383442089203162 0.8267909297426218 7.138907697536627 0.28520501748227656 1.054892773837667 -0.6592915285883097
Ni 7.0360869374500465 0.7726753157897439 9.16334764503692 -0.3067189802946524 -0.5349105565063627 -0.17058780965531264
Ni 2.5198636452959335 1.7035637557308994 9.046587434763023 1.2332998224270824 -0.677756934382349 1.5225674400145068
Ni 6.3917154391205715 1.998009124161987 2.468795463444676 -0.13976902450224316 -0.44690863727408187 1.199673649732205
Ni 4.278735012942905 7.377546965606791 10.440687376777339 -0.641894930378417 -2.2909413626544803 0.2562124869046684
Ni 8.150550354230441 7.085480125221525 0.06501401123256645 -0.7392165843497269 1.298023230747397 0.8607657434098337
Ni 7.8802456784943065 3.863185203128941 8.635176810536848 -1.229376061892644 -1.0899713627083552 -1.2479265712013219
Ni 3.2443395939042468 8.648528463563414 12.874951351826498 0.06950283198682869 -0.8512763158621598 -0.2738620816656316
Ni -0.08374697004862786 5.152511440381502 10.172380300074323 0.6443608754204064 -0.1718769607803814 2.362140094286493
Ni 8.915488619020556 2.232836368164843 5.798906054520068 0.4853947091644221 0.8274568448450589 -0.33889710768909376
Ni 3.814174766997019 2.6711781268010335 11.346523810596022 -0.3856564753318197 -0.4114837208075688 0.295015318704479
Ni 1.1185916666070521 3.2942977960007873 12.51490599762895 -0.32879010116207885 -0.05230395161003896 0.30230105373261484
Ni 3.1574823111274997 8.48313418960316 8.116929267949017 1.481920613027422 0.7100852142014094 -0.23736758628402344
Ni 5.430143076074883 7.951246107632239 3.499489127340755 0.1781154854909255 -0.12044461314201836 1.3992372777945772
Ni 2.9541136066425677 8.349435396651984 3.6529825592510505 0.410494360311106 0.5070611383942621 0.3660770105379953
Ni 3.4472435285411445 4.7179880850066125 9.45502353196178 0.1420195110993167 -0.4409020260686859 -0.13109977886301938
Ni 6.922910922886577 6.104533238706803 11.48046410160549 0.9626935286945872 0.13531510249594758 -0.14699485282672103
Ni 0.09106208293131537 9.330209133615478 0.8666162378385888 1.026834325038554 -1.7809607366205782 0.7035263300369691
Ni 4.374851240143235 0.33941686345224925 1.6565654996469377 0.625737089671632 -0.1870438983288069 0.3517508237233103
Ni 5.95235300944556 5.567569140944607 0.29384754682263575 -0.330667777800766 0.955185393243 0.7120289681913414
Ni 8.108994461935618 8.924492395684435 11.555277466124158 -0.9018933666880791 -0.3512268328990403 -0.27526281866790014
Ni -0.12472235569012273 4.826616645566767 5.9368479227897675 1.7817690914544861 -0.501164056183537 -0.6189470633329921
Ni 7.834151445330443 8.40573634020405 2.901853426828117 0.5137316084359024 1.7549365446426746 0.1472933579037463
P 8.803406180570109 1.4081979607380186 3.6053263348724207 0.9971828207207083 0.1123507803902904 -1.6459073724264492
P 2.1306325672686914 3.3539888255032206 1.5691477591122673 -2.275348907532862 -1.5957271520276326 -1.395767831188738
P 4.805510626585448 1.3463835709494683 8.045397543082842 -0.5167408275758714 -1.8582596676130578 0.17949539655758764
P 8.688826743328262 1.6041030082515777 12.789281510445807 -0.7179689878248603 1.6613172792236162 -1.4884663845657398
P 6.311292029142101 7.967786446341693 1.5383107353519108 -0.11709883659823704 -1.2965211922805735 -0.6214407762891232
P 1.773853360395368 3.574490222425492 5.946958033954653 -0.10452434236733611 -0.5199806746694078 0.04126800551085151
P 6.984734425809403 3.9319711406380047 5.914946327186225 0.09807832963167624 0.03176906488148077 0.6738239178765298
P 2.4693222026057815 8.625062142804824 10.45990788827712 0.7585440810337453 0.6728713241552734 -0.385893016822658
