# total energy = -381167.1414789083 ev
CRYSTAL
PRIMVEC
9.23719142940719 0.00000000000000 0.00000000000000
0.00000000000000 9.23719142940719 0.00000000000000
0.00000000000000 0.00000000000000 13.51956336655162
PRIMCOORD
 96 1
Ni 4.496480032049879 1.4609264810158853 2.095072603026381 -1.6844937173400796 1.2126037275303116 4.840566556572257
Ni 4.98797251231881 2.819283188672385 6.335308326910189 -1.9874239200162611 1.4150359353897308 -1.307355049671284
Ni 0.5855594189401576 2.6312693948181938 2.9524160572329774 -0.5517281422843336 1.456339165013892 -0.25608933106324283
Ni 2.0282470655271787 0.3175589372731426 8.911920336466782 -0.3747467703978513 0.6042372679266431 -0.5567978434977572
Ni 8.477053686947825 1.5960573540773457 4.881332832426449 1.2875148750169052 -0.41044036714471893 -0.18630881993499526
Ni 6.281872098352308 2.6059872019431363 1.3676927370093752 0.35835470219307314 0.31456161626752277 -0.3271170843350302
Ni 9.093700873560984 0.742218490289747 7.580567634163203 0.3544489393807638 0.7705069098225762 -0.6970746608743543
Ni 4.767379144379734 6.9584594199915 5.043634904005258 -1.6251452001784332 -0.248617705276546 -0.42649742060758156
Ni 8.961645985237338 0.7319762924600561 12.194862500267023 -0.06490209999002372 -0.3514937134071817 -1.454110018573057
Ni 4.5052923126501 1.1155386571973698 7.844402142506633 -0.391313673617597 -0.0004291171176186158 0.7768392797985073
Ni 4.0043778971482284 6.141152724490918 0.8814589898072224 -1.6320223869142407 -1.4880835473050245 -1.5024243894077285
Ni 8.226531818857056 8.662527253165685 3.518668822417871 2.3284175052230673 0.276612133606943 0.43870604685863157
Ni 4.360610183676031 2.7222003070074767 9.554829781963054 -0.15390597812425752 1.107762368143189 -0.6685410722110358
Ni 7.955143135382744 8.804364327187061 5.993127655947436 0.7404777104503376 -1.3178955441912916 -0.6494714571740944
Ni 1.2879970207258042 0.33038477753876827 2.6338410289053025 0.7454152569612711 0.09062418734647618 -0.372622524965997
Ni 6.5757163941317955 1.4086255032816597 6.274767774442844 1.3024139036159248 -0.7893880629977954 0.6664610497535555
Ni 5.949989048367675 4.707716125095848 5.290408319823942 -1.5774229544018061 -0.32087881673480223 -0.5468278767692389
Ni 3.475410131349847 8.901585766723043 6.33609164074132 -0.8697787455417213 -0.24237789501442128 -1.4501320077619155
Ni 4.86905291017285 2.683792065146136 11.756409049325564 0.6867398546072495 -0.2660580122401805 0.8414238485481121
Ni 2.5316924714739772 1.9078587499478492 3.8793848416535845 0.8194799972871692 0.34016286177539484 0.8246746541142312
Ni 3.7341623369823322 3.620036837175487 1.0392477696656242 -0.24583808564887985 0.09419724940971518 -1.5143905606306693
Ni 0.8209018103953472 5.223834957650092 10.646534637897643 -0.8434740462089216 0.3691476790435191 1.7678689364336264
Ni 7.61822581608247 8.52206652066363 8.488892995171414 -0.13434014017718798 -0.487060012681987 0.2575836562205822
Ni 7.250705681657949 6.631804620342007 3.2219683870560063 -1.5310086288033244 -0.7316742532260947 1.2747274934442498
P 2.225442627637785 3.068493375583667 10.417770050441845 0.9916523778207826 -0.5720064329173955 -0.5839461217777748
Ni 6.725820754460508 0.30184647469350323 2.077524710514599 -1.1436745086587659 -0.701450935565179 -1.1683830671490394
P 2.6380864420749686 1.5384819400509542 0.818365277635577 0.07077861337545874 -0.0008690328685146323 1.138428172658162
Ni 1.0784236221327073 5.544614903566104 0.7445388727706438 -1.0185566584107941 0.3560101132202966 2.7244226707790626
P 5.25939814455874 8.633577895302905 8.891370356748427 0.11556105979747193 -0.9792303500073458 0.530582361444654
P 6.897013622766479 4.263407218522859 3.2557275504832894 -0.4734190248597847 0.5354512595011811 -1.2373943042114302
P 7.600434985436741 6.321961509049331 9.836496688313535 -0.12328465369397477 -1.743024880806753 -0.6399717452137752
Ni 5.261596596113093 5.1793486438443646 9.528479769761594 0.20681053943277283 -0.15202650171335752 -0.965088511289325
Ni 0.8678202766979705 7.863186894947524 6.916973345954065 0.11481955364575709 0.7029653153271764 1.5442032731167277
Ni 3.186766374331287 3.6005186517370515 7.482970240937044 -0.7688395494224823 -0.3729431415302093 0.06774676852767043
Ni 4.63218361097844 8.006640477464748 1.9093136075941122 0.017277299023208955 1.5776044742849926 1.5158925990974925
Ni 0.32706862582442936 3.0890646008422538 11.452530392522997 -0.7084600198931604 -2.209176425470847 -1.2641342913094358
Ni 4.043183338239978 5.741071490364321 7.326521777551486 0.8218747227715911 -0.14667449337282482 -0.5228441122601318
Ni 0.9656744638451835 4.802849959374335 8.337771620069027 0.6416416767170305 -0.23922289432520738 -0.8178396334702689
Ni 1.0731768974147562 8.966005939580423 4.96610069051042 0.41394966584955806 0.5229220166859188 -0.48214997697487927
Ni 2.6676731661446835 2.823984919097451 12.550832450558927 -0.12829599086563712 0.5505040400692454 -0.8887339464879855
Ni 7.177768818325302 8.679006402631925 13.327531528924675 -1.3274284233823912 -0.49657206593748027 -0.8564529749670928
Ni 0.0344953675822488 9.060059022464543 0.7420873221717982 -0.4490956176230717 1.064297612091335 0.5854221921026692
Ni 8.404283093060466 3.080474012835749 7.032390205119308 0.6561462980911087 -0.24522667731712605 0.2691788172573493
Ni 4.184336860097396 3.6629066424853667 3.1883459340615157 0.42158995600363525 -2.034259135202245 1.3541730384660873
Ni 8.605358275561105 6.1473139311579486 7.560153441158499 -1.1019622165216443 0.46291015490866083 -0.5692453252324906
Ni 4.595050101530967 5.318008124022475 11.559537712633269 -1.476628511390547 -0.8640022480692604 2.2758417880088806
Ni 1.102763621484471 6.956519609796482 9.1933165931091 -0.11526821114740148 1.0278961906441653 -0.2465016873748077
Ni 8.115583912893477 3.985312334088631 4.955244219452307 1.2143844735798184 0.42327222880206455 -0.2895031306369982
Ni 5.969063848618677 4.334524355148752 13.24176328301156 -1.6862137853549797 0.24267434320891756 1.0904202773203155
Ni 7.223973249732331 2.2545120689888285 12.140824930548687 -0.18141163974369404 0.24259849566565964 0.5569436250470021
Ni 2.782075781693674 6.829240349429139 3.413716777395176 -0.12877910114964275 -0.8921506854790184 -1.0530516068638702
Ni 6.2235761833963394 4.116498926420223 7.764676867210566 -0.4856916715795506 -0.08034363135607453 -0.9181501948665736
Ni 5.457757592786357 7.2874697034492275 10.93802991590288 1.940232349932123 1.7569458617632194 -0.630367903575424
Ni 3.2792676090593935 7.211419906613148 10.550938020329774 -2.2886060296530846 -0.9305629667086296 -0.3971904441133482
Ni 8.741800829802054 1.3986862853300477 9.781404231336765 0.6682230267499847 -0.22557547874510184 0.5488112257478548
Ni 1.9775071731403717 0.3860065255830354 12.657921057953562 -0.4556994960928345 0.6436646206843302 -0.19729745773601504
P 2.1500486713914495 4.5708209484760625 2.418987651705197 0.583318258385789 -0.746392790383192 1.0266116675047867
Ni 1.1122409798658406 2.637024165063411 8.5763239355374 0.2915669551445624 -1.0190407971360642 1.0842411450927971
P 0.7949212858500834 7.369837739206219 2.600758027888854 -0.6788483676743147 0.08325463435528242 0.3474876775715822
Ni 3.561648550305469 0.7260663373992371 10.782852490054628 0.33359446452925773 -0.09315003909212345 -0.08693928229572125
P 5.4889423509691095 0.3329388609622076 12.01247046110182 0.8941147511839247 -0.18742005072130302 -1.8906224002144796
P 8.29341832181953 1.6221154710304104 1.8526803870910147 0.7430002197618752 0.3082575284263659 -0.5883933589158512
P 5.910398446006514 6.943402798001604 0.6642972384750463 2.38236824840791 -0.620482526140912 -0.6782112483109481
Ni 5.766307497282356 8.432253308634332 6.780128973887007 -0.5515921309271017 0.19368994289041483 -0.5721023350653115
Ni 6.844934337625969 4.481709762993534 11.227632493389262 0.09885454567606845 -0.5946241703169114 -1.798150361025987
Ni 7.785391268935929 4.282657525410554 1.060009281067151 1.891569080398465 0.5152876400691125 0.5686945949353431
Ni 3.2960608230333994 7.712288136157995 8.324170779444536 0.5941186914354025 -0.31123203767365754 -0.5751632333788224
Ni 7.792522380700468 8.063042768182726 10.89190122946537 1.4865059184052591 0.6272075035695714 1.1063839997384235
Ni 8.26765579499142 6.944234145228041 1.3027866878840995 0.31728929961133095 0.16831315468852304 -1.4375197183145436
Ni 0.7655922794205637 7.523969514987444 12.333181128082293 -0.6491863218335078 -0.5655982153982065 -0.2981978301975187
Ni 2.3532299335323943 6.663525135626242 5.714652199227328 0.28865003860808347 -0.10545713859425064 0.3622252408920729
Ni 3.25666420169174 4.617053091457306 4.971752004211904 -0.3405035329442652 0.34059994931281345 1.1293776324201195
Ni 0.6224832441427398 2.5807050090680788 0.2917289789477778 -0.7844088646156491 -0.6705115656738453 1.3004860904655924
Ni 4.685851693040582 0.6082690540089661 0.298901658073639 0.07342762096253161 -0.4570408406120774 -2.0063917193680156
Ni 6.909973402307474 6.677556429370199 5.6025884405420445 1.3216717234042723 0.7121168999194574 0.4799928214225605
Ni 5.9767491918675075 8.91776932606433 4.188252505533909 -0.27820133247093376 -0.32553919832494904 1.1402821951477653
Ni 7.57419212465558 6.099058843259044 12.578859013000365 0.5625396310775409 0.9423039092946417 0.782507276717562
Ni 3.622632487960248 9.097432698888541 3.761399119558655 -1.0093019725817458 -1.4345300395586003 0.49107967536434133
Ni 5.112637647518581 5.570525225456691 2.7851924100736682 1.0465402881079138 1.253217387286616 0.6965594118008327
Ni 2.0382232322444103 7.8862336875026084 0.7937888061838495 1.3342873552857537 -1.0422701999776502 1.113113090932141
Ni 1.1531063146408698 3.114734755756315 5.311836756444898 -0.14339479418028853 0.11648614271490261 0.33082487220392054
Ni 1.9151191823920566 1.4309056089501428 6.832192555802127 0.9906928421209907 -0.047133463152693025 -1.5021276841029163
Ni 6.381864695309742 6.528255704693708 7.981923600703667 -1.0039828743616772 -0.14500121943545996 0.23350990310083009
Ni 6.61302541021596 0.7954912205597623 10.19246663860544 -2.3236082567598824 -0.1804510756026376 0.2681730017006543
Ni 6.451697862330362 2.103483989519632 3.805824467901111 -0.6865035702267274 0.7390993420455723 0.044576758169110324
Ni 8.043284415767765 4.0473400743721575 9.226141876485356 1.0585190577363446 0.6424094081209905 0.8769575226783478
Ni 2.4488718133381475 5.7390762570208755 12.68068796360908 1.3081425785695857 0.1630807026449901 -2.5866922739734033
Ni 9.231889256977448 6.47902147450589 4.950458430585458 -0.2269566753633446 1.5251303156456764 0.20088517508727338
P 9.24485827370985 4.4961105443936855 12.850128536705553 -1.1451976301715117 1.5935602262833006 -0.3135210908181504
Ni 3.716399217910818 8.188890263882318 12.52183321186256 0.8181581931519523 -1.6140668308770847 0.7276491912271017
P 4.503019963564508 1.510151474012298 4.718179091800114 0.6108239200052255 0.16517743727301876 0.1771325527523659
Ni 2.8962105186919245 4.909715026736972 9.56832254744811 1.0338760623766838 0.7453527791544519 0.172010143924136
P 1.1483676354501848 8.598670548984 10.517706300531708 -0.48979900887970484 0.9778540384851094 1.6214713508712721
P 6.999444838254792 2.192382719599849 8.552894723258154 -0.04717254392074456 0.014460398399704128 -0.6834455001266939
P 0.8002917889328597 4.99680326730184 6.239954647476268 0.5349560650323174 -0.0051586613828040195 -0.5927115266752309
Ni 9.186728628199168 5.142473775756228 3.0463222687737606 0.5707280804256042 -0.28355076970830523 -0.9189557214870044
