# total energy = -340897.5031652295 ev
CRYSTAL
PRIMVEC
8.99214599237711 0.00000000000000 0.00000000000000

0.00000000000000 8.99214599237711 0.00000000000000

0.00000000000000 0.00000000000000 13.16091459989582

PRIMCOORD
 96 1
Ni 6.285536921497518 2.150129977086099 11.385033185731007 0.5965635534314693 -0.2949530980079759 0.387710529647371
Ni 4.511818169447485 0.3320143033597515 5.969238191429584 0.015994061435411162 -0.6199896456648936 -0.2526347968557391
Ni 2.601211981211977 1.4544526138535299 4.6426179228964735 -0.2276758129175563 -0.4802609874822825 0.7930855664540407
Ni 3.3361130846167235 4.188649439954624 4.7082246189753825 0.7430105041745203 0.47963723785535456 0.008664360543217337
Ni 5.051670637346801 4.610650844420525 2.669231270020872 2.1854376870930105e-05 -0.761662829168385 -0.22956145997604338
Ni 7.2677130434705095 6.08453548544326 2.5531255820958076 -0.4402674778084804 -0.11046667599370007 -0.5551636503284438
Ni 5.0199103782252665 4.5178429071630655 11.44545501051618 0.3427617328508226 0.6907088665573266 -0.28977463913082996
Ni 5.650232825462563 7.838237720844217 12.190612555470763 -0.44028881796471914 -0.0008464071606953166 1.0150746133994646
Ni 1.8556012321068505 6.569104240692749 0.3361938527481118 -0.011270687817812848 -0.6803982286599378 0.11331648673766938
Ni 2.714333175931369 1.4968775579462237 0.3678893684195674 -0.8509495286503603 0.5728117024275102 0.09007911347628357
Ni 0.5159495458163988 -0.2610635750056645 4.4292792627440445 0.19558304614806962 1.241740496995268 1.3217437142927881
Ni 8.4131775418274 2.2817120472235275 1.4589396946297601 1.044445610362414 0.29922498591045243 0.1697182625661658
Ni 6.894071399354441 0.6601368059981554 4.914772410586311 -0.3587987317090272 0.09282068077716273 -0.8719731820898788
Ni 0.7390941410118724 7.30642423132957 2.5139584924424487 -0.3655201095932608 0.5506099695194905 -1.2175435880340904
Ni 7.376023440163281 3.882322999627852 3.7921596524631562 1.6345266413933335 -0.17850706450238935 0.6905332602114107
Ni 7.600053761724404 3.9126175389767885 12.706546814639227 -0.1805955716003019 -0.5562265443753194 -1.1051637541780772
Ni 7.971312487191774 8.806359118862805 6.993552408042843 -0.13823664701811678 -0.05222450452235522 -0.21655450619341415
Ni 6.73662791776924 0.9047267698173393 0.45217994513344906 -0.7600535756997362 -0.7791453022238646 -0.2279108117464978
Ni 2.027504084209442 6.323744549189305 9.14243967057328 -0.7262949911920523 0.5564612860939449 -0.17074336139657048
Ni -0.010430889179212564 4.733834250339519 1.2822206492130421 1.0678657890585674 0.5061584240743348 0.9405298481133544
Ni 6.440984146705317 1.8365918357923199 7.022597938334028 -0.11931512752326547 0.6122493395978423 -0.07446300420558144
Ni 3.4468063999581946 4.330563485666979 0.5401105424850422 -0.9807591279470462 1.0240169101944172 -0.44085137533640856
Ni 5.862267624467591 5.726711025867048 4.805944965507501 0.08799677702595814 0.032368131918060386 0.3262979308678445
Ni 5.645943571894904 2.8385416864765953 9.13738608460887 -1.0662038279751123 -0.05247570130121285 -0.2967446426907599
P 0.2071493661679018 5.555068945993937 12.33304005271082 0.7068042294572924 -0.3608612706650108 -0.572549192794743
P 4.051681074456549 6.209148642551473 12.5919679930785 -0.4629263528585769 0.05728289288186908 -0.2476286018903993
P 2.3046959720011717 8.442384031529196 1.2535114251764283 0.5447794788806425 0.6327983673937876 0.8331400112727652
P 6.2206585892319834 7.826880640643057 5.8349836555472745 0.26670850133998586 -1.0761020609254308 -0.6454289116736046
P 4.674198339101124 1.1784476893132279 12.565606618321791 0.5263528967443386 -1.6027277517151817 0.5000355990060485
P 4.044577279239672 5.997410584359303 8.274372080933366 -0.014949679331296832 0.06812857734712137 -1.810502969054069
P 4.509300368611124 0.9725725102114419 3.8139674045643854 1.1416536215739952 -0.108519065349026 -0.6988230110240288
P 0.19579048753757308 5.496485115819307 3.4564378873718624 -0.1762473219339352 -0.7819061527984534 0.7456715959464513
Ni 1.374422515840606 1.0777176715670733 2.6236410905910375 0.09440242344198581 0.7516486394654927 -1.1423395918974262
Ni 1.6852630133811404 6.490854587556966 4.715740254471923 0.9140171465348066 -0.47692986622652056 -0.050049094137591225
Ni 6.073052515200282 5.5324357149042145 9.100904049704573 -0.7966437161189441 0.5237709949497753 -0.4204139334176631
Ni 8.636506476012679 2.425955058709518 10.319841573324833 -0.22388883507129828 0.6498920896512808 -0.38290359517703093
Ni 2.39028321614578 4.995784450925416 6.899464888431761 -0.0254588063927368 -0.18115195832440417 0.9397415478841041
Ni 0.6307747521732564 9.004555005413687 8.931694345282304 -0.013985772756130752 -0.5267766145453185 0.9951457356860215
Ni 1.3938455508639673 1.0335932119098354 11.284470421897554 -0.17922388806375583 0.5156748482052022 0.8573466904259556
Ni 4.217343377343302 6.8544879733484985 1.642271564100265 -0.4549099103120036 0.13438462026187822 -1.2635565644290947
Ni 5.5621097961899055 7.900454377939882 7.887230528261477 0.045003304183567655 -0.13456434037285211 0.9992458738973242
Ni 5.4359050292672775 2.7394662235657647 4.818711114962439 -1.1838325689348903 0.34057063873677473 0.7389319632297726
Ni 0.8731715316210527 7.403224681341832 6.927484414882128 -0.24661584435516887 -0.534055407594919 0.3439171866115045
Ni 4.926086328487419 4.333440972337106 6.894055213491921 0.6269203113464559 0.7647538093888829 0.4586223261665844
Ni 8.205746721494576 7.035967460775108 9.085663261713323 0.5738393723610763 0.6181317665205484 -0.02501246288393757
Ni 4.725570468308746 0.41759075692934644 10.453990901100767 -0.27385925345215417 -0.3888132757932465 -0.8375296557000286
Ni 8.002910887688113 7.023045747197067 4.647145468329002 -0.17732821370293977 0.046973797646377165 0.6460824860972034
Ni 7.2941319679606185 6.2321685359124945 6.964150788776229 0.01577628899765025 -0.9849729089180779 -0.4461835861825993
Ni 2.310675748987531 5.2619519679122195 2.5504009619050305 -0.3457053888601788 -0.1326997763602876 -0.025478089666446446
Ni 2.4304691159232803 5.351720559874357 11.396575504136557 -0.8566180397900474 -0.7802413635015208 -0.012166460159204853
Ni 1.109477930688607 3.420054766071852 3.8966969447597237 -0.8072096645602485 -0.1735504918280624 -1.0850700687519959
Ni 3.535495934419034 2.637711101193377 2.5792234869792803 1.196258710513385 0.016400038624578207 0.7023418228105647
Ni 1.0870155503699233 3.2148180293250004 8.294166491580091 0.41244917004463155 0.7918390956414492 -0.30570879386258315
Ni 3.569899884418747 2.3950760298807108 6.941342210842546 0.6363120369740008 0.3814339526100399 0.49041350253525207
Ni 3.814944850817645 6.67403359054812 5.9907294199971 0.8550548090679856 0.6264600838805856 -0.15057408553754714
Ni 0.7293907164314515 7.440919756720503 11.250594310858892 0.5022179513693479 -0.31665757956460305 -0.3206507598843961
P 0.3141415142799214 5.50633151551865 7.899786261503662 0.37990954554571343 -0.2624525542771093 -0.011221322637116159
P 8.478586410697737 1.7283353919746127 8.128746976631131 -0.013456382615221987 -0.023848267372507316 -1.0935698786928907
P 1.7847880835841787 3.331401200194389 10.479890978775668 0.4096721215201267 -0.33161342954348694 -0.8927829197463786
P 3.9792043789527103 6.163459549517354 3.718129114157448 -0.6744903478159352 0.10711755701580908 1.0281581860563003
P 6.91589533731819 4.0489204856823955 10.463427258949615 0.6851334293520781 0.0013775970738169822 -0.5035261286578102
P 6.3946026584411975 7.7072401401866575 10.03315757638002 -0.971236790278908 -0.08190351964402669 0.46455848914536124
P 2.306476416878313 8.377469730680286 5.676999745996841 0.5734333951719092 0.9749813449230048 0.4901489360199558
P 6.901184186717162 3.9042638354875745 1.7101559707214973 -0.7488304532904072 0.5919785051639482 -1.464900938540974
Ni 5.199645389358112 2.990526935534398 0.5166320496859698 1.1400862770868754 -0.6230623710529463 0.21600711833037636
Ni 1.3401264715910224 1.116195063634186 6.9827204691589815 0.5816421562349466 -0.3596024585572452 -0.9455892649141328
Ni 7.055318558631717 0.6162973973641769 9.21675975597517 -0.9407134248790702 -0.024052670073829545 0.5056444605523936
Ni 2.788446441978843 1.6668830672757002 9.29867280932786 0.2685897775230987 -0.6335486152962508 -0.5329791438116046
Ni 6.223266311526787 1.9972814820272582 2.7271919444885016 0.07362970967100867 -0.7092601471969526 -0.681342337740762
Ni 4.090428230898986 6.782281042219983 10.310102180161035 0.9090505465581507 1.2339773081100813 0.465937628881075
Ni 8.117632684367763 7.050750548542889 0.2770489126728078 0.29781010784079676 0.13803558675090422 0.06769688912634148
Ni 7.6822779433233 3.859977517205142 8.128825208299974 0.005529414458661445 0.14668709177831513 -0.5871211770716469
Ni 3.1327197377679226 8.351653279961734 12.287726831372986 0.40388842495881405 -0.17522582264795628 -0.2733388621723099
Ni 0.16402393391394876 4.934538945580919 10.030512087072673 -0.20515680587943377 -0.4599009357686918 0.9723786171928351
Ni 8.574514622563116 2.39862792748915 5.734368737267925 -0.16443618823162004 0.323467660507901 0.3969256204877358
Ni 3.6568539347316653 2.7084343282576073 11.536081453191848 -0.9386719689690092 0.2216226647449409 -0.7297243285885755
Ni 1.1541688955340261 3.3824496121516217 12.583610692730948 -0.336204391348279 -0.08515185137799529 0.11991907965585155
Ni 3.146549658076223 8.188715597265759 7.904984621016164 -0.4120923009258452 0.6197816434191454 0.3964178276133818
Ni 5.617393508839732 7.804777946158139 3.3580997804202513 -0.41473256676216963 0.6579229303755573 1.3549207152653893
Ni 2.934793615592364 8.22006221767846 3.4153230989286607 0.6833354569113909 -0.1127654993302058 0.33043380741308903
Ni 3.4958225869546493 4.131261565177266 9.217180588400677 -0.009743709650325155 -0.17809594510689974 0.309079510107029
Ni 7.233399014929239 6.1215111891544 11.225904576014614 0.4205360608178241 -0.8027529143404756 1.0460980583641724
Ni 0.45374547772491536 9.062104738816238 0.3732504857718489 -0.3941264604760438 0.2798398965156213 -0.10857074452256786
Ni 4.4050813982774395 0.38672791396305906 1.6543273340335152 0.7516470968035959 -0.3051459793805777 -0.4068274529824801
Ni 5.927343783941695 5.571452635721975 0.35325734870196857 0.45286536907814906 0.3120859010335206 0.48926627630468644
Ni 7.7780263122717965 8.750913547587784 11.513601987796061 0.26949814826998103 0.6642568430133851 -0.2029608266693795
Ni 0.2777889662757812 4.891286724070563 5.784695979128458 -1.4125000563417545 -0.6067944871308582 -0.21979383906631825
Ni 7.732562022883781 8.831303331434473 2.706818439649414 0.8749376640348416 0.14338759509143695 -0.7611936028414503
P 8.491975715859676 1.671828747489982 3.649192626472451 -0.32517538722762707 -0.0808370260527253 0.23300519555026966
P 1.8056768383801365 3.2427476343169266 1.634427715280414 -1.3284586644191185 -0.3047400021914107 -0.8828941998777569
P 4.709924134539927 1.0031368139357035 8.18587857525193 0.20777547444920347 -0.007789928358064003 0.48843143910821685
P 8.420712960044796 1.7187677487964386 12.37327271164671 0.01740688262253776 -0.3760734596290749 0.4311552310945671
P 6.450947444300634 7.844442301476679 1.2971808822539523 -1.6221215828607611 -0.42268935971540106 -0.13816079947485882
P 1.853344203499969 3.056016733717333 5.939678310396114 -1.2452474817072618 0.7434298511001262 0.3587141424150209
P 6.86856068159459 4.009741706239439 5.920345196831194 0.1856681010272028 0.4354507731461275 1.170693974670403
P 2.4090947852517393 8.546728891904698 10.079141611797828 0.6836637867850871 -1.0793586201895153 0.38516925128275603
