# total energy = -340864.74943323 ev
CRYSTAL
PRIMVEC
9.34045025615611 0.00000000000000 0.00000000000000

0.00000000000000 9.34045025615611 0.00000000000000

0.00000000000000 0.00000000000000 13.67069309706549

PRIMCOORD
 96 1
Ni 1.4798449000872422 5.5075591473852965 2.3544351601715605 1.2689661654804405 0.008100003399315082 0.6868519547050816
Ni 1.2465484733765675 1.7781975630168323 13.613398986202094 0.5254756363457079 -0.3006223804786113 0.2912458243597178
Ni 6.1631746931773845 2.16903936464559 12.281204188003457 -1.2767542940662915 -0.11949973273024579 -1.3023478262646795
Ni 7.555247381958216 7.312685228567116 12.467917921064315 -1.0532639799849925 -1.1326213361683977 0.696052390257427
Ni 8.915319688070563 5.335965735242052 -0.050572934010580835 0.7366148850608217 0.21953544319860901 1.1106700287082871
Ni 4.896273378634842 3.6109620365851227 1.0439942706813006 -0.8849395124425598 -0.177622605014907 -1.1681550102986333
Ni 4.139678224836624 1.513610627859156 7.1089924249823895 0.2053933473702721 2.85485781947489 0.836524868584598
Ni 0.48677383030212323 3.681071456406972 12.208981958327664 1.3052829976336038 -0.14091136563680248 -0.06223406623955732
Ni 3.9026269371123092 2.0861895706381555 11.39170656926797 -0.7654240959830302 0.3965823782157041 -0.41952921681986455
Ni 3.5023793020488854 -0.12294180875581194 9.622677592248623 0.15795289450012154 -0.4073064495014276 0.8821292966872742
Ni 8.969512980610713 0.29768855691449114 0.9168072272720075 -0.7009673110605411 0.39211740046581495 -0.6670634592242447
Ni 5.61355457719323 0.19695553679582423 10.78442691964376 0.7615576710490884 0.027580223611113792 0.5010858946474338
Ni 7.74852931965786 0.8666434049838083 8.912567057372254 -0.5111450786556487 -0.1998672753457203 -0.1800795511958318
Ni 5.626014737870333 3.9437809610578283 7.903574256035267 0.2228555087107775 -2.0940506534385808 0.6976122785453791
Ni 5.062738883572891 4.4968944054477085 5.850031427225159 -0.18081951468564988 0.29925481070712334 -2.118137776294771
Ni 1.56972805315754 8.112078325560605 1.8740193743768625 -0.1873722282025031 0.07951599324845661 0.7055929827580106
Ni 8.977368299298451 6.941710564689633 3.537934660094962 1.0622980651628027 0.33057650363854035 0.7537525731823729
Ni 3.404323254981237 2.486315779847904 4.856075816798269 0.33883180166879706 0.2946581924753764 1.139314174807541
Ni 8.527438809181417 4.951307311700434 2.2720551908133455 0.08816955515839654 0.5820846430890041 0.8229111344559052
Ni 7.577869952542884 7.549484324133798 1.7336903174198286 1.184785676876779 2.619724264727708 -1.3238072816900361
Ni 6.518840359041541 4.589159373340091 11.385623133998855 -0.00275236593415655 -0.5661021516178185 -1.2910198028463702
Ni 1.3443896900877146 3.6530874673600415 3.977064721595155 -0.268572294021602 -0.39601467863769213 -0.31380879726189825
Ni 4.571477900954964 0.8242611118261157 13.59784246625628 -0.9150389029311015 0.9025176305356392 -0.2179475298861988
Ni 0.20561787038798823 6.3891388664161495 11.73570227654894 2.0968752673715696 -0.20572373412649733 -0.5567605625019185
P 8.058099863376956 0.9840444586319302 12.193560874910947 1.354273054379061 -0.794863741400386 -0.5844104630087031
P 4.870409671802081 3.983263044402747 12.559784985774655 -2.0538493986293465 -0.1799024021880192 0.049348725636456946
P 2.1119318516172414 3.3482151701331357 9.966345449724669 -0.7298829656536269 0.1511258442759591 1.0979469247146638
P 8.624728939325886 9.111861442918864 3.020526020955682 1.8968439556441592 -0.6833606537223715 1.3326855580162726
P -0.011062829314814558 7.618258059565223 0.3202933806436221 0.15198330718024794 -1.1499413155040838 -1.1436014893289854
P 5.142749180694388 7.77602760529009 12.000927164460922 0.49926503938861105 -0.1722402576570711 0.9553833681864191
P 0.009478688946870832 4.338443006852205 5.470122622652286 0.7984936248434894 0.27776707314699256 0.1017570640348441
P 7.758187345250158 6.044719102692347 10.485025324147424 0.12823865526514044 0.8734826767558699 -0.4006881728539616
Ni 6.007273237509054 3.946508372540373 2.9134022647536004 0.6215472199600005 0.3166231267822418 2.378345757512078
Ni 7.630055048272257 3.6666217798196548 6.428958140016272 -0.8279859778756515 -1.0849291722987575 0.8901750498098863
Ni 1.6067535980781114 4.449248768555721 7.9940748128692505 -1.0150663858693487 -0.15882089892737164 2.166840126596481
Ni 8.109210807323821 2.7636430891911656 10.86758588255555 0.41651536969420533 -0.48689751896219374 -0.19815774885378132
Ni 3.8412695192053374 5.5821706642434 3.9963676961493566 -0.15841029375251428 -3.0416471785907295 -3.0808248772314557
Ni 2.181611610726087 0.6522838071762532 7.977149916957021 -2.612324629829527 -0.16748345969837608 -0.5945465230014406
Ni 4.331325583736797 8.303099874291838 2.712989827308154 -1.1351150491245288 -0.2630950729571146 -0.6156388248953656
Ni 6.661870674220329 5.145887571989371 13.636830439781244 -1.4133336079866434 0.1932646824275381 0.9862011248982242
Ni 1.84673778719119 6.420223884956932 13.815739292585889 -1.7238033135729796 -0.851794650259475 -2.321116857796596
Ni 1.4246428389165617 2.5088636268303106 6.456025830890471 0.03490118275255925 0.2104522499504182 -0.4520606137886666
Ni 0.6555688435406742 7.139401194922705 9.205476105877095 1.6503145003552093 -0.9094868627646209 -0.6281616399527247
Ni 1.8978767524889018 7.5597961812458845 7.073818157307846 0.06004374345645789 -0.22087935882101317 0.11646943054435424
Ni 4.168839110619174 6.041095007982664 13.038328011287675 1.027787690090759 -1.0203613157197007 0.3582588000451572
Ni 9.005006691684924 5.970836140956291 6.92054230221398 0.29418768059686107 -0.6032736184617933 0.03492843644606887
Ni 8.41774456106154 8.069429829569856 10.43110757489061 -1.0715923459805352 2.457110217306491 -0.05650050618988979
Ni 7.347030064256556 -0.04842276235550627 4.831892456971365 0.46362492158749824 -0.4430707515852304 0.03515623618615881
Ni 3.1867001038449105 8.344636856698948 13.509912401340092 -0.6699456658680462 -0.3218962022557231 0.7445518805197112
Ni 6.910550822546589 5.574156557900855 8.523389723983872 1.9709652602396053 1.1382813626676527 0.4734426790088685
Ni 4.630406801788436 1.526388363845872 2.3715375246391606 -0.07726370687917015 1.3720278072593208 0.3085694032398299
Ni 6.726870867737548 0.5105331336861944 2.8721165404590954 -1.5659206101891614 1.4690715249788957 -3.4428400589952513
Ni 2.9181341368668097 7.116507751279839 11.30749493760932 -0.2422089735367248 0.9299397313023338 -1.5560758561845975
Ni 6.7342218021100235 9.098971621528754 13.560753406273786 1.2110872908857853 2.596518516035206 -1.0388591174135722
Ni 3.802721480888688 7.278144243421739 5.222410144975313 0.7573325772241473 3.302142609141468 1.8180103331747077
Ni 2.64491662564793 9.37426271271039 3.8454288217162182 -0.22083230763316158 -0.8680741041457889 0.4080027042375038
P 2.8922050468820704 0.05252975834480378 11.725476351579452 0.09350176600458736 1.9633673932876896 -1.0745941089213364
P 3.4166246280035355 6.5292456206564555 1.4471253027469897 1.083818712843398 0.34057758071531025 1.909266497678228
P -0.06720173764884861 8.853672716204827 8.040322184353919 0.6399663458971365 0.05038745131361645 -0.3238939494120422
P 5.836501784990686 6.701250012612137 5.968842888865967 -0.3063543978663821 0.7464015321339404 0.4069650070016088
P 0.6234451669284569 3.576579839094552 1.0548319951443024 -0.659991897089444 0.2754332828074934 -0.40337574698845363
P 3.563493868248507 3.820673826332013 7.3408616308898695 -0.014982075231129034 -1.1969583076835708 -0.14890389692397582
P 3.3202125001856397 3.478430387524076 3.05468871786461 1.1092746910226574 1.0100347369827123 -2.2073851378983793
P 6.292203673382423 1.84611197702225 0.7968375497961464 0.5259924280811263 0.17631828438118666 1.6793988193156755
Ni 8.58633968866404 0.9610482700359546 6.37990769940177 1.7363271570716032 1.0267718472317349 1.6567044630419532
Ni 2.5996341226774637 3.9538032642111514 0.2911091437353664 0.05763770511812654 0.26007968316955854 -0.21149714627516478
Ni 0.9252846199485741 1.1400206379025215 2.8111047192125835 -0.4001754948836011 1.322980929133999 -0.517847687486805
Ni 0.9758248623831656 8.633415558088783 12.164921186254173 -1.2717375575779906 -0.0014778700971071323 0.9569787376979969
Ni 0.5313866229873215 2.2542429521242613 9.001563801710725 -0.9031436941554123 3.0505586221477463 -2.033897638097768
Ni 7.218767000974697 5.544388542849932 4.934614058955216 1.3701470452968405 -0.5440318020813404 -0.9744321572877542
Ni 4.022362169286074 4.146403349040159 9.627640173483815 0.2737965185350188 0.4984672260776642 0.19640451360810046
Ni 0.9127189121832753 0.5688894649173383 10.14585489348249 0.43675972176553807 -2.724694693493527 1.2100943308448966
Ni 8.15721138132655 2.806226202029936 2.066557812234004 -0.3043587075925919 -2.440905068301538 -0.2148344381785139
Ni 4.128292215942028 8.577307473240683 7.203361796323461 0.4451250630110979 -0.39929257805801555 0.11616192660626447
Ni 2.4286384993523114 5.274524253282537 6.155831231165136 -0.06106138608769484 0.7147062579131885 -2.4286568470618044
Ni 6.29750904914299 1.482245395809893 6.622084092196196 0.9591492629867545 0.13404497753427239 0.31144826744952164
Ni 5.332827343947069 7.793354140564475 0.7632679714801691 -0.6911505820804354 -2.3864161932250383 0.047750527911401636
Ni -0.06184218727664278 7.994967759916275 5.738177666999924 0.36292123851783303 0.14305592278363108 -0.2894900180108756
Ni 5.99370156324831 7.39800090144918 3.845675409603681 1.1258621630676933 -0.6377009469017276 0.1314947003085929
Ni 4.962310362133439 0.5616216605523795 4.532094826383043 0.1381173478314331 -0.3531065664202564 1.343021649834958
Ni 4.717683969229864 6.415964639628027 7.896178487501436 1.349137790035025 -2.380113133825146 -4.053802047240238
Ni 7.95442086523913 2.9078129393044403 13.378523089348617 1.4446133919365312 0.5171514327507287 0.6927549504530779
Ni 8.47787837998148 2.355026410674455 4.310587916019175 0.06308510138594296 -0.06738475720256137 0.9528996825326169
Ni 0.15510378121418833 4.728864488218242 10.077816251488313 -0.060373101771418594 -0.7678252492253551 -1.2358488141011812
Ni 2.573032520272371 4.839091142004231 11.669577492817684 -0.27340853906798074 -1.1930247769571196 -0.5084557047489436
Ni 5.106256041439929 6.545880962609922 10.01911432359671 0.7065157516825962 0.0669173306478396 2.7839239114684893
Ni 7.149049880064721 8.392011620532736 6.798353333750953 -1.0962404835465185 -1.4493465357461428 2.776924083111888
Ni 6.010785246815345 2.5487473495373845 9.758496145764148 -0.41248285149604447 -0.6645378645889136 -0.32409423834830636
P 6.641246959996156 5.859759506194578 2.031984135512638 -2.4872021515958647 -2.227443342100835 1.271430824970849
P 2.740824369150561 0.6080465005924189 5.814829138199768 -0.6152652436060307 -0.6482776939763093 1.1104463427332552
P 5.564367766004599 -0.03247861372295946 8.645032276105361 1.2184576152079274 1.4701087079941586 -0.6506099416539118
P 1.939180223638944 6.804957032100812 4.4134057246409375 -2.119632615672743 0.13490398310045798 -0.3531680157858111
P 6.265854263134964 2.4124234776615667 4.632820374141483 -0.20065146180991247 0.05742430355573982 -0.08810013537304183
P 3.1759025433181245 7.074120787897006 8.934003390771021 -3.1810025125943215 1.2333849259417209 1.7156860837824839
P 7.8764187649284105 3.493561916982029 8.698866895354657 -0.12005072013770937 -0.6195715842908684 0.1966629094758097
P 2.9523762276031404 0.48303017782882224 1.6217543612321068 -0.9888218503505228 0.3764809794801387 -1.0689731631901331
