# total energy = -340872.79357395525 ev
CRYSTAL
PRIMVEC
9.24983603130428 0.00000000000000 0.00000000000000
0.00000000000000 9.24983603130428 0.00000000000000
0.00000000000000 0.00000000000000 13.53807001956914
PRIMCOORD
 96 1
Ni 7.647348240091273 1.561316833690714 13.202055186484692 -0.26941073076249733 0.7225203546409685 -0.5737696954654053
Ni 8.907777155472537 3.800480156039336 12.830042503495822 -0.36285130451184605 -0.5453188963238802 -0.24799626964246319
Ni 8.250520801960402 2.028757300713003 10.029394705571189 -0.7010804395996378 -0.11819104122115129 0.48701758947982576
Ni 8.393847012240611 5.286318327201073 1.526863969190508 -1.5070374626997078 -0.15294309999035596 -1.061036939062192
Ni 8.135813584555763 8.085355728661698 9.64996365403474 -0.49999883223084207 0.7612182854317987 -0.08728895232565612
Ni 7.382488433368878 3.656006966083442 8.029212923504115 0.5137727460864829 -0.044872435032658205 -1.2998122043270195
Ni 3.8609555844234604 8.190517115217084 12.115327093149892 0.869672044760528 -0.13718249472198954 -0.44232975965414784
Ni 9.004558190526543 0.9033704424059485 5.854958475979585 0.06612517376384741 0.09253888787068579 0.48982471991131765
Ni 6.150678510863185 4.582211553871625 5.96695826635944 -0.9961538652355618 -0.23253082701701244 -1.2031772920100892
Ni 6.583552340401308 2.1045412078330905 6.402992764890965 -0.04891369498156738 -0.6869702254505007 0.17781903729642923
Ni 1.4159279099614899 8.4275719146402 3.598987276464124 0.18217011517627335 1.816849222987071 -0.3660728967729373
Ni 8.715223317498797 2.936915458281329 1.6784632328734028 2.0155224780246903 -1.5671220866964302 -1.7079997708818198
Ni 8.38164647843231 3.5198308791040778 5.623389754343959 0.820165196279652 -0.27454111001052717 1.075649289658728
Ni 7.642270080075536 4.088048310373083 3.552633572845072 -1.5374610692968878 0.5366452798092822 -0.7782587858538532
Ni 4.146109531536612 3.4486718900311093 9.549442910247835 -0.006883614493710726 -0.8350608824445618 0.2332926448837014
Ni 3.4025244577569587 0.9301727674726109 13.263382524773094 0.3862267460129929 1.587784500141788 0.09811586773783101
Ni 6.206510521528001 7.167327995980821 11.45021577882653 -0.8501103205785167 -0.3974267284938704 -1.874384083978746
Ni 4.029663344946257 4.643075475371707 1.7125525788151057 -0.5268820297749313 1.1783867153289707 0.09190536805174494
Ni 0.16705758976358467 0.3072730801653017 11.49273820033535 -1.1651239367817934 0.4988197243210764 0.2208140528007165
Ni 3.0062244801354496 8.898851063641597 7.723753736196892 0.8936462961879383 -0.5714564739511964 0.6189324080449727
Ni 8.288833623062732 7.9296532376874 5.421969948473893 -0.5671961560129457 -0.02800111319861629 1.9127562559990414
Ni 6.6051229581730695 3.9009611255310377 10.082057722390122 -0.35446796554415727 0.5551955320076438 1.784667496048204
Ni 8.893726654445391 5.312643360725272 10.943498657780891 -0.957884280231402 0.1354076622097539 0.025227407108221068
Ni 0.23679210407804072 3.905225299970481 8.879917574140304 0.016739167131551817 0.17656022518866366 -0.2377131425489003
P 4.591618637179464 7.308739490189523 7.285972868610776 -0.10146781492919944 -0.9199571661683253 -0.12285296547319487
P 6.6845790502225695 3.421181377159036 12.319440451290603 1.2976306232946684 -0.37006813397525945 -0.5265408443854287
P 0.6724695589363276 3.0699651006608404 10.83497773075608 0.3180804280540587 -0.25226455800051395 1.4961521832457716
P 6.765367118669639 2.9383491828759354 1.9498201244683901 -2.7833341004032905 -1.2025540566037933 0.350332603219545
P 1.2428264772939306 5.779353090696116 6.884825976875887 -0.15370234675388367 -0.5309945092814081 -0.6061283143017691
P 7.72500986393849 5.589546454042364 4.997159201059116 1.0390882027052428 2.276916766240614 0.1918631740943212
P 7.5709168444445885 9.124944807293044 7.453479075424931 -0.1024054962521204 0.060732027772734114 -0.7875384113835663
P 3.804994076053324 3.3640451396049307 13.57760130686156 0.4432319597534431 -0.5751310945893063 -0.520818854299987
Ni 4.953777469777142 5.614206517069602 9.198238658536562 0.9654389526502083 0.8033638084515972 -0.3509676657003827
Ni 0.8972489008787822 6.785772257093527 1.7266317543341445 1.4560234335456859 0.24601163511226665 -0.42454723885974627
Ni 2.261917919140446 0.3818674583636701 10.55729857619068 1.183532264085652 0.33224257848705363 0.9349482402605188
Ni 0.31816753711709456 2.1780589051100896 3.9010489989739328 -0.1823367226611247 -1.1337932449893118 -0.759329553049518
Ni 7.7726742693320965 7.575005271998243 1.1467354800125544 0.42278860429742676 -0.4958413584190428 -0.4705633005785444
Ni 1.6129401689326532 3.6569134500206766 5.333092898362413 0.01880916228670309 0.738994955257224 -0.23231151191735475
Ni 1.5244932361995547 6.9379043113354495 11.395589021804792 0.5516800626552176 0.831748016021245 -0.6984394024323649
Ni 2.4452404206921377 1.6449816011630916 6.75751400782563 -1.2207314988437685 1.0495592774398959 -1.4209204191949658
Ni 5.380333661262902 0.9791136502472213 11.861569864691411 -1.3573385806782625 1.9786636573251275 -1.3305733967692763
Ni 2.6990651729541075 1.6929420013117127 4.050901893602235 0.006985173068581518 -0.5354402037575875 -0.05443153947600303
Ni 2.6796590168283974 3.1463872464714298 11.782263619986638 1.56664591839096 -0.13092520095836807 -1.4580574332565794
Ni 1.335130591678326 1.9319022669702426 13.047924242662804 -2.3620403354838353 -0.7873826025319922 1.1172618229931919
Ni 8.52523168412316 7.108434289568811 3.3435919020333533 -0.27055667144148243 -1.6056266705295315 -0.1901680457800854
Ni 1.8924054668478487 4.854711725207859 10.320192902669046 1.767776890940452 0.3348193380752943 -0.7816474998204281
Ni 0.6137552993445461 4.3681333473065935 3.0283584129253507 2.79890984335436 1.3363090137014726 1.0971568247132006
Ni 1.1474144179818715 6.672878007563359 4.861601928114457 0.3174785328040016 -2.2800681673854024 1.0126896581070561
Ni 7.192163805893848 0.5512671066263156 1.9513093480795625 0.8444312679158683 1.0770014328112483 -0.5694633547805676
Ni 6.072535895539066 7.146654612310201 5.294156638307329 -0.5180963131625013 -0.48329308944038696 0.8830713488855696
Ni 1.7689664041702502 4.232724996723052 0.35431682155698385 0.09999920080347294 -0.011641440893670274 1.2185473467082562
Ni 2.662278574807325 6.669955059357579 13.605625535276271 0.4160119476952255 -1.3847051456166735 -0.05986325201453561
Ni 0.170249708199706 0.7869917796190814 8.38328739935543 0.42997175230942725 -1.1834880411112778 0.4943737727345809
Ni 5.169270901264592 1.857783330347118 0.9395650510426996 0.9003640745277461 0.18622397353067283 0.13921238066782476
Ni 5.242048611654052 6.570676568558129 0.4503532448054041 -0.5797022588997565 1.0808303196390354 -0.34269565549957753
Ni 2.0738040024919395 2.321015121946529 9.086631061207102 0.13384905947338238 -0.546096140809537 1.0121553828701406
P 6.222346240921336 5.910145773068634 2.1692049620006855 0.6738414013780266 -0.4852167888256611 0.6616176056183252
P 7.168151231393208 0.15418829280567214 11.206354025021664 1.5499892836708853 -0.5687048793479883 -0.4570552387897806
P 5.2830716347319955 3.799277677347085 7.684330009779644 -1.7549902806987452 -0.7613851500269662 0.7063118632019062
P 4.334075450807611 8.596529420737541 0.8362989559030235 -0.04803951990673017 0.09217764787652512 0.1843133867715213
P 0.4604725654924998 2.549439824293722 7.181959386714685 -0.012267504513443387 1.3616055834847325 -0.5730140482463035
P 4.195919898904081 1.2148364732727681 9.903341639213359 -0.5323211985126316 0.14316468044735342 -0.6649510408669322
P 1.5640270356663255 8.182775002406206 9.29469779929449 -1.1484960984171253 -1.2257801170112694 -0.5308492419527954
P 7.407259494429246 5.969326224399565 9.407807570005653 -0.821344561299734 -0.3576813302751324 0.2751772009326293
Ni 2.765719491849182 6.351954944273791 8.355534191138279 0.40721466111856963 1.3606779294641405 0.2518161576091857
Ni 6.932058414923891 1.8310790535430546 3.997724585896465 1.1751116441221245 -0.3375261954834961 -0.5349380673101883
Ni 3.9696874077112216 3.1085554168459986 5.493654328237015 0.9365495233093676 -0.4606912928804711 1.3044301627150052
Ni 4.74735812749814 5.76912277197589 3.924361360882239 1.919170129945185 -2.6453116262785086 -2.71820728599697
Ni 1.7622695228380223 8.674154045240382 13.040857367886806 -2.319093142498348 0.6337859281180376 0.9156127731567005
Ni 3.3928768787106693 7.188667367850227 2.3293464493166085 -0.11530034993691755 0.00628840411187304 0.21196611549178335
Ni 7.144314403778358 5.555238811968838 12.94259820902494 1.408842147874193 -0.19791966470104624 0.6189123534403148
Ni 4.40383771463035 0.20622879565546137 2.898731209900707 -0.2125214737746211 0.5108702277277072 0.4096104150442558
Ni 3.7666442556066158 5.323585916824755 5.908866520736801 -0.7997488374068291 0.5502417875467943 1.8855917797691073
Ni 4.455701545610739 7.969131538137604 9.597327461740484 -0.39877450077101645 0.7167209743503722 0.12441799596746958
Ni 4.586050235850733 1.53631452672799 7.612903700443551 -0.9505134416886277 2.6231212062243987 2.02952290606884
Ni 1.9969841137292974 0.5797640016654424 1.8483928967442482 -0.14741162864916546 0.29268847034351525 -1.0136245112164997
Ni 0.9501061642556926 7.941622525593343 7.100014163772227 -1.5847824800906707 -0.20628526305692213 0.1318626251709729
Ni 8.3660975039579 7.496381665197223 12.343863718513827 0.9712763852675917 0.7111979876496138 -0.22142211869836062
Ni 5.100285623673769 4.837775275319311 12.376191895663187 -2.1948726072536653 -0.6018564263992926 -1.1658181346353405
Ni 6.364035230212864 8.742982075617604 13.253175330643105 -0.5999327270140183 -0.4045746523925613 1.1387711578198774
Ni 6.284236894227878 7.96573684829102 2.9695895793006133 -1.1195380206218783 -0.9959342930255881 0.8693036056775157
Ni 5.3678278828634935 9.195169562920494 6.400393560948484 1.11721348625376 -2.2996172931619236 0.2297056988633915
Ni 7.644138546966572 6.101478632677935 7.16081333641965 0.41137676291605924 0.4047183770592772 0.4943709445211034
Ni 3.637081801434632 7.326924667950793 4.8277299533209685 -1.6251783674092137 3.6657217929582737 0.8190004865475895
Ni 4.775727374799166 3.0524089117539774 3.286772933857281 0.9588489581375164 -0.6356072975974925 -0.47254073601988933
Ni 6.2261756730643505 0.7478871725470831 9.170011858711387 0.8777039139260691 -0.5449093195902873 0.47968840280826414
Ni 2.389195663797153 4.146109531536612 7.5894017168953125 0.637048143809077 -1.1950078688254193 0.3340284667428828
Ni 0.2517981131737221 6.346164546878798 8.766320337066974 0.8117636024795182 -0.47690415519490764 0.6804223970296539
P -0.2476134873246891 0.0795032662135802 0.5309979407930132 1.2098477620517292 -0.04170714993079914 -0.645979641970752
P 0.41623244942098103 5.938737016435922 13.122369698500055 0.04626211629133323 -0.268088412406648 0.5799778811586463
P 2.5414572157443955 5.373683029111145 3.594398432777773 0.5784485889983134 0.45359941903069617 0.23296817166474715
P 1.968059876262617 9.057800247084973 5.663651515911348 0.7333750379672853 0.2846103213210711 -1.2595279028856758
P 1.976791721535577 2.7382382288132026 2.1785324967181143 -0.6818956391410708 -0.045602114109831136 0.3317705239466415
P 5.094097483326724 1.3026266676431757 4.831371613791271 -1.5789627880851 0.4622308694534491 -0.7257195783045566
P 3.86460001984459 6.289601799162536 11.187143965421152 -0.35411238197695144 -0.7073585592988657 -1.0697275248576545
P 8.54042916482599 0.014323371191926672 3.6512581002326603 -0.18338496141998092 0.8157920069126209 0.5761150557691304
