# total energy = -381162.4800312986 ev
CRYSTAL
PRIMVEC
9.30913742669896 0.00000000000000 0.00000000000000
0.00000000000000 9.30913742669896 0.00000000000000
0.00000000000000 0.00000000000000 13.62486360601326
PRIMCOORD
 96 1
Ni 0.5936632335171261 3.9192026495930223 7.649066756053471 1.7621641727393653 0.27065334492034676 -0.94519228658603
Ni 5.8452817710452 5.631618452200674 0.9410150728359588 0.42654807133985895 -1.5817426648230823 -1.612395613822249
Ni 1.7934797700396017 -0.06878521535997786 1.1322135815970242 -0.07995333789619134 0.676393735486235 0.3369003889740391
Ni 5.9423667637355795 2.2962476562436462 5.618797908339019 0.13961141587845632 0.9614815106643569 0.2886125005019287
Ni 5.79468660992983 8.719021758437341 8.83733158412552 -2.0964363800619377 0.7587263722478804 -1.6738655482022722
Ni 2.896147080824468 0.7921563822505937 3.54194706859049 0.03352718522316807 0.45122243415808744 -0.31234378268059754
Ni 7.894530087845581 6.9484145386940535 0.899886373420352 -0.8544667977749993 0.22357181805151174 0.9678365063481074
Ni 2.986250220555044 3.953525438743413 0.6936992227251817 1.7982231232454513 0.35896611052482696 -1.6430243944516993
Ni 5.319585479721163 0.4329540111746557 3.772165757173302 -0.5836386178396852 -0.4554233596133125 0.6489976028614693
Ni 4.261099334465929 5.185896959246858 12.350829929189135 1.1335330493493898 1.30072931682465 1.0967529044065627
Ni 0.671195314265145 7.4443774455466105 13.86234430924905 0.4197104795927353 0.026930762952572976 -0.5771162433401351
Ni 7.604308424012494 3.2584959403009575 2.035827333584183 2.1419292222874144 0.5982514826568536 0.3073764113729932
Ni 6.330790516732613 1.925464718391715 9.581344832020227 -0.40841279519172885 -0.3242397627872351 1.5040472697231324
Ni 1.8363483472127913 2.756416930255613 2.2284147656273854 -0.36917339007513195 -0.8917809608444255 0.3650681096575068
Ni 6.910386712906327 5.264205422044006 2.898812286827657 0.5538927540358202 0.6309124632249844 1.6780618456718068
Ni 1.3752760868846896 5.307902512435093 1.218956122769615 -0.25716225241244745 1.3416473951952506 -0.9105782960565866
Ni 2.897748252436583 9.180457075119353 6.971365285743518 1.0973704833859035 -0.31379208509134987 -0.2079935039972805
Ni 2.4213066064596354 6.102288433064183 7.555477344411634 -1.0612315715715013 -0.44917300782822644 -1.2277351838551116
Ni 6.366314184592089 6.055640346155421 10.579365337902383 -1.0827882146963546 -1.1056250100852119 1.4701267057162875
Ni 4.740361649038637 7.194734311115899 7.067707409278973 -0.9509453870197235 0.31559854217246935 -0.41743248219183593
Ni 3.037152583200647 3.942168291262134 11.102519303835324 -1.5305383740351255 -1.499169887026173 -1.3308505616900628
Ni 7.351500182906673 8.060577169504253 10.0986396269493 0.17052327496596437 0.8195465888590466 2.60074540963236
Ni 6.98822040970221 3.2162883118746293 13.60167357079676 -2.814986951421881 0.39063130283859177 -1.5087598447074533
Ni 8.180767440922939 7.090248554288129 12.092965895626687 1.752576271940614 0.6537176340449581 -0.29079151043111856
P 8.950418983799768 0.3410970299805773 7.7565528478265 0.016893690431545098 1.4894511170765121 1.2454613974902808
Ni 4.136580314212165 7.927493742953129 4.740716327168996 -0.8545742698871411 -0.5917586758436584 0.5043841057827314
P 9.421312383957991 6.968857404160357 10.1145266006309 -0.39454066519532693 -0.034163790365902454 0.9091533906846019
Ni 1.9350903663389634 5.849042662506214 9.99556792807432 2.3975297866396965 2.692019057637377 0.6873157817153775
P 7.422733701371221 8.765949119464496 2.981910300755231 0.7384704502123218 -0.4661685139449584 0.07996079409535907
P 7.307886874751104 9.113431286705245 12.147356392011007 -0.5074501463025648 -1.1442679192683907 -1.536188630342367
P 4.555417018702099 0.6379626250902114 5.737838501303658 -1.3887518048822214 -0.31180667923020494 0.5746299865831717
Ni 6.938360670431938 1.2386738064418266 7.622975106085824 1.6361788322847757 -0.42526920462743534 -1.593360965788301
Ni 6.880141325884462 6.514208448555273 6.043062770776768 1.1373858474365768 -1.372765456756294 0.5222339894799587
Ni 9.052791566465038 2.689065322036715 0.24581335535382756 2.8357298403961875 -0.23244932304679966 -0.6949727840400032
Ni 2.6876037874837966 0.217463308682116 10.176274108207396 -1.1935757643645832 -1.9835384689189262 -1.5282225814177552
Ni 0.24443467212269845 0.04104305535263317 9.78743423677396 -0.47694066485979797 1.1058746642021728 2.2363082486906323
Ni 4.255821053628319 5.831764903715022 8.937460664706373 0.08905838552125307 -0.7915637304928755 1.165928692071276
Ni 6.436384060896671 1.1985234973543202 2.1172897320917072 1.0839596092966364 0.45101983122897804 -2.885876122233275
Ni 3.9236431080754572 7.3011470593605745 11.07935723936961 -0.43220964050101046 0.1476880222390037 -0.05788838767635192
Ni 3.9385377277230367 6.882673411224549 0.5936362370190148 -1.5766647360795427 0.2775274463323607 -0.23552050577295566
Ni 5.980729718465375 0.9937131680628227 13.351030635022205 -0.20369153418781694 0.9109346509547408 0.4341510804980975
Ni 8.236398845306647 5.344934260533887 8.354752423940042 2.2080837066273005 -1.4543437318504178 0.018556679956264817
Ni 3.6452812851367566 3.489958329624342 6.5547851161301915 0.6321998145778402 1.5125252252871562 1.9745478353845414
Ni 8.50547014924017 7.558954307185615 8.327053085964184 -1.208069329995068 -0.08401722355291981 -1.9023697705583948
Ni 7.6572215603105205 3.9260355563563496 10.014710307062645 -3.196405220302637 -0.20635725394543816 0.7362392468889579
Ni 2.48558619937622 1.8274860485224815 5.822449250039189 0.2280727912456588 -1.2597724147963143 -1.510295307515373
Ni 8.893772883452568 2.31806827402735 9.071951632814192 -0.2741765275822568 -1.5334051540599591 -0.77041435010877
Ni 5.874093550925987 8.079828465398748 1.5856346619949102 -0.32882249706191113 0.7914359466657596 0.4792646850072843
Ni 8.497138471374805 7.244724378308088 4.324326994869904 -0.8087649248625104 -1.2218897808179279 -0.8636710899820866
Ni 8.357585194414266 0.19567248013770724 0.21228929018203807 0.7001481575933556 -0.7862027232912782 -0.06970312092309287
Ni 0.30078101824949155 1.840891206205303 6.374296769809464 -1.37860803158 0.24427331226492127 -0.5474274580264508
Ni 6.0029785565639475 7.377872968820169 12.904611887686139 -0.5990212709433426 0.10604592121818511 -0.8329163252977333
Ni 1.367260919686836 4.914796263386353 12.488454352905313 -0.736537494855667 -0.5504042812665876 -0.32823448576892506
Ni 5.806537141686935 4.104649973342666 7.5047928155783765 0.5983052187129244 -0.5906847260531892 -0.09651252780645314
Ni 1.0252711434411317 9.056077691924784 4.431446306634111 0.14241751786868376 0.8362083657854439 1.130968373946007
Ni 4.660954708042479 1.6070456777383055 7.698470347597037 -0.8837380359352909 0.0840251939727198 0.6491176733791015
P 6.27703955807941 2.8642912130532077 3.5113591053167297 -2.2915959655193436 0.2701982596607992 1.4355263420335986
Ni 2.057179701762716 2.0399577977952026 13.323889845283134 0.5102156248628439 0.006254722660460195 -0.1266049763164594
P 7.916825471630551 3.9173222038625157 6.731254707887257 -1.0269451395848057 -1.1201244892529678 0.08697167819555345
Ni 3.668954421239128 1.645036266976913 11.269601561559503 0.719699854473038 1.6074382698169736 1.8005643697841185
P 0.7357765232295935 2.150959950718788 4.02418551435153 0.6280716513420797 -1.6864169025047213 0.6182328108747868
P 3.276322938191654 7.820308336314237 8.857387189480987 2.3165770609447134 -0.29069715094509935 0.5713711133262418
P 2.7202230045119955 4.618923953224466 3.171786912022574 0.32777631518558387 0.8886992365953083 -1.3623056948755505
Ni 7.823771335382298 1.7816571656943354 11.636287548094622 -0.6584368938974983 0.6514218960322459 -0.02375879298249457
Ni 1.9535690038392417 1.862041566104866 8.356074321433764 0.3098279582372793 0.3884841745886019 0.16795705690068494
Ni 8.987227312603848 1.1072753337383363 2.0811432829482155 0.8724215824812072 1.1401549255412815 2.440690638297887
Ni 4.121341256485235 8.990476201514477 12.974793473638076 -2.3756702675624437 -1.1866489553377628 -0.7337198229012137
Ni 0.2110241784257218 4.861696944342731 3.011081413335015 -1.0234299273426957 -0.47694554995580435 0.5774929099532635
Ni 3.9746851077802563 0.660675058225314 1.2288563902666156 0.7873592054932246 1.2935597956594045 2.396722460247053
Ni 1.356425083893222 8.176336291577783 8.262199119277438 -0.5149675377255325 -0.6013185516179514 -0.5140740793769857
Ni 5.364846505175246 -0.011081597017799115 11.225374781257198 1.102266120915308 0.22026383672420133 -2.0658284253680943
Ni 1.0752239740842013 0.12914379965433767 12.329520383042087 0.17993865474259335 -0.6302702016552952 -0.12097246062103037
Ni 5.4222187182302655 5.093122097116997 5.092851201222157 3.0625798149783385 -0.9536170203146158 -0.5197474756126791
Ni 0.48461134485364515 4.355372967697828 10.033376989135975 -0.15555739768475146 -1.61258150458081 0.7946403125356702
Ni 0.2398070999809411 8.13540401495878 2.5588174587010006 -1.247079392709678 0.39688036907209717 -2.662145924227028
Ni 3.4897907651533067 5.588721947615644 5.501025219871881 -3.129443409570107 1.5770020648143035 -0.5768547621486324
Ni 5.408050211290505 3.0567110806253743 11.917422563028955 0.5384537937729307 -0.5782233603613848 1.292223593346484
Ni 7.93031441154889 4.857731251861563 12.128104165202783 0.2686872223329115 -1.1055489054316379 0.3208698178737377
Ni 1.8696005855760125 6.793808386752179 3.2087367397133066 1.2488675949583525 -1.0609572348641922 1.2116213090123842
Ni 4.756894676847451 3.143928387799232 1.931419773509563 0.6595722930535222 -0.3441496143372847 -0.6371116500571609
Ni 1.769527359818838 3.956792945928601 4.974655877922518 -0.9446065892858891 -0.1754379386587624 0.26301151210437285
Ni 8.87137509915752 5.046129572128884 5.223582208782689 0.4098898939578876 2.9529490046223725 1.4782899582533702
Ni 6.261372280037612 8.591626214764139 5.84153763603129 0.1434680706203852 1.1329985170021584 0.4601801575720074
Ni 4.701086398855427 6.2602086378776445 2.800563651977311 -1.249458691575132 -0.7469599757405716 1.4658309065544108
Ni 0.6728216205479152 2.2226403077727643 11.21472047364054 1.6114124239733731 0.3252664042795366 0.14708689831989508
Ni 4.12151813009355 3.305227809445238 4.2120587992762735 -0.3854585003884007 -0.39807978869683697 -0.1600419158186663
Ni 8.18852195227696 3.1941698016979734 4.418121207531896 -0.432486548311481 -1.4639501445919305 0.19512590400599297
Ni 7.6733542952163045 0.7898765745307861 4.790992184875671 0.84064763250372 -0.025825959924168425 -1.1587041492983787
P 8.452920069296056 4.940796683808657 0.6704710633847815 0.6152516167592759 -0.8785984007158805 0.22797534643584608
Ni 6.405682526148098 6.231229293525824 8.362900711800997 -1.9652430130438479 2.068574363544347 -0.3453999418046181
P 3.556053204310476 8.140980188189342 2.6613175765470025 0.1463991282242511 1.0686342917934755 -1.0853477478934146
Ni 5.070268165095243 3.801525845239865 9.940400118727142 -0.14520073704077574 0.9523903469963662 -1.7519941741848988
P 2.7433375923775825 4.087995926749216 8.739164869683236 0.22195048039800483 -0.5604588372891122 0.005768012832028776
P 1.1639121249482574 6.489483379940292 5.679224449335521 0.4857142972873699 0.5329876284520368 -0.10767780039465326
P 2.2702844723704594 6.83485237301854 12.664787100344366 1.7791738199234843 0.1294262478153384 -0.7634440894385239
Ni 8.787481153992529 8.448591320460977 6.128150147341022 0.41759111925688724 -0.47300790546429505 0.2564857951707131
