# total energy = -340896.14146268205 ev
CRYSTAL
PRIMVEC
9.02184862927228 0.00000000000000 0.00000000000000
0.00000000000000 9.02184862927228 0.00000000000000
0.00000000000000 0.00000000000000 13.20438741138124
PRIMCOORD
 96 1
Ni 6.289274981348051 2.049412140932075 11.4596260211545 0.4854433030141704 0.050528090656538786 -1.4192522874639235
Ni 4.779901673420114 0.20727877505532472 6.06688821869272 -0.3657509946571443 -0.03800270449601842 -0.7945451817187026
Ni 2.7357763357446987 1.4164933769939485 4.8966353719489994 0.016502111420081258 -0.736333606374977 -0.5361297736254445
Ni 3.440797713381168 4.325101265618921 4.907423698458068 0.5030327339611594 -0.8192848505572278 -0.32530368527537523
Ni 5.0012166404664145 4.473005450925555 2.5359423901217903 -0.012866314439706875 -0.30703753997633576 -0.15510076976330706
Ni 7.0527850032045345 6.138411629713456 2.536602789436445 0.8226535099191444 -1.4200986946246188 -0.1941915651171817
Ni 5.164061006989823 4.709071140368851 11.329681629777957 -0.14401777247626812 -0.461828748919024 0.6746482135500381
Ni 5.583946860860513 7.967077180058563 12.306898493789374 -0.2892539907406696 -0.46071391858829047 0.889422745024894
Ni 1.985744955638131 6.415274118348933 0.5225265227626654 -0.4864339490622138 0.16448941006705864 -1.2853376648599282
Ni 2.688528914831508 1.5255945916403517 0.4391213371872856 0.0007101386931471641 0.26104718928915044 -0.4708888022387632
Ni 0.4769779159334836 8.94315097585732 4.78253695538474 0.8471453244129217 0.5661463745921926 -0.17989288910632242
Ni 8.587329268617253 2.4917623977192904 1.3969709988931174 0.1747987624128667 -0.3429177988127126 0.39110875669564255
Ni 6.887676152692351 0.7754621668299021 4.825648760917634 -1.2322353857183101 -1.1681218430678528 0.4846004953979009
Ni 0.6573535385803426 7.397230159409365 2.4860299151437237 0.46674469816340264 -0.3645963122274108 0.287591258326266
Ni 7.346852157045558 3.7021065350977334 3.8099013860725246 1.1940424195883566 0.1386081714249226 -0.38151622791120104
Ni 7.600672844456614 3.9292135289201022 12.59084584009969 0.36595051226246006 -0.4516021860950093 -0.7046828122389155
Ni 7.853618412557269 8.803041667707264 7.103141353131795 0.8074305223218031 -0.4247583264292878 -0.3573103200889588
Ni 6.792667065498002 0.7530961020626898 0.26379614536479234 -0.1326874350651134 -0.12738247791243223 0.20403966155585504
Ni 1.9232325669599761 6.62661092088693 9.250611063886932 -0.062055117459531836 0.40447103693516145 -0.5384630497443114
Ni 0.10708392930819628 5.013693857026075 1.4342077766431844 -0.6592827868375614 -0.5574740436291754 0.30254402298135635
Ni 6.575448017698329 1.9077871622237947 6.977660070238306 -0.9225028154083145 0.1630328801261902 0.44606505832686405
Ni 3.3478004984158884 4.268173401199934 0.38946869144777146 1.145254451551376 0.1795311348915295 0.2150918056049586
Ni 5.809429921941928 5.51258403874416 4.713464780617987 1.298957826746524 0.05573046079308467 0.6882228669106792
Ni 5.17332644546182 2.923773616055767 9.219078800981892 0.6771871779218079 0.21242042942038256 0.24065679855825653
P 0.17941840451455257 5.529599245129931 12.341467510919996 0.6884151854271435 1.248307351579508 0.17614936290349018
P 4.031864121845495 6.171801491237176 12.6331519945561 -0.6890474196945036 -0.0018239405826162133 -0.3796251815360753
P 2.333248518505092 8.435690038006424 1.2080850664988048 -0.24580466130778314 0.6322620352743433 1.3222857028391872
P 6.4332817280763965 7.74963258604487 5.813389611275286 -1.123125995083453 -0.5705257346068109 0.4136277637337651
P 4.587790430165296 1.074962277874273 12.543956586574364 -0.0036152281550840965 -0.41169712236995554 -0.5426503483527816
P 3.9808816556281106 6.029770529343656 8.355419042621085 0.17567062349485874 1.5585402585646901 -1.0093600795131907
P 4.479916186923169 0.7861359158622482 3.7009914346156116 1.0683704966091279 0.6435556059102917 0.5937456243667
P 0.005866005934267041 5.486925901437092 3.57949780878602 0.705987904203584 0.2043656774367061 0.9511410479702974
Ni 1.5025527904159315 1.1061147209549005 2.63823662002903 -0.7322044146979518 -0.5488531347293838 -0.25875247971770277
Ni 1.9092757672363356 6.347772647416626 4.91348457632125 -0.021085359915389495 -0.18499035823388785 -1.5130695278264006
Ni 6.020865964814094 5.628325333931352 9.184681198973927 0.5030360763952691 -0.5857358666883461 0.2447173417808753
Ni 8.593581409669923 2.4212837167619017 10.162492602805502 0.06966249749314454 -0.21575874976499615 0.26484265177584065
Ni 2.349659261037284 5.091994480685724 7.009667784562502 -0.06392302390620605 0.1727061415498961 0.690001813187973
Ni 0.6753945291474818 0.018059034264260743 9.050102283991672 0.10705610765025435 -0.37276393563986765 0.8825293603391703
Ni 1.5475357273403476 1.3582573445336381 11.486403769867971 -0.7761108862729149 -0.8189169256948476 0.03528093468948117
Ni 4.195006209371411 6.959255499174164 1.5854247847413647 0.12566523811100938 -0.1981636623910523 -0.019241107617799118
Ni 5.755704813762045 7.708790677609885 8.065847475917934 -0.675323899460824 0.728311507401449 -0.19361049580273107
Ni 5.258817482424469 2.611743961730083 4.845468860020974 -0.5179711004385466 0.2595379517334756 -0.16627812653636526
Ni 0.5532035144241361 7.2016815918528625 6.576035340039639 -0.2961736006786383 0.4674419813407434 1.1804777935300446
Ni 4.957830570737269 4.505863023384185 7.084444474174282 1.0232442936944506 -0.08929389857082687 -0.02342840622626933
Ni 8.282562202383055 7.049925077210744 9.044662109309478 -0.4809009350591267 1.1810313520406692 0.14353877595732054
Ni 4.709928215982133 0.28350437354597713 10.41340193968597 -0.31682444415977046 0.5103608921914565 -0.9113259728558886
Ni 7.972219633738251 7.297502645417689 4.437783251959127 0.578787460394971 -0.9313402111942862 0.11338384964049505
Ni 7.194419003761376 6.010283336452212 6.967109920531243 0.02667442396739277 -0.10257390350918463 -0.5630188847068045
Ni 2.3706170152441475 5.329566818838684 2.5915196838112173 -0.520895216063877 -0.9348302266254158 0.3869062885785208
Ni 2.281860069102469 5.368270549164745 11.364607009926734 -0.19288364493903556 -0.5245870630931676 0.45919516795091886
Ni 1.0764238173411311 3.230940494007151 3.869386944558513 -0.4955629079466755 0.7036093766690785 -0.322267983772845
Ni 3.525548958761827 2.6028303753519597 2.826570415291418 0.359534067213155 0.1909416907213163 -0.09475132214097229
Ni 1.1412999303422298 3.2722786041129823 8.283112535145268 -0.1237086286052708 0.13070460030712971 -0.4602030403901429
Ni 3.697965506608301 2.596063988931319 7.027309107238395 -0.23135891819609833 -0.32132618868486595 0.13410411290698196
Ni 4.148480536343089 6.593780413973983 6.135616661029304 0.014308189092556003 1.37986787212903 0.04357402793620883
Ni 0.9336530638656222 7.481602487150469 11.484951252249672 -1.1480258436489261 -0.12252437848918254 -0.4978450191126329
P 0.335902367802559 5.512466754712869 7.948341507152239 -0.031025501847236892 -0.10562194630688906 0.6239905392941705
P 8.644302242279043 1.6163724318596608 8.044455770795294 -0.472086164980974 0.39300623082867153 -0.4106995343433765
P 1.6509261118477303 3.2858384424999456 10.547783276184743 0.37439195816159393 0.6934355214598703 -0.49311264663397014
P 4.034281977259804 6.021380210182062 3.750587242709192 -0.48619689335074334 1.6486224573647672 -0.33935579249306713
P 6.917033247909369 3.9085174083215035 10.340765232552826 -0.35041153608659653 0.35229564048318684 -0.5047561444101695
P 6.452408047025406 7.789094151650043 10.234641227931505 -1.2599503351350754 -1.1250949458843655 -1.067772972234445
P 2.3920799929704186 8.30618140191537 5.833909805826948 0.41159196425065886 -0.15170125716345487 -0.49288304712166725
P 6.848286761875665 3.923241065172817 1.4243180262507769 0.6280510825167893 0.41702084857571403 1.5482638163393465
Ni 5.386016525283944 2.82329728863354 0.30504133043044696 -1.2645510671318803 1.0717795222906767 0.2909987413459182
Ni 1.5985272154062926 0.9484218299597396 6.9814104526850524 -0.6668947948568643 0.8777499366726561 0.2757785819620541
Ni 6.945776857424249 0.6311955908630037 9.199734153297712 -0.4199524204002122 0.7940926675623162 0.0010040157844821418
Ni 2.8151505593830892 1.7472523889319649 9.278392944345226 0.4061641083668682 -0.8486201091862352 -0.13140445458763178
Ni 6.235883681564919 1.9638579510295002 2.4170632960051344 0.2811262194272126 -0.13068351726120722 1.1259727205036285
Ni 4.21697441061709 6.80786888032304 10.472016889785838 -0.19326133999342845 0.6929277285855163 -0.37736363919540816
Ni 8.214943447419456 7.142561418233588 0.32288654688381546 -0.09472612532999171 0.2039463305111004 0.12292727035455603
Ni 7.660289219746736 3.804125598623866 8.132832897112559 0.06464344701199835 0.024042899881816657 0.025341049867949904
Ni 2.9696046067449036 8.272764474845967 12.232412307701255 1.3543445310469449 0.3861658108680704 1.0987043717059788
Ni -0.13743884097604445 4.983750341652603 10.044180982963322 1.07653709158032 -1.166039506617527 0.470800356290015
Ni 8.694184042972003 2.2164516670362806 5.852871024947294 0.6891536062550648 0.48371269347630885 -0.22894696632049602
Ni 3.6132954578646896 2.90308651730573 11.520616423980439 0.034019808588870444 -0.6372867421824444 0.037042654575594275
Ni 1.1320164481731114 3.6867513488471597 12.88428687765059 -0.19687939636198995 -1.3067271862792977 -1.7502100857012826
Ni 3.3071390269521213 8.44304284458352 7.848503024423265 -0.09536530157588738 -0.467593162206627 1.4120246593672328
Ni 5.825335440954713 7.903229557793402 3.5483228110839904 -1.8368632042151527 0.6563758976034114 0.11147377710197577
Ni 3.007388108517759 8.073507927530954 3.4077218121873667 0.010646166859936503 0.3507087556120412 0.7032406804757502
Ni 3.228865468838155 4.3488828584253305 9.345127558149859 0.1962199084011201 -0.7855031261210923 0.0843344976830225
Ni 7.353961373711511 6.182203682627839 11.402345402456785 -0.8664864479436949 -0.00852166431776597 0.04408233503119505
Ni 0.3966978986995835 0.22350456969201998 0.4144240267519488 0.6408834583947672 -0.004156702480850905 -0.8009747393941302
Ni 4.546777106607656 0.3979068264067379 1.5526772788351781 0.23713978654393353 -0.6302285497840824 -0.34505258576752834
Ni 5.875650290378593 5.646856210875345 0.4636706893062245 0.5751526918558612 0.023842096724920228 -1.0560081183890329
Ni 7.8841122606929535 -0.22798752624190816 11.348153864706305 1.2361164659402712 0.06346228221970361 0.5862282329437323
Ni 0.07870390029031894 4.7278004979811845 5.98181218676387 -0.19222158587500443 -0.7069386981526277 -1.555856798195256
Ni 7.92686680102284 8.94303369182603 2.193315136401971 0.15685349078835567 0.4102105105221 1.6391615690621837
P 8.355052755569515 1.4975276207675359 3.6587376068808535 2.0665930714482603 1.6388921174508806 -1.5946303194190279
P 1.8402947131400484 3.226754356274915 1.6190825951673413 -0.6581412170339505 -0.06915701861163574 1.3751051606330642
P 4.857670008014672 1.110517383052597 8.131433608400771 0.11775112547025528 -1.098828813098985 0.6557822298834706
P 8.40892221332637 1.6542551739666855 12.242038620115684 0.3602740307029731 0.8583723034769927 1.1516572697539262
P 6.339752224046027 7.827554292064963 1.3255747959370896 -0.8778183280167462 -0.5098790674590316 -0.6486296779990893
P 1.9299358004406904 3.1790468210851213 5.960764214071399 -1.6498496449036488 -0.38506075072934975 0.20130323646129847
P 6.825136698468514 3.8406911508410055 5.955508987284702 0.21976632826249246 0.8004931717720213 0.3117758259922695
P 2.5618621610371233 8.697919088276196 10.165873089461254 -0.8153734313179635 -0.2952040376765174 -0.6607855966353329
