# total energy = -340864.7584172045 ev
CRYSTAL
PRIMVEC
9.33932740888828 0.00000000000000 0.00000000000000
0.00000000000000 9.33932740888828 0.00000000000000
0.00000000000000 0.00000000000000 13.66904969659102
PRIMCOORD
 96 1
Ni 0.6309789660171103 3.334560140339974 2.9606480280104543 -0.07829600479842645 -0.20296108377969563 0.3123188429799331
Ni 1.5006151036127267 4.59731191520053 1.0073006248077419 -0.5712906377972935 0.9999156462708393 -0.5748896680024616
Ni 7.406908464148636 3.736328664411969 3.8037548722826813 0.10222269081735297 -0.23132549385500162 -1.6859489617293675
Ni 7.077996032879487 0.6731889899924651 4.293161776516623 -0.4238206451063668 2.303639526947439 -1.876584948284807
Ni 6.631333362146387 7.234046853882275 8.059955326805131 -0.697208101128425 2.369062018217307 0.9640227890289721
Ni 1.4177098945612123 5.77855938011487 3.8344551092089105 0.7227298995486133 -0.7092395783716624 -0.3396321860829054
Ni 3.153302474769197 1.595082399946631 8.210806944261792 -2.0026872739332346 -0.17327384112790806 -0.4906104490374067
Ni 0.9462513096643445 4.419911391833006 10.421638669085473 -0.03810477729152147 -0.424366747417824 -1.8663768974035535
Ni 6.521334764398416 3.60056286245389 10.526398838112367 -0.6735212990344465 2.2041172657803845 0.2333643786619013
Ni 2.1950501294361358 3.930110367984107 12.330768092928572 1.4060591858124172 1.3357801377811962 0.5291404867918048
Ni 8.195119676080669 0.3675249463420992 12.769967707161383 0.12696364520745876 -0.24366910302201902 -1.0110899177201038
Ni 4.99890299205252 6.252838441877071 1.71561575896644 0.7634769995589884 -0.4207152667081658 0.18563056292104804
Ni 5.117241609140696 4.969652218733906 4.020805509993814 1.5670117863708108 1.8704544099070366 -1.34058218715553
Ni 3.585050239694561 4.8893059853814025 5.5695228192187765 -0.9799731417106412 -0.025842929205032908 0.5053775800442523
Ni 5.373307286934368 1.0674290822725905 2.0813587616466007 -1.2239538624358082 -1.0438601701725896 1.181574369028333
Ni 8.283964697338645 1.73873993353122 2.2318825687126216 -1.0424355219109207 -0.30777416103204414 -0.06318100353385893
Ni 1.8909616303128614 4.085292631541611 6.963123240177817 -0.0640556928293284 0.48123440713914545 1.2790700866836617
Ni 2.733247547709383 6.81884837705416 1.7699230136824085 -0.30386942666099925 -1.4450767047261952 -0.45939417133560234
Ni 4.245667561116085 8.2627364062297 0.6676180812170648 0.3755679807475661 1.2961586667348322 -0.4291960504856673
Ni 2.5601337756040694 0.4655365174124064 5.89655430995588 -0.5253031153235856 1.2388174098112021 -0.605216344010461
Ni 3.3155546091447694 3.1795366453477376 0.6910756697689054 0.7583998421463971 0.16825479064676185 0.19159038004890874
Ni 5.392779784498005 5.656587764680289 9.453761212966281 -1.0657649406654806 -1.07453343088673 -1.3560730837022776
Ni 4.650602117166052 3.7724531826739107 7.668993338431402 -0.07383514081359542 0.08098743558766051 0.2600092349429393
Ni 9.213078341281514 5.056274480078144 12.318848309407963 -0.3053460112065257 -0.6902095583234049 0.9595863505241732
P 4.581724577822252 7.80625810243215 8.76115015777797 -0.3630009427158329 -0.4054110322509276 0.9464256447724991
P 6.595003378682334 8.91044677722775 0.5198232256081637 -0.5673825609921389 -0.23936481921971034 0.3780156709571103
P 9.095159993924929 5.287432171779622 2.366673344893413 0.3576201380198938 0.0892105948284012 1.1931708156166805
P 1.7984275747442677 0.2756913403261545 10.348536951972832 -0.014903656584709815 0.09989661378733763 -0.23811937684838344
P 8.846537760044072 8.541515328183932 3.335685529287897 -0.33974248640852456 0.0374584019567742 -0.5840235119829297
P 0.47888054835673494 0.1185805056670241 7.604024307591382 -0.03490118275255925 0.0696406431162736 -0.013948748870608235
P 8.456350001909204 2.6364174015512107 10.044974256980414 0.062361078735724856 -0.03754993322931598 -0.03125715824206875
P 2.775526682707266 4.204882718497187 2.7545729678229613 0.4067354074893059 0.11487894612878281 0.6700245987350977
Ni 8.550593154386261 4.0914379089501836 7.264074659237961 0.37323778995249274 0.4084516188494643 1.5321453135109289
Ni 0.355889078373497 8.232943951923705 5.4715289928704705 1.6445616570318322 0.3068318517234328 -0.11570401313323944
Ni 7.131678486594493 7.826356334929486 4.578366155700485 0.017236161372628383 -0.8239385472791553 1.360382766821225
Ni 9.130397276086848 7.512919169110192 9.65794879509257 -0.4751555479349172 1.132767889048591 1.0240953288408363
Ni 2.8109414120891905 1.640219369119321 11.616778383460682 1.0705878159754207 1.0788140605399548 0.9353588454353763
Ni 0.9074604134386528 2.127302648703942 6.421952180070391 -1.0910232010116372 -1.1822192017011834 -0.41367610047319725
Ni 0.5506467416556593 2.3939684630610323 11.876887056072242 1.3796423863817853 -0.4025727914711841 -0.9979934895474618
Ni 8.409074326769094 6.327067415803108 0.6301608409396166 -0.42534762327385456 -1.1560970506928347 -0.3595348385441034
Ni 8.437101648202415 3.9019055993307816 0.7993576991465181 -1.5075467982359585 -0.2934495168792559 -0.023394210554224224
Ni 1.386068253436223 0.5334082111986034 13.234770153442613 0.5032381651037462 -0.27425468911835993 -1.4236367896848643
Ni 4.387111674114304 2.6155813621917505 9.806954961461186 -0.16579681602457252 2.0677737220199224 -0.42029437712066325
Ni 7.293220832090047 6.472359331677211 2.7950066517327987 0.09536967245126156 -0.9469738039664852 -0.37367873414465325
Ni 0.8500347573142919 2.2576142834787287 8.81701521229903 -0.0692619196206162 -0.10985809587542371 0.6001433003629277
Ni 3.014034425047874 1.1599911558232898 3.20648527446998 1.3725438276637911 -0.6018769952245828 -1.0139451277807119
Ni 5.277878039881492 1.0164083368576502 7.440377811639669 1.041938013449212 -0.12324505870529098 0.15795238027948927
Ni 4.075934625518223 0.3849138399697904 10.108576944226398 -0.6585916743078077 -3.046687312117798 -1.2566279556300617
Ni 8.782423277658284 8.473375595702255 1.0095196489905334 -1.7747270970060405 1.5765876029847041 2.3010686808964693
Ni 6.218301609267799 7.0869150905165474 13.115097880406193 0.09603790216287977 -0.8086906199811491 0.3533328234984495
Ni 5.146903312863532 2.7407376882590415 4.23900488497129 -1.2285216843121487 -1.9337431426633533 0.0021196174461640916
Ni 3.3905680865697736 8.043757197416943 6.961387059219985 -0.8279242713997805 1.1826200366840276 1.8157066247421956
Ni 4.643924498097467 0.2526465500440083 4.575072174937562 0.8531611915896984 -0.532742088100134 0.48776089540375345
Ni 7.941024596361782 0.5006701330405344 6.3754768852857735 0.7182880617271759 0.17351578193538503 0.6885385983788851
Ni 1.7379647693596219 8.041058131807402 3.3993965527313597 0.10999899232866216 0.8432709290591799 0.3577219537050807
Ni 1.2588572753478287 7.632994901088938 0.1603936082292112 2.255650143552354 -1.2583007153467944 -0.85245645221319
P 7.037239208242694 4.980186980005744 12.690250010540788 0.5647970596531499 0.11185944257616864 -0.3524211103174576
P 1.2923947999286542 6.52733061256909 11.621699275051222 0.5859094161517329 0.5868165013470347 -1.0897767301990455
P 4.04023971631524 7.862135298078788 3.2480938457627935 -0.21303440885529762 0.07954890336892108 -0.9809146796883043
P 6.036829139167542 8.705831453907976 6.273164553962202 -0.286929456372551 -0.5343009479468218 -0.18493713639844925
P 3.659055069763751 6.00998791231004 13.269010929374298 -0.1447831898873829 0.7739838126275831 1.5376155925968809
P 3.8981231717464775 2.3314977022921264 6.326378173443301 -0.5954952600679551 -0.2062688079966899 -2.314868048673407
P 0.05729490554119978 2.121437551116429 0.2753504548771987 -0.5285537610503994 -1.1407892166911708 0.21424411289268264
P 7.294556355903765 8.762558528345163 10.682977331111486 0.7885866501424225 -1.9774963764899038 1.3139334742197502
Ni 9.32546780683586 4.462237223467731 5.172409015907317 -0.13262367170671352 -0.2640224698673904 -0.030036398461090207
Ni 0.9011134065589176 0.8469294309642155 3.9743311491419324 -1.9389208302095509 1.3211348770641957 2.4244312390162315
Ni 7.587325590256234 0.030706774455387418 8.617406702381588 0.6744211851408966 0.5099502870165992 -0.14016754549224247
Ni 6.497967767322052 1.6298527157401186 0.20263445198488256 -0.23382589167935217 1.8629920400917206 -0.2234671741528474
Ni 0.7547045071315243 6.037240069571763 8.31393926852833 0.24891723879483585 -1.1706834331474418 -0.5508915053156513
Ni 4.833438129062132 4.985286252749027 11.855672773954351 1.1981106761204592 -0.6862408034836439 0.079588755467921
Ni 8.36742092670491 6.87893760934406 6.644292612803127 -0.0401410909952599 -1.6864703814504762 0.08964331149044562
Ni 5.908432066503329 5.557516179953639 6.703794401401539 -0.24419437939786978 -0.48565721879718937 -0.8775491335157596
Ni 4.217939098158561 7.15626893555615 5.232265698945739 1.660141256637644 -0.7956155319647459 -1.4117737196986913
Ni 8.833201200561637 7.472283755729192 12.34822329578058 -1.2159662162446414 0.5000096308641195 -1.7151656925026395
Ni 2.4175689433216134 2.8816961562340904 4.555197152364336 0.4390122652451407 0.6975521147314051 0.9132969805393304
Ni 6.652318830743745 3.2993041795233164 5.97553419971435 0.045521381470566766 -0.47644598461156656 0.6238010489911837
Ni 7.316718579749573 6.120238671896964 10.70652924686975 0.7181551356937373 0.5104146282475275 1.198964282370006
Ni 5.175556369230553 7.375425591588913 10.980935495749977 -0.5063124331536957 0.9395386878446785 -0.7491292154777486
Ni 1.1349804371300425 0.751501117844077 1.8001049179396775 -0.1835518260151484 -0.06543071879998408 -0.576312259381601
Ni 6.189751285501833 1.1616068594580664 10.188239538815518 1.6513763659608207 1.0517460006785693 -0.06676666400258824
Ni 7.736054378602001 2.5436125054889263 12.133387012588557 -1.2820109144795404 1.2228187203901004 0.87862565440939
Ni 3.3443757734044266 5.972686638799647 7.94837464700091 0.28199448096477886 -1.3080736730048632 0.36490253061392
Ni 5.395618940018075 0.016034691159236794 12.17615739620603 0.5659394007877092 0.6865004849029338 1.1719286184084527
Ni 5.563147794356936 4.049989974088111 0.3061870459830104 -0.012914394068822919 0.582264620310294 -0.7040102116519229
Ni 3.1640613798978827 5.647565974442172 10.420983048304194 -1.1599642469577247 0.3922644675666406 0.39004714820034764
Ni 3.084023344348544 8.428388055767464 12.039397889815925 -0.6935365658141088 -1.1830172721224463 0.0681576308128439
Ni 2.3410238162081503 7.700845114422186 9.419547521083965 -0.1826786793815757 0.8806624823337608 0.3874094534671844
Ni 6.884914778859996 2.814004711466108 8.405399301449528 -0.021146552170628094 -0.721779362709886 -0.5249943258339153
P 5.072095300640638 2.3418550163439598 11.758185139149424 0.3428275530917515 -0.3255826499683747 2.111984612209182
P 2.75750178088577 3.9040443052982026 9.175007507195946 -0.7886858947244482 0.019922449955539885 -1.0704561754935629
P 7.266697142363078 5.6235358851226325 4.9775841094681015 -0.037738137980722106 -0.20197866526176828 0.05383041555689439
P 5.779866885946481 3.2105432122116584 2.1471748694789574 1.0425807892395336 -0.5698706175213154 1.4540215726243089
P 1.719258096640214 6.386484216522465 6.404100055805214 0.12365952053489025 -0.07602263538321745 -1.0553293471544534
P 7.4328904728882215 5.366358827372093 8.714579601854192 1.0869629148993345 -1.2681912349876288 -0.905746164775266
P 8.607385604115027 2.160933566558454 5.061717440068593 -0.3986168921472296 1.3767966894028738 -1.0350073477676498
P 3.158355050875637 1.096007424020662 0.9445282037648284 0.25536402286144405 -1.3231549928180182 0.09471249848323689
