# total energy = -340864.50576222636 ev
CRYSTAL
PRIMVEC
9.32728526414583 0.00000000000000 0.00000000000000

0.00000000000000 9.32728526414583 0.00000000000000

0.00000000000000 0.00000000000000 13.65142480052399

PRIMCOORD
 96 1
Ni 5.158249996881536 0.17271894034705934 9.767348603297494 -0.2815692205019022 -0.2156055120165835 -0.31628888337127464
Ni 4.951715916001459 0.9575484476913563 3.1965082798814644 0.28681864182629957 -0.6567196540960755 -0.037085077777755486
Ni 8.124755813057543 2.1963798415553413 12.985290052327418 -0.740796270132021 -1.1179850743124617 0.021096158548666893
Ni 9.109092224452445 7.286904419059637 11.826311414333482 -0.9706125264313478 0.19545474810032146 2.2072414132316633
Ni 3.7799850133921034 3.0514214225677443 3.5419303041903825 -0.1877920893487411 -0.8380816715487566 -0.18582673809225417
Ni 0.9726773046297786 7.962517010599517 7.411276308201629 -2.669980075559466 0.19786772841718828 0.9316885956726405
Ni 2.808939983709442 4.6100574513563215 1.7924999886546422 -0.5275536019206591 -0.2860141436471332 0.01679290318762269
Ni 6.0297355820754674 0.8181260508084032 0.6054042487859395 1.2545458762900523 1.1251635943387719 0.5267053949877509
Ni 0.7736806030912167 0.7044768089761582 9.188706201815945 1.6158439773821658 -0.43020906513121393 0.8612449970390975
Ni 4.985060961349707 6.812490701144114 10.039380747798404 -1.0539080413268946 0.6376443826321793 0.6196633726737263
Ni 0.11112434567119013 6.859929274750043 1.0700522988749956 1.5011159550089501 -0.37603283619912664 0.6458611141150168
Ni 2.98714709879298 8.8075970507918 6.914050848353739 2.458578060101269 -0.3068709324914844 -0.05543298415732389
Ni 4.29487914999613 6.591462018733637 6.1609835460232585 1.0701119047802667 0.2523478617429396 -0.09155081292580362
Ni 1.6290663609353262 8.509851445866818 11.329195083724915 -0.004021976675199524 0.5726144988150397 -2.5711365856269914
Ni 6.982219313788055 8.108554318296731 10.73451161679164 -1.0728683844794813 -0.26911171146483975 1.7292897906088476
Ni 9.097750245391333 4.732981745802356 7.975203051488511 -0.0590330428037564 0.3599932662377606 0.17232844649550322
Ni 6.131179138217441 2.3809574925753414 9.789887055767288 -0.15333622166371655 0.9214360647066969 0.7663283529648544
Ni 0.6779322874218695 3.907535641402539 5.215171621565944 0.441892157896097 -0.07101232665281963 0.13918435564336673
Ni 2.1958575135722636 3.2084182906241723 -0.08456396773170087 -0.13073236822127163 -2.585831982855637 -0.3698917562983952
Ni 8.395470944858266 5.464660649954356 3.7611998605721393 -1.2096801261256134 -0.32351959679175896 -0.2713531992008488
Ni 2.17849943542035 6.170708173793912 7.059698275520726 0.18112599018247516 -1.790918876274554 0.8719407861900468
Ni 2.0399892470507 5.997006137564417 11.799008584475192 -1.3847210864562733 0.4709613073479115 1.7071158256149694
Ni 1.5639152723318241 1.4276529597464898 7.009583703730067 -2.1282260137687086 1.7726275341645343 2.7952370224884633
Ni 2.3609131562247434 7.536465267545721 4.903141279032336 -1.4058822939149207 -0.03622838620441502 1.6425024605099583
P 6.252405866718475 5.69447563522303 7.040326436448341 1.0147827931906588 1.3063795731318921 0.8178990259532947
P 1.0442642201676282 -0.1253922941660759 5.746853939183205 -0.5158489118892213 0.10749576629083424 -2.3027699798582923
P 4.84011494604571 4.229672097680155 1.0931485230124318 0.06168436438367441 -0.6026727516530008 -1.0013199828175334
P 1.6858508745241765 2.577669941916481 2.7245784180711836 1.8062511357562505 0.42905952490780297 1.1282625449790697
P 8.569909836635315 1.8992405101821466 8.521164510343153 -1.8541405032383618 -0.02565369601236227 -1.5380706778564286
P 7.146920519594875 9.129080597090569 4.787759960299065 0.12506308575063624 -0.18808493799881154 0.11275418647629613
P 1.1176606290754245 6.032449822130388 9.333315502116566 1.5559388163861012 -1.9612323492225574 -1.418691272754131
P 4.438836473046445 6.519987030620731 12.087490329528876 -0.5207409498741999 0.3939601101015086 0.7570217308519479
Ni 4.547116929395487 3.096817320668424 6.331476063342451 -1.1384032329574976 -0.506194933739225 0.3554925501539297
Ni 0.3322602918639071 4.22440218142232 2.166999825235775 0.7108953688075305 0.4768807581561399 -0.8716787907779118
Ni 9.417200443470266 1.7267137119145766 1.6780467348198744 -0.4120874158298387 -0.662285321109311 -1.571490390967455
Ni 2.6302478497844755 6.738385418544999 2.8571340674337504 2.5986643587336147 1.2991352328646528 -2.5453175676813586
Ni 5.847424461410608 7.833968363049988 13.31288297057111 -0.22195587971464353 0.15660075134760126 -0.7629329541300602
Ni 0.32296565195075183 0.9579775028203129 3.8769225579514934 0.2470465041346842 -0.017398397982105518 1.2247820147640585
Ni 7.432428726059184 8.679076385098506 8.67370573415822 0.9713568607965399 1.4511424513043008 -0.09291735425602708
Ni 6.755566278274083 5.802681473288774 11.47484157816336 -0.9560659960757405 0.2581266732082458 3.2874641811936867
Ni 5.530436666680468 2.6699167946421265 12.911667923112649 0.4103694046974674 1.091230946147069 -1.2088527451283118
Ni 9.349204532816074 7.678361260519963 9.561690354517612 -1.3378722444235347 1.4287090620014493 0.3143836959287618
Ni 2.2681906119430812 7.87088575871107 13.323517941397984 -0.42606753215901455 -2.832171433620968 -1.4386869991497675
Ni 8.606733959442277 0.3565326866918088 11.032221778032055 0.5255517409992819 1.1928134322772619 0.8561567838829126
Ni 7.804149031587512 7.95167870495066 6.591153285586496 0.0786454177180452 0.4802931262717987 -0.24955512948915087
Ni 2.768534183304235 1.2964740177107485 11.037204413899198 0.12834869848044347 0.4260289656115953 -0.7299151044431429
Ni 4.463367233680262 5.188321165050139 8.12138306665253 -0.14473716714079587 -0.8856259969866231 -0.30931142361217695
Ni 7.423325295496977 0.9235141159511533 2.9310975752946025 -0.7563360176388328 -1.1691829373425153 -0.4277114955203408
Ni 8.382776509412402 1.2301943275723826 6.3570859908984465 -0.02396936633140388 -0.16788943688754313 -0.01655610458646826
Ni 5.421195499933981 7.694721319132781 8.013823609465843 0.024217734896784096 0.07235675649585603 -1.0502588746100816
Ni 4.050513599484584 8.698561084324378 11.578019076663445 0.08817752557819653 -0.7453322103291615 1.4401185893899713
Ni 5.868532108298185 4.561163821226105 5.247197788756923 0.7770778781718746 0.23067371920361565 -0.24202848209480254
Ni 2.1524483272643615 3.6406353693353646 10.971814546789146 -4.011371131769536 -1.1407311097597257 1.4656797256885274
Ni 2.855268610351331 1.5774398361793658 5.356887597931732 0.663885061496263 2.0906974206956312 -1.8111616856839905
Ni 8.136638774672557 3.0782373681275255 3.5474865681103696 1.1331401847863454 -0.18464557329995943 0.037304392877413176
Ni 6.837674371756778 3.362579663915322 7.4948096108952935 0.03603401080542181 0.787647940378237 0.9165239721170603
P 5.110587568425718 8.641142315327505 1.646402986330792 0.40504053628538633 -1.6649913856410938 1.2933404805597466
P 6.567071167381001 0.5671521185823857 12.159106159651504 0.0056556556238805825 -0.6611830891840679 -0.8861289047649706
P 4.623507396920566 0.7809838675688892 6.047158018496725 1.5302401260684162 0.0685353258672368 0.6149641674258441
P 2.840839299818816 8.903043162413796 9.104749440364571 0.5697289497371285 0.9276352515388733 0.832028009155509
P 0.7862556492838068 1.935122577162486 11.940068852676509 -0.15835681480675953 1.432979921462661 -1.3548170998079891
P 7.415219884473864 2.6417297381267675 1.4204448335800208 -0.49960082546147505 -0.4055411300708886 0.6051798343455707
P 7.690803859259701 6.712791347374202 13.574799674042602 -0.7574127956427794 -0.4381643154225486 -1.2358773533462717
P 3.218780904717012 1.0976815837227114 13.22969197925207 -0.05351108454426269 -1.2224736783458559 -0.4483276291087956
Ni 4.110096298697064 2.0825962868131622 1.243374714588218 -0.788257806048094 0.8347592920437429 0.33666976102047175
Ni 8.900963177766897 3.1996506423368003 10.135691498778101 0.1943466026378072 -1.582091563522069 0.6131332848646924
Ni -0.0871065857350387 4.174743713888312 12.657969490817758 -0.5290924071626888 -1.2677772873786617 -2.7807815091847656
Ni 3.320541588562998 4.996048503565158 4.711420792843751 -1.309764687554041 0.3132125584387961 -0.08817649713693201
Ni 8.843236608351425 7.932716333707866 3.591635408151451 0.1616640248031216 -0.12607095818986028 0.01615167005919799
Ni 7.014594321453446 6.10004465951186 9.344919577897757 0.75313910796809 -0.13739023985742144 -3.788795359082707
Ni 3.05193442326541 -0.6105351884911343 1.3441672262084272 0.5457426141248601 1.9243221064597698 2.4060121130790955
Ni 8.01762261281419 8.852078874922094 0.012560122535930689 0.4193505251501552 0.3160844806699524 0.2584909985262
Ni 7.075548131621503 6.670277580465862 2.0478092431402026 -0.9985637602286352 0.09563938117288046 0.22145862836325086
Ni 3.88837739716609 4.412188418624082 12.219908867795885 1.3166452167239584 0.9389036253638411 1.7233317732531996
Ni 8.84850652460926 5.407381790238664 10.586734770365071 0.8704845133594943 -0.023208576905979383 -0.48032706483352766
Ni 6.183048172394117 4.150166316827435 2.8228413698876325 -0.535073307336472 0.4573506585430123 -0.5561234431385519
Ni 7.4877208739820995 4.574250002659278 0.4199442365659547 -1.083498867610134 0.302999108240904 0.42518924331911934
Ni 3.0697961748295772 5.455258746258962 9.972966744750105 0.9541939758640082 -0.12356516104887107 -1.8822943399647583
Ni 4.637311779330471 8.382617945560394 4.6071370782937935 0.6398465324898206 0.04843804089672948 -0.13728611017938938
Ni 6.134453015397088 1.068701707947324 7.7851754676022225 0.13674129341951288 -0.17596424347587758 -1.5831621708784283
Ni 4.326032283272536 6.3842470460184755 0.8677994419990704 -0.060791163145443694 0.1746663506000605 -0.04222702699001114
Ni 3.8739947230606355 1.6372836993833841 8.162746779269558 -0.8329304663651204 -0.20204319995111655 0.9750425371782433
Ni 0.8471329757114856 0.3768913525607944 13.333100794430376 0.5632567117492235 0.006372993405879347 0.5086032860704015
Ni 6.382493516361 2.2271598834152635 4.914116695776751 -2.194684402502259 -2.76174737537145 -0.7459587881695668
Ni 1.689311297412065 3.445303358235216 8.684162553833723 0.30380617752323164 -0.2168450408506394 -0.8517337151145524
Ni 6.768260713719947 6.8426831240230745 4.8068034789249445 0.4891217803070221 0.9826743426918882 0.28216160267026247
Ni 9.018841410804988 6.084962439000498 5.942752116507869 0.6741887574151163 0.15167014681520333 0.24279981304318826
Ni 2.5972012775694133 9.582759759535 3.639319289363718 -0.01727627058194444 -0.7332174293434985 -1.4482751570588348
P 0.818970170138198 8.831213737455231 1.8671052137518467 -0.16218878695834005 0.6788738215956115 0.44358882887222956
P 4.042296261036525 3.1319811866720317 10.48813043990254 2.1201905450587417 -0.8437288425322049 -1.5415385818003708
P 1.296548635994045 5.052152125318926 0.058391604865354885 1.8778697285345014 3.6156248763018826 2.301798102863326
P 7.137956998313849 3.7129964495624184 11.414216088441808 -0.23576861722801976 -0.34005538966325305 0.5189002971210354
P 2.582184348055936 4.0393395115608905 6.731353578072818 0.11925753481245267 -0.5847933002694186 -0.4476753402367774
P 5.121920220201416 6.026965378308074 3.8477766564957703 -1.4000924267060209 0.31287214438024186 -1.1089844134757483
P 7.826096134162177 3.390962593424335 5.659539354983477 3.12005451215604 1.7178231847301446 0.19508245236256724
P 1.0759023722854633 5.9406320245336985 3.7161910448160618 -1.620555523925222 -1.5826865167935904 1.7142920316484347
