# total energy = -340871.8148270091 ev
CRYSTAL
PRIMVEC
9.20774403713701 0.00000000000000 0.00000000000000

0.00000000000000 9.20774403713701 0.00000000000000

0.00000000000000 0.00000000000000 13.47646413138026

PRIMCOORD
 96 1
Ni 5.312232810327438 3.860981902157608 12.93704110644814 0.8291740846464817 0.20706764974890146 0.47454953891980217
Ni 8.356865359216076 3.144122220124172 9.13031767589531 -2.027574781203534 0.7439890660377058 0.6029995388648003
Ni 4.340677728382284 4.9665741098941245 1.558458510217916 1.901670430498525 0.36990744002767906 0.541109486228223
Ni 3.327402359498842 2.7862264282450435 12.224972213488636 0.8597000211494807 0.07807180460276232 -1.6624393086432014
Ni 8.997595415911668 7.293168385549127 5.0323275287983416 -1.6323399181546598 -2.55217058604745 -0.5734475362392962
Ni 0.6886453136299263 -0.006941718014296086 4.951414480581567 0.866440682307424 2.046702246061604 0.8250613480296887
Ni 7.996907032736599 3.402206069736461 6.9720354313724515 0.04156573925692841 -0.06073228488305025 -1.870703035582733
Ni 0.6061393257441323 5.03246472418024 6.259224394266573 -0.3921585381163956 0.4206741290575852 -0.7604760079491354
Ni 3.1091051706370147 3.9350674083826065 6.227891363054412 0.19684314380741583 -0.4476655700447645 -1.8475602789176826
Ni 7.633532633325298 1.120959932057859 13.04107940309694 1.3807381905491252 0.370047308039653 -0.33177283793948664
Ni 7.77201709934866 0.8700231331455253 8.649369596520422 1.1526669419653632 -0.7905663995766127 -1.711055269878692
Ni 2.816363373543878 9.17910766848604 4.155386617772275 1.2343256925884356 -1.2624494474078451 -0.860728462413995
Ni 2.5186954335436607 5.504287929497338 7.805554464414943 -1.4699922370209522 1.1208688236181599 -0.32443053864180255
Ni 7.807798391567197 4.538183831853104 4.463620443727399 0.45285945554087814 1.8184165674741908 2.6523140257382707
Ni 1.2429072903034317 6.792580188752177 13.407531951244387 0.011556851599663968 -0.9336565180322888 -0.8526616262454605
Ni 4.427248935134389 2.2438626980472955 1.783272940107093 -0.8962842480314177 2.40989756417643 -0.5955579949850904
Ni 8.86743475023971 5.440027085855247 8.988087499713815 -1.3418021756055603 -1.2481661980159537 -1.3214824902116016
Ni 7.662039807980107 3.1954738070265853 11.315566639543341 -1.7228201237241039 0.20893092820988535 0.3887271438373434
Ni 2.945584849353178 1.0035611992255535 6.503997529511617 1.3997211594095313 2.053801319000231 -0.4673327094563888
Ni 2.9749023054581243 3.9152799670605183 3.5374503307336527 -0.4923662553862488 -1.0001599010711613 0.3769262945476734
Ni 3.5908082849995293 5.667881912731187 9.79539484861876 1.9836413130453774 -0.7346878432414379 2.3437214825699897
Ni 0.993138033298795 0.6782691071963008 7.773614642889555 -1.2721394210020993 -0.19106716055558706 -0.6885319135106658
Ni 7.035277898555621 9.048689185989039 1.6597749978137584 0.3707476765407873 -0.32325065940108844 -1.0373717342347684
Ni 7.660713892879883 9.173509360285095 3.99101458019142 1.717153926577262 -0.9298903661216373 1.386088142007129
P 5.801569144259991 1.7317464060734002 0.23857264060274785 -0.9795995604213065 0.7580573712053138 0.2771844611706452
P 8.496684948083415 1.1057671548677959 6.22076272784196 -0.5098934656367348 -0.2975391135675972 1.7364626542082031
P 5.646170052965024 9.202127027864924 3.940854475330458 -3.5756213393257514 -1.8439980154877211 1.3243053043723774
P 1.8456830272551217 1.8592092028261535 3.7949586963614697 0.5527025903824611 0.2635429591278106 0.6309767408040166
P 1.6998323662305164 7.590744248111829 8.468663942298686 1.6891188748169168 0.5825893506395644 0.8097992796642957
P 0.7390954624190624 4.604801857895593 0.3416367579626351 0.2953835006771751 0.33673506704076844 -0.12216108161249283
P 6.672658534131945 4.74988827618882 9.94213958156164 0.8245450705149026 -3.1330246991634625 2.4634094200516414
P 3.478777666774379 7.326813481217303 2.9292843805898032 0.6237406280668936 -0.4589344580903645 -0.7717870620865805
Ni 8.883631171498692 5.4077539440060525 2.506043072854651 0.5395030609730516 1.799343867113456 -1.3731966307564416
Ni 0.23612890541108558 4.581441811997902 11.527443268687211 0.5057606744152838 2.8530300222375313 -0.5162844567647431
Ni 4.8713936627343175 5.716811863026942 4.068504189281367 -2.5235369814711572 -0.5397653134955027 -0.777416749568532
Ni 2.31407174415289 0.7009707994157557 11.70316292966748 -0.06594725342508642 0.33847801787380416 -1.6614116387096354
Ni 2.9721491900764097 2.9830143277032426 8.424717222921272 -1.509077375947872 -1.4399774358264168 0.8794396656702532
Ni 4.342031266713763 9.272013802939213 1.8683902441208273 0.09304205275934944 -2.3454351228269865 0.8839552941524195
Ni 6.319965117472445 1.7800318143065461 5.6960972019090725 0.027337254362372273 -0.9856483377185477 0.4750259643355884
Ni 0.5683387753208803 0.556309778883851 2.3785692268093963 0.4157484096211937 0.717442683007745 1.7006690415483612
Ni 2.0204920423783626 6.6060128848582025 4.474576738017373 0.23935839146180715 -0.43415133760841357 -0.26161334620526555
Ni 3.117659164582207 8.451953728938367 13.353854488270331 1.1302029565348923 -1.5150983853309714 0.4811906983854035
Ni 2.1301654782031147 5.4976399385087165 2.1663684850854725 -0.3373189645686965 -0.2169892797379876 -0.785072723451893
Ni 8.144995175492832 7.600504456488476 9.660764744129796 -1.0832936935778632 -0.974339854684264 -0.2702784780794313
Ni 9.138879036035503 7.328968093255167 7.471054628634137 -0.920840082993911 0.16773131404312405 -1.1019033382592507
Ni 4.736610709699079 8.60145986423234 5.917299433924514 0.08407404493278424 0.2598482838850428 -1.5423194258304536
Ni 8.146836724243144 7.354915515147044 0.13710054213750425 -0.7291268042138928 -0.39122034257284233 1.2737707859579352
Ni 1.0255124603292567 2.371030846999999 5.828502715507659 0.694028932069495 1.2730279942546396 0.3804070540074223
Ni 4.21018558393527 1.996524285393069 4.31172674047865 -0.4665436378961901 -1.070202407611544 1.159582438138274
Ni 0.9791054318214277 0.025905066270620256 0.20597999004537437 -1.5845973606630581 0.37578858139880444 -0.9721870700073193
Ni 5.127930611396346 0.5046423663707595 7.817130439859397 -0.5514491775913342 1.4307636305376326 0.6976624150570243
Ni 0.9669327945818741 2.244709810472439 9.907707223802708 2.981027508026143 -0.2544823915874391 0.2929383815707923
Ni 6.214757437367196 7.039973847868913 5.191565328463332 1.116887727483225 -1.174408704517829 -0.37990208934654573
Ni 2.7141021714391265 5.316873513178221 12.20888076050842 0.44288614637825013 -0.6365128401308974 0.5633883522310813
Ni 0.5231996531276403 2.6790667064644658 12.436942761618772 1.55704464785577 -2.9813193282349495 1.303042024118227
Ni 0.8105632070954942 3.160567250464446 2.2600434661419007 -0.5080610404136863 -0.12217239446640249 0.6628293665382391
P 2.5278755540639595 3.900547577058033 10.537314326046424 -0.8135752017669601 -0.052618654636980344 -0.37463261341749027
P 0.8561028661419269 4.587500507386424 4.103852717543581 0.22136324043596714 0.25314130417851244 0.48836896130139756
P 4.105014734805027 6.978742351921082 11.939877447581164 1.370270201138266 -0.32805116611352536 1.4260292011764408
P 0.924963898562294 3.703253251693499 7.967649426966039 -0.008952066986965228 -0.20022183047166164 -0.26651438305130876
P 2.6972335848862805 1.3721195583689805 0.28044945918481257 -0.24221514418431192 -0.2666637641449795 1.0464760105288815
P 3.654581118222788 6.206249482140761 5.940667766791582 1.2947777272269057 -0.5046967519271437 0.3399970256214918
P 9.13163254170303 7.030443833086055 11.60618697247612 -0.24193232283657043 -0.3053059019972097 0.0912268539274816
P 8.614875546878352 7.840200441828913 2.6388537271783066 0.31957603876297863 -1.6274759051941392 -0.3153077504049279
Ni 5.536653148784048 7.704625622831042 0.25308680707832143 0.1387621805042836 -1.1677660023903307 -0.6104544524809487
Ni 3.0243202661727113 0.37662434266978756 8.9309470043148 -0.016231117146881722 0.8364942724569787 0.010242246553298489
Ni 4.3563124772724215 7.1001004145665565 8.214726339697721 -0.18917405729793227 1.7422072700014641 -1.6629414450906006
Ni 4.69684246443612 4.400887164773692 8.125309940126387 1.7745656317275118 0.500840354295531 -0.5262713927741258
Ni 7.185925794074785 3.828229957633333 2.525880235992998 -0.9960841883398909 -0.7109012823448014 -2.010509341080815
Ni 7.841968328629211 3.5928984428311317 0.14664805163348993 -0.13346647932298303 0.9227002761311013 0.8684574556271366
Ni 7.290498139861177 8.467063636434666 11.714968177931347 0.6561920637273795 0.3304140099187471 -0.190929092315826
Ni 6.8078466278922525 5.893011247456666 11.812268247702761 0.8661622318350566 -0.6281942929628729 1.3647166183098884
Ni 6.37120621144984 1.536579069515475 10.307014843204445 -0.6802753299288283 -0.9299782978497532 0.03883574192027506
Ni 0.6640726078801558 8.855860616344007 10.01898280704023 1.8658783605005802 0.33734133316619963 0.8434262236901217
Ni 6.417300176670116 6.03944199633762 8.524927860492554 0.5255460845723272 1.8238611355285301 -3.2324214904962463
Ni 2.613452324490896 8.003149883000152 6.465387618412604 -2.414323204047952 -1.2167123503820467 0.7720423726304961
Ni 1.3981590576983733 6.129235913402768 10.12957057181951 -0.09056633752534726 1.1507265304095406 0.8739367335741528
Ni 3.002009903062697 7.92115492489257 10.487006897285436 -0.11322984056113403 0.32018024800588085 -0.12343686300112289
Ni 5.723386192065551 7.359482556047814 10.411363440817675 -1.9553656060291356 -0.07080972372371032 0.22270947005121644
Ni 5.870746923065411 4.161946214420881 5.88748936352886 -0.668871716077577 0.6164042423064803 -0.44666206848091466
Ni 1.515428882118157 7.6492870828842054 2.005593912988349 -0.21244099824567284 1.2570262195097448 0.8483241752123711
Ni 2.633295012275494 3.520820224743972 0.7166055483058933 -0.5627530326399276 0.5703403580688823 0.6496437210859006
Ni 6.688459022409611 6.523695655719315 2.6939316879769737 0.2247997769213419 0.5409685897749844 -0.34963583426283656
Ni 4.884026687161448 3.4166806429139034 10.33670337138258 -0.14885993105991782 1.1466919553288508 0.4104462806819899
Ni 7.190667782106835 8.5801807684225 6.400430669342895 0.6013239509345902 1.0980117165143284 1.9305516323092493
Ni 5.134256331353663 0.3881284977129783 12.130030246891993 -0.13071899848483293 -0.8680219107516147 0.5258060231019331
Ni 6.324301964779426 1.5961163406130192 2.970105070963565 0.6887252604683944 3.1831257295849116 -0.6577802341501059
Ni 8.25926327544961 2.2350048485583014 4.487811028111481 0.685296951513136 0.6173156983771563 -1.9586249935066977
P 8.576018868246798 1.1838856528559747 10.795523400973734 -1.227862710571911 0.05539236072737557 1.2013448667870408
P 5.196546717832921 3.6678402692250245 3.467210899073678 0.9870871270476034 0.268564323601802 -0.14787828387293886
P 8.341718620744771 1.8524046801937557 1.602634502414744 -1.9936796711179856 0.6488574777391792 -0.4889202058191773
P 4.689595970103648 2.4869931718070624 6.93269718774269 -0.4575324355365153 0.4743744467945185 -0.21303826551003957
P 6.62923481459962 5.515272767792942 0.7852897920462305 -0.6178535731584972 -0.3436253664026986 -0.8835863408487751
P 7.497902567864917 5.722594326102917 6.5231072808935915 0.6989855047438219 -0.1812943974395394 -0.41658478947955996
P 6.399133298248301 8.330595666292895 8.637523834184048 0.405009940157767 -0.3755949773307595 -0.5284046370670448
P 4.187359587175169 1.399254779204808 10.50493069127221 -1.0271726822145795 -0.6321188248282598 -0.6944979012861137
