# total energy = -381165.4397321596 ev
CRYSTAL
PRIMVEC
9.28380728326861 0.00000000000000 0.00000000000000
0.00000000000000 9.28380728326861 0.00000000000000
0.00000000000000 0.00000000000000 13.58779038068984
PRIMCOORD
 96 1
Ni 4.121722578489592 0.17727522599216752 10.391071979507398 0.2877817770705173 -0.8322614653225537 0.31950661897762395
Ni 0.14524887645196188 6.222908084109112 12.313744727641083 2.0434585423133256 -1.8756562658229505 0.9949302772411058
Ni 4.870118124619573 3.789724350844495 6.907448676251068 0.2372418593394366 -0.7344615861632448 0.19707814263635734
Ni 4.007420344805791 7.425337502927528 6.326692692667803 0.12610001165558285 1.1594153164327905 -0.8036319745113193
Ni 1.9730503992758033 1.464399889098592 10.744585430232599 -0.6585960451831818 -1.6851735170159237 0.35390952193752595
Ni 0.4320990215249593 0.22180500700779096 1.966819107913834 1.5584546408294193 -1.1343681436561754 1.3524923083295544
Ni 8.74990468866798 7.634445975271092 6.11628541570335 0.8309144643763561 -0.101105032273142 1.4001513049684144
Ni 4.9394960154836935 3.945255972100565 1.2281771295801658 0.3835952219274168 -1.0889339225827763 -1.640250688361304
Ni 4.895843554244152 5.549794930193389 2.7151125321651177 -0.6069053016771095 1.422748730652956 1.6834609052001912
Ni 5.8716645242331404 6.0272332807178275 7.1668531022337945 -2.105726804224928 -0.3718151985733532 -0.5202023037619106
Ni 1.886107545275738 1.6860136496790044 6.319776256337845 -0.04848740607742617 0.6670932840209157 -0.5042694345817379
Ni 6.292174569287381 1.8376275043159578 0.9473790983910596 -0.021561528220859643 0.27326018641557454 -1.3079091224025412
Ni 2.006462821224147 4.096600596330044 11.711941424858292 -1.4140139218831196 -0.029698041285064987 1.1493306785032786
Ni 7.4450098902875 0.10940316864847524 2.00402210832328 -0.7485756569671237 -0.6416658450867465 0.8204446751932838
Ni 5.345838970820465 6.328409268610633 0.17141157339350854 -1.2789086214051328 -0.27532375381282265 1.2906408222403967
Ni 4.188361746243193 2.3790220023264026 10.479746263541744 0.5496890003671178 1.7522551411557692 0.8944399957338274
Ni 9.143603098660588 1.3955233238208042 3.9998104080814065 0.5688547746622913 1.1314026332699483 -0.9581041095516918
Ni 4.187191986541751 1.2174041997583103 1.6535528179639774 -0.39426118628169515 1.0060204736169964 -0.11874871349683418
Ni 3.896933755862408 7.007213396311944 10.404211351772888 -0.50534518414442 -0.5674684358377259 -0.5407253634159269
Ni 7.57524313704809 7.4696583982821805 0.3933614077929066 -0.19384215219756293 0.4668457425176411 2.0321652287876937
Ni 7.954458807879981 5.017498563194163 6.736608985378265 1.1614616574388577 -0.9265723574919978 0.2037452702438878
Ni 2.5127645281913185 8.400722133980263 3.0829611095172793 0.48975118636090487 -0.20566382742283937 0.4334391420327374
Ni 7.5868200445695075 -0.27072695718811607 8.045996218040713 1.575929400575415 1.7177190550521126 -0.3792140621405856
Ni 0.639650599408746 7.559767030521864 8.557780941513217 0.014365781803368807 0.2531037660723576 0.4091918394495985
P 1.663927472458913 7.681319917593178 6.595268591738265 0.7195075359565738 -0.3251648457046658 -0.42745438520421225
Ni 8.266468998721862 5.0254362183110945 2.8072106842779685 0.8059439104739475 -1.424034282233599 0.22707854565318955
P 6.879366087990011 2.601025682807295 6.658383626296092 0.27977381916437627 0.7667219888588472 3.170092550550037
Ni 7.112473201827454 5.594793543470305 12.72677295250967 0.23266889525677345 -0.8629722641428493 -1.2756767447313966
P 3.3390047973101464 6.8897082491599075 1.691775180398966 0.5473675513227928 -0.7272866656813604 -0.12819700339392762
P 4.417541809654364 0.388982235958221 6.916673995420301 -0.47057718453561537 0.32711219923902374 0.39357187352415446
P 1.0844136622728926 2.4758613947529566 12.776884158386459 -0.5431681685294646 0.003969269060393164 -0.09181306544825478
Ni 8.703810586146856 1.272995636998288 13.862807367702642 1.1674109330437572 0.33223383673630524 -0.9957941679032978
Ni 8.542736532019667 2.852459031967335 8.131028464528423 0.28903750385448934 -0.3081467138801145 -0.19452220898372305
Ni 0.2595529668971947 7.05195206298854 3.0500240184952356 -2.7368300433044803 4.507898203401695 0.8172806756430053
Ni 8.85156237700762 2.2740407110255223 10.892366929276255 0.24279312817496895 -0.06302442335133661 0.21639535490773057
Ni 8.658412769162306 4.5131557395365505 11.052566448769511 -0.1515719306744422 -0.198518988847942 -0.40652740524355796
Ni 8.938718758572234 9.39131364115175 10.508715455386035 0.06763029755446417 -0.26511801692441433 -1.9624019440506268
Ni 0.6777253493099813 5.9515238333744716 5.268720241551086 -0.2071015883106304 -1.777919121580777 0.19724989232753126
Ni 1.537714114196138 5.484594752548706 2.8205394462094038 2.668477265761694 -3.2956469741147956 -0.14294922200243768
Ni 4.799821136847177 8.197137526893512 8.395094290083325 0.6302002676493083 -1.2404220352941606 -1.43740041912786
Ni 4.745120945094012 0.6224727710311356 12.799888504134113 0.4187527436651562 0.9806136035081175 0.8421476140880142
Ni 3.094097964579583 6.27729262641903 8.103187255253378 -0.8670844865390099 0.5074565740604681 0.35124688750369826
Ni 4.95076655736902 3.032741283096782 3.7691170841040846 0.7287732775292158 1.862784294956289 -3.1273685293189493
Ni 6.137487774482353 1.6342842762152174 8.591939781556768 -0.5295698610197396 0.15361390080513546 -0.5280948191361099
Ni 6.175393559093379 6.2653350828042855 10.058361683853567 -0.5673974733904745 0.823148704388008 1.3370379214476973
Ni 4.222182655706326 1.8471434066491204 5.278665984155492 -0.9853295209265482 -2.112822277619129 3.6212550780044666
Ni 7.061347275828696 4.516767140519574 9.08046206944273 -0.21925030785802244 -2.03352894190444 -1.1813583963627847
Ni 3.507747276146792 2.9019602917140888 13.232985534928158 -0.3550084114286595 -0.8248345767308632 -0.016670775787461612
Ni 9.020054193051099 3.0802465243053603 5.547636445030014 -0.3395290848461378 0.8872977282620913 -0.5957693396649482
Ni 7.897131298702149 8.881688331223339 4.438914062104289 -0.27088474420486247 -1.6949434519184938 -1.921446584684188
Ni 8.181327203309731 3.489597433160126 13.17072646738996 0.10492826267397413 -1.1929404447734295 -2.2460617285329705
Ni 7.639895570070669 6.789675227072272 8.219716674273498 0.4337787847603433 0.4006804595444777 0.43031833701556854
Ni 3.8628436159918005 4.333532638715059 9.077975865886806 -0.03905300013740371 0.09334158627763925 0.5899216226349195
Ni 6.972621930855005 6.78363146861482 2.5559852923981854 -0.04544784792015399 0.8854642745977782 -0.27224331511528593
Ni 1.9699124724576482 1.9183594913297932 1.1422647781742281 -0.7366624504693056 -1.3958706753151897 -0.40112011818505755
Ni 5.873075662920595 3.289438550913313 12.447910595112234 -0.4333481249808279 0.3556887253251358 0.3008519799909141
P 2.75456128552519 9.500398375214834 12.207950174833487 0.4928943599755769 -1.0280304022291844 1.3414211381170575
Ni 8.071583318938693 2.533959459924597 2.25782839859196 -1.0550295565258476 -0.025867868905697384 1.3286003322033053
P 1.2218047243494508 3.8548688256462524 6.724420274965379 0.9551789654850968 0.7235192282191282 1.4503001579086636
Ni 5.271549945971718 8.169490349187992 1.6388909013251836 -0.8526739675406346 0.7954913476820558 0.11476658892063461
P 0.36196821390062467 6.162034160598335 1.067951615426879 -0.442180121450161 -0.14351897846297865 -0.7450370476862458
P 8.513984581262784 6.513714059410559 10.19902250280987 0.01719245261888652 1.0157916940711476 0.46407820707483305
P 0.9619138268718394 3.3741718588106533 3.6258205922966726 0.06808563992432791 0.10715689489417672 -0.8273781690883235
Ni 0.8850039832634313 8.030762418881215 13.58489567215781 -1.4636940627170665 -0.08809833560082891 -0.05517613095151142
Ni 0.7306281959980723 0.8555641023964151 8.461741813263364 -0.010259215834162975 0.44255807361487004 0.33216878782632475
Ni 8.269384114168313 8.003273065897316 12.024243127244816 -1.1043561706751173 1.1331820937678743 -1.9921609204806143
Ni 6.874900576748791 3.8538754582807417 4.9227888761288074 -0.3928306244827557 0.8932135795258939 -0.9957494307082916
Ni 2.789134183367821 6.518411665830636 4.615758519444497 1.0685157639377405 0.49619874175846157 -0.2759840131046408
Ni 1.607259113589036 7.977556920079893 11.247211677947382 -0.6838525057571255 0.4431165172215014 -1.0080783845872898
Ni 6.548927539946837 8.177149490090294 6.143108191333569 -1.9890547707514645 0.5639838197232351 0.9478423226143675
Ni 2.4274370566361023 5.227219766809911 0.4179504994217986 -0.20833211828362186 0.40961427169899783 0.5123275289995242
Ni 6.46982950299216 1.508024498916671 11.077677290360473 0.39303142763965215 -0.7276108817899986 -0.19545680498285048
Ni 1.6418041600102045 5.827770684007588 10.212094103283132 1.2617151403449818 0.5595288692756751 0.4138162255954873
Ni 9.359377344540944 5.088417566045899 8.812035639667451 0.5281148737407679 -0.8920033612678766 -2.050642975876907
Ni 7.12493207102853 6.1339692115708715 4.839386866177393 -0.0386094848420819 1.0223629195307617 -0.034269205595515176
Ni 1.1882066262580213 9.095067354857882 4.848734731601063 0.03618467745067317 -1.638994961577332 1.0725757929397268
Ni 2.680402233976602 8.808912566940743 0.8552735192324852 1.5534039657793894 1.7344625930590385 -0.4550371799184873
Ni 1.5391438204979009 3.3045525889605205 9.752622704744422 -0.8283636729300443 1.237689723964662 -3.263191681799567
Ni 2.9542745450285968 3.5975495427503836 2.3598592959792017 -0.06372607740405153 0.06280510825167894 0.3594816167086648
Ni 6.316386738345808 8.525747164927289 9.766916982619904 2.1376002558947573 1.4022421260591722 1.9275745519587966
Ni 2.703834563234068 8.81701733058645 8.635284948779502 -1.4498358166777352 -0.12582721761017038 -0.6678232202084047
Ni 3.944763930321387 4.90181304224437 12.162131801384845 2.4094291091804436 1.5069852693055337 -0.9632496583083733
Ni 3.178849840091232 1.9678143320407755 8.293892436674962 0.6410644640573218 -0.2041101097824743 0.11650542598861226
Ni 2.853758764968938 4.109235857867053 4.931688333666923 -0.5043247132997056 -0.6302912847012176 0.22774497559259488
Ni 3.4480338285303027 7.3534622679389 12.730618305432982 0.11826328921998341 -0.40455254090537424 0.1795974693530907
Ni 0.39973752654648326 3.602312135820542 1.2021945384974124 2.4259685015963637 2.1068874001919324 0.6378667830556305
Ni 8.790539912582373 0.9626750990584924 6.369113192697967 -0.37035404064679445 -1.1012867877211743 0.5363151501633731
Ni 2.4502566546213838 1.567775081761777 3.7001866727448016 -0.25800248892555566 0.07481858777278727 -0.18007183788634795
P 4.944267892361006 0.7713079821868055 3.519903493234639 0.6901851328433727 -1.4201004943968316 0.5158396559178406
Ni 6.830384721443899 1.5760005349004913 4.933971221846167 -0.9622659542388653 -1.6635554245255157 -2.13540710489818
P 7.037432188599206 4.279927936206102 1.0784293201812276 -0.8680429937975374 0.6441369323350583 1.071766409664554
Ni 5.706672703486833 7.997182888404093 11.853104497781644 0.4014993559013473 -0.891989991531438 1.2927915500348124
P 4.990751914782612 4.99972007249367 5.099606410428268 -0.4281922918115013 1.2879931002049045 -0.6119035262226494
P 5.48600589123616 4.263087110028193 10.557087804182826 -0.5100762710715021 -0.4767545169909209 0.2842555090848137
P 7.085299498286803 9.670106369995526 12.911526285164628 -1.5310543944395953 -0.7079185455673938 -0.46097771377263835
Ni 5.4236651261950035 7.724034714310134 4.090767580294994 -0.8738200054906305 0.9822449684639535 -0.11349157886295293
