# total energy = -381165.4296414982 ev
CRYSTAL
PRIMVEC
9.31432103925112 0.00000000000000 0.00000000000000
0.00000000000000 9.31432103925112 0.00000000000000
0.00000000000000 0.00000000000000 13.63245034695388
PRIMCOORD
 96 1
Ni 8.8904542893875 0.16351570120104011 8.975632824411875 -0.2986811975918405 1.6822671420024062 -0.20174443776377515
Ni 4.035327158900014 8.195261305471416 10.452872042202136 0.41521696259775587 -0.04417258075215618 -1.6131155227074092
Ni 4.342010495427755 6.046419484814204 6.584841267437519 -0.7606688406862319 1.0428476697476747 0.6133968229387243
Ni 0.0051601338892172865 8.987472257961665 11.527586353645383 -0.27299510567964597 0.6777422790943296 0.3986084075067974
Ni 3.2167473633765993 6.888592455683083 8.58800710609589 -1.8435856105406505 -0.7070916787907242 1.1104170321572167
Ni -0.026777741729441834 0.39240769076855536 2.257520387816054 0.3372310328405805 0.5616366596472971 0.7419684360632511
Ni 8.88224837249869 7.481905395410975 9.793143335873047 -1.7520347976148472 -2.1734967126810503 0.0006844276615343051
Ni 4.551321919179544 7.077011857208312 4.138457184979782 1.1096621562690632 1.3816784429752074 2.481509472086462
Ni 2.0491506419274423 2.7015629490327413 7.90765276712369 0.6706149240209289 -0.4223733711368791 0.16322417020138985
Ni 3.1668319166034666 5.586254765206098 11.183135307922699 0.9645550073833583 -0.016342703024081532 -0.18929952713220302
Ni 7.916260131251896 4.091036113397141 7.671934311622227 1.025871961125285 -0.8898865720351901 -0.7158244306780317
Ni 7.72211242225037 1.6904375077369438 1.2194514098752407 0.055526829422710824 -0.9079598845971332 -1.4409601114546602
Ni 6.785166234192346 2.0040320705206396 6.765403107683066 0.06275240063687258 -1.4813462285811907 0.03115302856403667
Ni 5.9296830984720375 2.8934845352914453 9.615430746451889 1.4030360827153774 1.045121039162884 -0.30984981261415023
Ni 2.518434081892125 5.5657632587868235 1.3422085733762341 -0.599541919333503 -0.6376909195993986 0.7145319371188532
Ni 7.76502349955655 5.083877542374286 9.781065455703105 -0.3835939363758361 -0.25586590219852706 0.5912503687486721
Ni 8.168314974530071 8.220447229724925 5.935800744570301 0.6009909930752036 1.9921346952283692 -0.06195433021560943
Ni 0.2440584986141082 3.5586202050188938 1.2353919390052162 -0.8326738702696241 0.013955947959459836 -0.04636984551379111
Ni 0.6899508840011898 5.44612080426156 8.882414167414264 -0.7309854546891863 0.56675289782794 0.6835293180897518
Ni 0.4361561255415962 2.4495267343967657 12.036117548427747 -0.9591050400123806 0.4366494214399189 1.4152228545895564
Ni 1.0041117575077456 5.047551690085572 3.3585448620695386 2.3479386059751306 -3.2005724643064495 -2.4412724789432856
Ni 0.645801001988753 7.868328634872992 7.4998242863425215 1.4468831618073146 -0.12341475151393583 -0.01394437799523405
Ni 7.8466542096740595 6.697313557580256 7.599287264205349 0.5368483969590239 -0.69038387911774 0.7306985195763868
Ni 0.42141434953714824 5.1494410485948645 11.251243486667708 0.6269015422933784 -0.25667168592927403 -0.6665703216379101
P 1.7508129371050059 0.7958742749787491 6.753202278474608 0.9984853415822159 -1.3117765757777473 1.346846680008003
Ni 4.1349531373820865 1.510326480632621 9.93398052806061 -1.641836030570553 0.3623962192522984 -1.1287633958748884
P 9.067454333244534 4.676711309823303 13.140592047216547 0.2782810366689336 0.2442817969053535 0.15397822612308967
Ni 1.2947744617440535 0.9044457274449448 14.078640119460662 -1.0805865790593454 -0.9853745152318707 -0.42668485402803935
P 3.136849116983628 5.660443332764971 3.642931576748888 -1.2001158794759461 -1.1288497849411077 -0.28045541861243306
P 3.58131920553879 3.712176102668056 1.084619160500635 2.1936279362132867 -0.22593337630515287 -0.7496056408935348
P 5.436778540198591 5.06401009546869 10.354841606924438 0.3653635294107385 -0.26277419928258616 0.09449935403116629
Ni 4.616540795519434 1.0837771458732248 7.4139676687420915 0.35825340072851847 -0.8115782259415893 0.8601368515765832
Ni 7.816131179430441 8.478770611103178 3.618910874064949 0.6181096550333612 -3.2162507942736545 -0.40723651549544054
Ni 3.703252983054573 4.042005527128477 9.07801211621101 -0.09505059854894599 0.33109021005016526 2.6385591380460234
Ni 6.076709657030332 7.0486590637809154 0.4804345451852084 2.0301314861871167 1.4986224991631352 0.3290019600625688
Ni 1.0417695577137123 7.578830220774144 1.9980811507700604 -0.5202706951060007 -0.6924366478817107 0.37409602418772997
Ni 8.729130247941212 3.7123717034111494 5.300419673595749 1.033925684667697 -0.3400224795427886 0.3231964091243853
Ni 5.5132118591424835 2.2962316377383933 4.261858899500873 0.1650223997523932 0.49813118289448405 0.8021397062365089
Ni 1.067477083948802 1.5852415652372687 4.972572336665338 -0.07050530510941407 1.119729310697078 -0.9542965628801436
Ni 3.2476336521431053 3.1752427485564687 3.807461607517683 1.2106244923167535 0.6266899405032046 -2.082452149967704
Ni 5.522284007893563 9.116037832100412 5.247198574264344 0.9622556698262201 0.3379100611854761 0.33986769913247916
Ni 4.5215254059816985 1.5543273335074632 1.8036689150493044 -2.365620596635926 0.9668168068343413 0.5937098860327582
Ni 1.4518232298055929 1.5404489950689546 10.173284065753336 2.9331957332548453 -3.8538563532480983 0.09406123805248318
Ni 8.247896534005653 6.399394997207306 2.24409193108666 -0.5943282363430474 0.18013920078917361 -0.7643048947769224
Ni 2.41098407368633 8.993209879759062 11.880394208258691 -0.8302812016677314 1.1300180942175957 0.3993008055881317
Ni 7.335260724017768 6.353168021589642 11.886651569173448 0.43260918993227426 -0.3944306219800239 -0.20629400480767054
Ni 4.852323519836485 3.488511310101676 7.2987048079978925 0.04935721027688919 -0.8718438556008663 -1.8111465161753386
Ni 7.907178668179717 1.072674475122418 4.393575508467639 0.7664239980024543 3.4924389529693016 1.7423440526896445
Ni 9.218970394572867 1.840444649047132 7.233827767242359 -0.6358834340770145 0.2141898626159795 -0.1831453346053491
Ni 7.375209847214253 5.320945643003093 4.127905922038076 -2.045110218984136 -0.5999368407790765 -0.23490318390393092
Ni 5.3943797505528925 -0.08244478178162074 0.40062105911424456 0.35673285031893404 0.6867493676889463 -0.26287318675429566
Ni 1.351694277984138 6.449925189173016 13.177835360133578 0.032518027232363356 -0.846036407619459 -1.3542447722442872
Ni 5.976450304713482 8.179790218124863 11.734731266309389 -0.11649925534102516 0.9233404808182615 0.15815755431175987
Ni 4.9533187035202095 7.925192565186479 7.950894502828908 2.420066277179316 1.7840257486991469 -1.00788709451209
Ni 1.999197937869911 3.943823268416854 5.423234585887561 -1.718553635138266 1.612897236049016 1.1397353215053596
Ni 5.403219041276479 4.519150254101282 2.366838848834443 -1.1124482036546326 0.828101163297277 0.3914939079492032
P 6.274285036196535 7.515138893094599 2.655028600818789 -1.1211853264173142 -0.3630137982316393 -0.5973896488771906
Ni 2.655615403048068 8.070943061754118 0.4093364693672059 1.320269957960739 1.1342192767831367 0.3844087189676476
P 7.827420136603241 2.0778573795566255 10.800622220458324 -0.9647198150959967 -0.39691713584730354 -0.19301965629626758
Ni 7.321950559166339 3.2631140538107575 2.7069680495668798 0.7411035169597947 0.2353973499315301 0.9153790598793398
P 6.997011153283245 9.117779610146052 7.701980448625543 -0.2357735023240262 0.0713933641413222 -0.3224561885242511
P 4.001320572565119 7.44985481650701 12.437961577902376 0.022350085560426027 -0.7992135337286495 0.9041837053841525
P 2.5781854517465095 9.121440138338222 2.443411882594832 -0.45485797402814565 0.4186393580157435 -0.26250346211970277
Ni 3.441408788300644 0.5938867019076313 4.2885919324890365 -0.06157534960963589 -0.36035064957717944 -1.6117723784159532
Ni 5.991381161436253 5.2308389006848826 8.085529288596202 -0.931601435275473 1.3316743431429388 0.9727234021267633
Ni 3.2536507035734923 8.51234873866749 6.15496951434187 -0.24330272082153578 -0.03602192662056376 0.8800842412327876
Ni 9.338072618474351 2.9037302885010825 9.55642917944603 -2.314431218246304 2.6725162117177588 -1.599449338074226
Ni 1.9647535784433305 6.586165763897892 5.518538719379386 0.5857173547455848 -0.4079361126656264 0.07864258950456779
Ni 2.7342841590558824 9.276719185390824 8.672610947508414 -0.8395610843077606 0.2860565668492944 -0.562721922291676
Ni 3.509440589612635 2.311441924094155 5.79912146532163 0.07842970216281331 -0.9564244078564238 1.6462112768201131
Ni 2.405768053870515 5.103465559646892 7.542562117276248 0.06359315137061305 -0.9790385457115139 -1.95847406975113
Ni 5.775316854887204 3.102460643483646 0.5120333795158395 -1.3737257637870341 1.4962699397705586 1.6938563895019023
Ni 4.710345323314213 4.672817923603642 4.874309974792257 1.033426119323459 -0.6882580910239889 -0.32509542591931107
Ni 6.44304190588036 6.800655950181097 5.670771983432394 -0.9341766522018169 -0.40097536507707715 0.23719763636506247
Ni 7.277111417392527 5.041040979636903 0.5310737147077854 0.011664837932437973 -0.4944154246057937 0.8535334873274525
Ni 3.141450391606865 1.8316426156079437 13.363304916166543 -0.21456190124341756 1.4741533103771773 1.2456604008749645
Ni 6.244088007191405 0.6944198952648114 2.80382674325024 0.5136814719242573 -1.6559611571180255 -0.2546286873573163
Ni 6.5078602664129654 7.102840469617698 9.583681020119444 -0.9004111257155976 0.3426403767816099 0.7528262047133615
Ni 6.654430423237375 1.899786188773131 12.72541549851985 1.1386366891245423 -3.970476964658336 -2.4575637599041418
Ni 2.2565619441748983 4.061342057731393 12.954713592487309 -0.46559798615346915 0.09480068732166899 -0.15791201395985707
Ni 1.5764395317980804 7.237497609755629 10.5482451016701 1.221388158591161 0.33817128526666274 -0.22429686914299438
Ni 8.690065985249197 7.355361028950856 13.584587105395627 0.9076660075057982 -1.5705002591400439 1.5436147476031095
Ni 4.42460989493963 0.9273431230042639 12.015873802949724 2.2117285024687394 -1.3320515239766992 -0.8343584570608986
Ni 0.933723432957538 8.713985161833149 4.27156442208673 0.5543504103985292 -0.8219883655313198 0.21888932497417787
Ni 4.16901560964358 6.971853171993035 1.9560251281408296 0.46178478305496595 0.7202847804422304 -1.072176243508463
Ni 6.995064460173414 3.9951731206393357 12.02949227182955 0.8591492908523334 0.5463967027690914 -1.1065251533019784
Ni 2.1388754970805652 2.5586719490427003 2.0093142220162625 -1.0568416700339218 -1.714576395658073 -0.07971525374345625
Ni 4.8437077728192905 5.380482783472184 13.574853639846472 -2.108359613862085 -1.3423449354829076 -0.7893078445791633
P 6.654802996081362 3.8745619767197064 5.749581385688815 -1.332952438524414 0.5910469944886143 -0.32731994437445566
Ni 4.674960217456565 3.465048535251607 11.896262085684087 -0.8307650832826854 -0.16056153576756219 -0.5084361643649179
P 0.2503447339242756 5.257813174589527 6.7812579450589245 0.779320137238832 0.6492631978180302 -1.0565647622234513
Ni 9.300154017277594 6.442697275999673 4.302742249103655 -1.965435845780944 3.795519565180418 3.1277104860394007
P 0.21441101455385797 2.8937080789978373 3.4384179597955398 -0.3931589543564519 -0.29667085203003096 -1.0618391232485132
P 7.59673234592771 8.838592149504537 12.954385728384601 -1.7042806701590196 2.648715252643419 -0.007188804438955362
P 2.046980405111219 3.4411386729887536 10.751681983104326 0.9915677885267762 1.5114949842504293 -0.025511256897227032
Ni 6.262642134821948 0.47339012413752785 9.749178808850493 0.6033890609937349 -0.5009411415394533 0.03918412639862929
