# total energy = -340862.72509280447 ev
CRYSTAL
PRIMVEC
9.30254974636289 0.00000000000000 0.00000000000000

0.00000000000000 9.30254974636289 0.00000000000000

0.00000000000000 0.00000000000000 13.61522186994266

PRIMCOORD
 96 1
Ni 1.239034482568824 4.97423138915524 5.8136999725729 0.9116944119389009 1.8032534865805072 -0.17581794770600043
Ni 7.316101726292241 6.040833813215766 10.313121790520203 -1.4380802188037038 0.728761450454674 0.318313112890155
Ni 3.988896037986842 3.252803896983141 10.69050855102789 -0.5927804322399534 0.27474139894679134 1.4102403137733004
Ni 1.7487304751091861 0.8357029113587396 7.387605773428842 -1.181054234858805 0.0879219579239647 1.4037068835301567
Ni 0.9895121959175468 3.4377013718920173 7.758784012365076 1.3807322770118542 -0.9783659451245214 -0.3571717376285655
Ni 3.380546507440411 1.0540904949121843 11.393503150978145 0.2798609795615438 1.1122826246110458 -0.2917435899317427
Ni -0.1855440021027868 5.471610806087867 12.572036642021265 -0.8135374065504892 -0.49942727599808817 -0.8197869870046268
Ni 0.23893505500538306 7.072579584102436 10.761048854030832 -0.46455694648346446 -1.1755842128831688 0.4116019915529879
Ni 0.45481746196429373 8.368210778149708 12.803168718461869 0.4150287578463498 -0.19843259978172278 0.28747118780863395
Ni 0.5348779941794407 0.40638652848318124 4.6569642156415965 0.021542759167782255 1.1835556611244198 -1.5988348444186786
Ni 6.786349436916322 7.2922592917887465 1.1783344164826945 -1.0022517506031836 0.4881748430127205 0.8313379250670199
Ni 2.494106560566452 8.969732237324479 5.6701951221535865 1.0133092939689259 -4.995092941889333 0.22065310174282002
Ni 5.988888376513654 3.869014081901579 12.983040025847439 1.2683886957104158 -2.055419571329944 -1.5299971568196746
Ni 5.958031819647447 1.612596964955408 12.179959295260002 -0.5648227706847627 2.6636726452842 -1.7297896130634016
Ni 0.8297027668972673 0.8914075083350852 11.28746803990203 2.0489869283307227 0.2330026244471084 0.4257098917092797
Ni 7.592638616844473 0.3934792409788511 12.926794950742082 3.1708026892431844 0.7574001972372891 1.27596805071957
Ni 0.3740397031786359 7.443183855731271 5.260064317475455 0.749535963997864 -0.01717805444118332 1.2988704092390404
Ni 8.68697194112151 5.792530160555888 7.361967946861682 2.379666018985399 -1.1329748628530747 -0.23436325224006088
Ni 8.330991277389472 5.946738524490505 4.12816264682996 -0.5117397748168541 -0.43516280959206355 -0.5367157280359015
Ni 3.5422527263144796 2.3956855862991993 7.206250709389622 1.7489864977068266 0.6897994673691797 1.5350136361976594
Ni 8.30572555280442 9.083437300506768 1.6376664057448993 -0.22469050503698723 1.0402410853627633 -1.353966835992552
Ni 7.229011257380141 2.3871179381611896 1.1964250845977726 0.3297146698588773 0.21670388728708487 -0.780423654715656
Ni 5.060270669967887 9.019221800944685 12.809867484394745 -0.9819806590589734 -1.1065210395369203 1.2430373614298205
Ni 4.873838274382821 7.351125825358045 10.930245485804713 0.8239663151932971 -0.5701747790252955 -0.31489688811975447
P 7.749172618167257 4.1016894513129705 5.181395446673387 0.3877961473826418 2.0695621813789127 0.7483524852127241
P 4.075949296700731 3.4309477209167785 13.352025653854106 -2.4057151506639665 -1.1117506633669758 -0.6548689740405819
P 9.074376617242466 5.09504360019577 9.781066189875041 0.8174074310288568 -0.6879575290644345 -0.7562087480323493
P 1.788182587762061 2.305190384250822 9.82948223927687 1.6488335449343088 0.026037047493709994 0.46289678517222216
P 9.23331067634984 7.9366562018517754 3.055337747373652 0.32574154414374223 -0.5565011381929448 1.5499108650244662
P 6.321342892426988 5.843740695843339 3.0050974680045455 -0.13892698821692204 0.0017033558443519052 -0.692049439745621
P 6.297426037527073 0.48043947419721367 0.9137885123038547 -1.1294586221697 -0.8372290937404742 0.809913693754973
P 6.883961089372492 6.5147708052756625 7.245272113998209 -3.341954341821767 1.110001541886353 -0.06629178124869874
Ni 6.601517079854315 1.8866872849752874 7.14411060863274 0.2422395696643441 -0.6954810911349893 0.3275744835874229
Ni 1.8009735933969826 4.432357877712191 10.163858661927785 -1.1542610259253605 -0.7362929829450288 0.15294464265225274
Ni 2.6785389079976945 7.396112954994758 1.3286738500583557 0.9232445786703456 -0.8657727097061219 -1.0562390034529163
Ni 8.132149280701144 3.5566716781211185 8.467919225275049 -0.7486095955288528 -0.12964170626025415 0.25133279021486393
Ni 5.15440316889136 3.6871957508946367 1.64008971990337 0.17102952517842157 -0.14298933121175375 1.2238024244596086
Ni 7.680091885189127 2.151642501334445 4.590018417785804 0.29692179169857247 -1.1855721773338164 -0.4666727072748866
Ni 3.1059352446455817 5.517611913625822 11.705142282012421 0.5951864705782847 0.1314659039531865 0.9761805074374286
Ni 4.382738078398248 -0.00029582107577491763 1.7594135230154726 -0.22653475733457762 0.397615961686541 -0.6076447509462954
Ni 1.2912589957575156 9.331015354301538 1.2007777475334669 1.421711033417061 -1.7771092240849717 2.4244970592571597
Ni 5.50635582866709 1.0616813753471634 5.049314127104753 -0.9300932261610627 -0.09085584374130805 0.6729271170938733
Ni 3.3174287087255423 5.004427465003207 0.937049537460307 -0.15245587594129228 0.9099170083235039 -0.06695306898178147
Ni 5.758947956670748 8.929005675382886 9.313600981538938 0.69815349576083 1.5339790242855582 -0.4826138039851753
Ni 7.8537053674906145 8.267919991422367 8.508219730447127 0.6965972070173035 -0.7690668349419401 -1.0357830495914098
Ni 8.088464508001802 9.245301662723232 6.016756954463544 -1.1906647613653754 -1.1903215190933436 0.621899975313729
Ni 3.5638439438262277 4.505829414079181 8.581933133102487 0.30248411627769844 1.0615331619723203 -0.4390012095015472
Ni 8.610318932807505 3.975751535468919 2.674941612085677 -0.388192354379796 0.2673109108106751 1.0900027301669226
Ni 8.674246053333457 2.52294446417973 11.861499534893706 -1.6904710179694373 1.4530957183759297 -0.9543772955194079
Ni 6.903822032667443 8.453273291259324 11.33625154001119 -0.18906041453820344 -0.38441308984302186 -3.4798423472512137
Ni 1.6172389371821905 6.455522867174706 3.392028644353272 -0.5526442263406998 -1.2346403956153769 -0.9310627891631836
Ni 5.326528243264419 3.173257795758257 8.864393887209859 1.3626538222435887 -1.344850989734213 -0.5210643946518897
Ni 0.1329343633626148 1.906845909855924 2.043658506127047 -1.0547318227797706 0.6844135204669181 2.103494829570616
Ni 5.7145096774576425 3.8689210564060525 4.2726610095414985 0.39576451030009907 -0.4563417576625238 -0.01385336094332453
Ni 5.934682420270244 8.20763016777151 6.335312531090233 0.201486299006382 -0.3291778235188008 -0.4914244602982698
Ni 1.4671795103480647 8.488297390325128 9.479203108165665 -1.0115308619122645 -0.19476774933562588 -1.21777138777418
P 4.564156399774425 0.1004405577751372 7.343356335971654 -1.1221595174051253 1.4701143644211134 0.0020887642082286608
P 0.8614281818916942 7.9544147689478235 7.4439866657576665 -0.19382698268891135 -0.45974615535838237 -1.1871580337636973
P 1.6309601977723793 6.291202631876336 13.373782456747891 1.062658533826015 0.20811331740459643 -0.8753698664762538
P 8.905349291870445 3.5660207404215525 13.72060383019037 -0.649596412787733 0.04246408270148171 0.5683793776877696
P 5.283885356114978 5.113964985985901 10.378420106850216 0.085231298465679 -0.6930321153738644 -0.4358924886692364
P 2.6952648920933955 0.6622745497933508 13.388337225778 0.5125949237282978 -0.6391358795760412 -0.8783906555804485
P 6.229294164603315 1.9251719324746848 3.0594215666272744 -1.6766816774948285 -0.05787116128517131 -0.06538058228833901
P 3.0458035643371204 6.962102505614922 9.934577792848165 -1.467980348797246 -0.9864577209937204 -2.9388318484947
Ni 0.63126729162439 3.0023327502774917 4.968262873362247 -0.9899055703330047 -0.6403167872580198 -0.09815083474082452
Ni 4.78761294257912 5.857554981929054 5.991582394864108 -0.16001646189736957 -0.3114462105669927 -0.42153364884440314
Ni 0.5210274281504698 1.6400859988835488 -0.06517273191105331 -0.7148718369567753 -0.5905188898992862 -2.1070753478330224
Ni 4.785203582244978 7.6363978099402345 3.3824293434698713 1.0488290841420906 0.0319140750997773 0.36932508516164786
Ni 7.259728276003059 4.959161258879914 0.89348011637542 0.872978997646574 0.3594872731356196 1.151652127547604
Ni 6.871142176088912 9.091902620599697 3.5080844618075213 0.0462366623700365 -0.08520455899280165 0.44572592981989045
Ni 4.104610451872508 5.454056895081977 3.4535826844883366 -0.19254091688763617 -0.8474615701017598 -0.28975638429838485
Ni 0.9619394390434318 4.815995021264317 1.2084663047387492 0.932455298635336 -2.1287888282507144 0.6310888409018487
Ni 6.331082661808634 4.378244946964307 7.174527154905106 0.5009156876181566 0.45279749195469116 -1.6019757040405054
Ni 5.04125625868223 6.771893274911472 8.595725093069277 1.250514386533156 -1.3113744552433222 0.09920601547821624
Ni 3.3323593007575782 7.322390249789846 7.245926083231761 -1.3583284553953574 0.5887664259845538 -0.24046010916641816
Ni 1.5913499417771086 5.697560432172677 8.280232846010282 -0.2517297685429664 2.2976198031159205 -0.34384493861267235
Ni 2.6663153578854852 8.128911993456814 11.688708397972675 -2.5379904378923257 1.1673104029101509 -0.5938207005790096
Ni 1.908938983505275 3.33546635230817 12.316642586092344 0.4699714326308164 -0.31151717301424414 0.23269717739154763
Ni 3.460687971836666 -0.03478874456212137 9.23077945261656 1.1663732358078622 0.8323475972784568 -0.5912889352960914
Ni 2.379489847528 2.303776396718816 1.0805162474264551 2.1683624767782783 1.548151202020882 1.1219057495231064
Ni 5.811805043229022 6.017828608172011 12.893655548215648 -0.015870648483669442 2.105186358340426 -0.7896701130145884
Ni 3.893907704504525 1.968968335768657 3.3991627696052147 1.4045568902352779 0.2518999755722436 -0.8359833942588313
Ni 9.288502702845832 6.7857354686458455 1.0675419815653457 -1.376390969324023 1.9751517875171276 0.95004241558948
Ni 2.2855806097937927 3.9265968636326085 3.371673735677074 -0.2360763782764257 -0.2545764939631422 -0.02695518843260519
Ni 0.022947529236527257 1.407875756949791 9.01380771710503 -0.7026457272042286 0.2653869543150849 -1.134373542972814
Ni 2.641719416868225 1.6681517908839554 5.3477324747147765 -0.902857016152929 2.6365138254812206 -1.717503596607197
Ni 6.877477212334281 3.49654930036221 10.64710285481513 -0.3031402618044586 1.3638470712207416 0.8454178001988537
Ni 2.64090079250759 8.623454132775876 3.2575230803712114 -0.8078778942718667 1.5626558233949603 1.1916356099190768
P 7.1866846569154905 1.8063690721375314 9.462048276535585 -1.4859289628558667 -0.5908539046412018 -0.37615033561359734
P 7.807397275817421 7.435369714107027 12.839970534747188 0.32602539393274815 -2.2260595743794305 1.4038629494920467
P 1.762023818419952 1.6677238736045323 3.2767207518830572 0.5070557390776235 -0.15059876812789547 0.17360834164919134
P 3.0719995438774403 6.847178808441233 4.862554281775432 0.6624753256329301 0.7687354197444503 0.9672343539877342
P 3.948141568396593 7.163567821277105 -0.7471407791074073 1.5719071667898992 -1.3114438750286768 4.3283547272149905
P 8.794341968058431 1.8157460420866234 6.5114256084565225 1.491785935857276 0.9001743271144432 1.53860186776955
P 8.79890021733924 9.054404043352884 10.24098889103384 -1.7379513229385877 -1.0732231967157388 1.1342879252375433
P 3.7908912707582534 3.5466621348024456 5.280282478673229 -0.14522850495491763 0.7999108169059902 -0.02597302702499398
