# total energy = -340861.8295058882 ev
CRYSTAL
PRIMVEC
9.33501342775848 0.00000000000000 0.00000000000000

0.00000000000000 9.33501342775848 0.00000000000000

0.00000000000000 0.00000000000000 13.66273574914515

PRIMCOORD
 96 1
Ni 5.9569241699554425 6.734166730315152 7.76997049504237 0.2914751667617045 -0.07274525018352633 0.9755559864795521
Ni 4.456964863183263 1.9877884430938386 10.398926873475183 -0.35888332100303355 -0.3222214468056257 -0.7804177411783849
Ni 5.701732905467227 0.0326650792953567 1.3485061804851062 -1.1225912056259053 -0.737145303642995 0.4546684837251589
Ni 2.098277663069788 7.122241912204317 9.845708767977658 0.40535575353296 0.20102427176829896 -0.19509839320216724
Ni 7.361460968566575 5.781509930975377 9.518240227840087 -1.1440581172504296 0.05338278649651451 -0.21674862448209126
Ni 1.8578543899639604 5.273386475269827 2.3237303749999287 -1.8180573843625594 -0.0027963317982145387 -0.33757504644356057
Ni 7.17465801309693 0.5889852097842635 13.344872305872455 0.06977125515686693 -1.396973421461065 -0.7470113978037973
Ni 9.076088246153803 8.54931343344319 10.903956705701514 1.8134355693198316 -0.222032755699166 0.9388825423179186
Ni 0.5083026879650567 1.9511298450163164 5.522874046499738 0.9156788505079455 1.607367307369722 0.24799858363530838
Ni 8.173355099097856 6.467661429445485 7.179549560179338 0.49497823908779914 -1.0891720067355113 -0.7697201522552227
Ni 7.81573073129804 6.776641041813172 13.05311859394593 0.8699528092257406 -0.7511074222500419 -1.486495633992614
Ni 2.740853318446982 0.012184993142498027 4.840707665299631 1.33830290420305 0.9835698579229643 1.6859085954097353
Ni 5.751441852440184 1.073255838953605 4.8770367374000365 1.3205224402911773 -0.5620349235269805 -0.10608217377275923
Ni 7.60498346615973 4.229218538432229 13.719983020990531 -0.1833206838409488 -0.1415166033209692 -1.0394059910559776
Ni 7.24843262491426 3.3019343058290738 4.861078531794353 -0.07335485874306721 0.9081244351994553 -0.920176738378299
Ni 6.981096507841665 2.5493455161652485 12.048401357728505 -0.21025453211731532 1.049034001064045 0.5894557387420946
Ni 5.9724296274055995 5.166173845038012 2.5488516939502497 1.6477986759118912 2.309033958490133 1.7308339951675158
Ni 4.382219409960263 7.177271816881422 12.055341940277687 -0.7202855517731789 -0.4650881363965861 -0.8476032378859467
Ni 2.2080667570320336 2.9323517857152 0.3780736484080714 0.646967202695002 -0.8173647507163794 1.721628674519164
Ni 3.0438118470968187 2.819202086887177 5.619783622313892 0.2047495431386861 -1.5731852621713744 1.3404916843242527
Ni 6.965357675053607 8.680871778924862 3.3043735448608174 -0.10529027399908318 1.1407509072540676 1.0124487457408435
Ni 2.0590052612077723 3.5449620477058787 9.422069051595052 -0.9245116183082271 -1.2895349907707276 1.569125233169388
Ni 0.6819022003176032 7.435188905316325 1.1078168594940712 0.0015704298109134244 -1.2377231483057585 -0.16711630616694445
Ni -0.2176103670753084 1.870503333278206 13.089242295748983 0.8721253913970269 -1.5501456067430917 2.667331839303342
P 8.128677724410048 5.07191821356647 11.411184933610873 -1.130638501410414 -0.763716369263304 2.232549810089465
P 2.0978295824210176 1.0792955926984884 6.711668414240123 0.946739576468492 0.6814107290848523 -0.34528758459646985
P 8.89766813282157 7.6220758759076155 3.1885409631482817 0.8007734220166015 0.28935914885996616 -0.3050847871253391
P 2.895478482326809 0.7504071970051246 1.1098154858878573 0.035911626294944606 1.2231125974814354 0.22323191821358976
P 3.2948957056379733 8.858675781365035 10.528107591014317 -0.23722077629351404 1.4365139027578484 1.3349722971679203
P 4.544349924706992 2.698379006948962 12.383001848192338 0.020742117643357826 1.3068390292668137 -1.475312106571969
P 2.68215475345807 5.382232732866952 11.283083343634194 -1.413395057352198 0.40432525538591657 0.719172264104342
P 0.4883892371326223 7.165463024783621 8.227180787031392 -0.043694098453840875 0.6318725131454086 0.8957751696054831
Ni 2.3584351547485416 2.914484569845483 11.852437019994207 0.8884696370830053 1.0380664463089477 -1.1979204144865239
Ni 9.287937042887007 4.331203561095059 5.865453173015738 -2.2018930044355565 -0.3375323661310832 1.665750118183989
Ni 0.7980344359640038 4.92429430982368 13.309062260523541 -1.3436505416682085 -0.4977177495061493 -1.6143218843106844
Ni 5.659538644374687 3.4423982542050546 6.484075183710752 -2.5508228137703037 -0.16378338513896953 -0.1679313458690721
Ni 2.878591442876277 1.0469964459329608 8.775069533312603 -0.07913007066394759 0.312588551701552 0.5487284362260614
Ni 0.11419335333911736 3.5381381528256477 1.4426068507322811 0.7465210884309401 -3.2567248431283007 1.4829580531530009
Ni 7.48348826524836 2.130642154929928 7.214266475445523 1.267268466063043 0.00539366021174555 -0.27767039966812823
Ni 1.935232316998486 4.696155914504972 5.034663108125272 0.6127656171126286 -0.9964598265117547 -1.096153580259667
Ni 1.8806504929701509 4.283146911514441 7.415532167355582 0.2310627271119182 0.5859145583580554 -1.9347430446827774
Ni 7.121868511663676 7.345908836048838 1.4644815879044373 1.3680084016872827 -0.9324460426639554 1.8197838801353627
Ni -0.01835357007390284 3.156653490478812 11.474717168598396 -0.646651471226796 3.0799990388960503 -2.4890785426829716
Ni 5.388393841787544 4.996547314437895 0.3197820900084586 2.04747023457588 1.6687783634873516 -3.101620473820568
Ni 0.23122828479251986 5.534225422935253 9.996928518926833 2.973210583084886 0.24530046797785496 -0.3444332070159746
Ni 0.17694424769534656 9.170362547652378 4.572029173283428 -0.5785043819369133 -0.662019469042434 -0.7450357621346653
Ni 2.623801583969251 5.872582322837944 0.34940955590569306 2.6247358590096863 0.14224731083940662 -1.2258839895789857
Ni 9.142357507104231 3.7659591576848093 8.345486213824328 -0.4478373197359384 -0.023122702060392436 -0.3717450074570501
Ni 4.9066698043053805 2.219287443278324 0.656084353436268 -0.8494361773296274 -0.9637880473103466 -1.270950800010637
Ni 0.5034307444110311 1.201210869218081 8.166927942292057 -0.7157123305801996 1.1334741710869964 0.5188666156696224
Ni 4.137268655299152 1.2987524254472713 2.912581160589561 -1.1470789063546245 -1.8216422735003401 0.3111122242663416
Ni 3.990354212583582 5.491303030788463 7.72363988946087 1.005996048136964 -1.3278832515316228 2.229953253006882
Ni 4.365687101023341 7.794316210292225 6.5168924237264205 -0.4420024582217162 0.8649725824023297 -2.1581523690144957
Ni 1.4619751367753782 1.2272555569278563 2.9405348585633684 0.3569961312826497 0.5688974549747686 -0.6968463469136321
Ni 8.836617144426613 8.881313189141453 6.722680929685005 -0.6269555354597655 -0.27717751919210976 0.21390061351033482
Ni 1.895539839528248 0.5523135426878187 12.534084374442825 0.5458961089835889 -0.93853775738399 1.834183086279828
P 2.899408523017065 6.142084163046264 6.228144586152065 0.2892053968909213 0.8135965419231987 -0.5652518878023813
P 4.776633066026826 8.720806966746517 3.9028972714557786 -0.5131453969151292 -1.1892977058145195 -0.4947026168289093
P 6.971873514487809 4.414341191468987 7.74431227689216 1.938278568639862 1.638758934307126 0.3361933356046855
P 4.809146918103223 2.897438835165179 4.4615530223264015 -0.1484791506817314 1.1358406144366437 -0.04697791141143522
P 8.436835855588324 1.1116787545856606 9.92055317234393 -0.4655612193782627 1.080453653025907 -0.11908090002527234
P 7.90597230695768 1.2311015824964682 5.2482668873994935 -0.8033093010645779 -1.8271140952481886 -0.25205809841666266
P 8.808621438891985 5.411264624901864 1.3888446408906547 -0.29096608833576987 3.470557322404862 0.05502495008562781
P 6.954631744523668 5.595920527262817 4.591526282513047 1.2797768829426992 0.1315180973473606 -0.3964455955275237
Ni 1.9436524991899617 8.349777519537655 7.091329014945923 0.714057568585596 -0.8984807414621042 0.5243368947555743
Ni 2.8845658515265478 3.321463154104647 3.256389708385625 0.5444133537904753 -1.0069823233096336 -1.2215244270587091
Ni 1.1947323698379433 7.134508119964405 12.17669431548226 0.6356348084013183 -0.29289158749325683 0.36956111243185386
Ni 3.574880766024814 5.441780784085825 3.6878456315852195 2.742158140385613 1.7614486347295792 0.4175237563540616
Ni 1.8496302430563218 8.175502152206548 3.264847230631165 -0.2709593061965398 -2.069827776335474 -2.2610592303830677
Ni 6.458242400807792 0.8656470053593911 10.768421644462007 -0.2230887077675061 -0.39102365318100396 -1.5016006079548525
Ni 1.0195421711822623 1.2773752444955202 10.726586781389836 1.0047074112325276 0.3961784579090661 -2.485768761583448
Ni 8.041049952534902 2.0534042530981433 2.964458631202297 1.3286548395903246 -0.6132942359225889 1.9812702417100394
Ni 4.3885578841376605 8.456840789553215 8.678884354547295 0.5780207574322755 -0.16730991023498928 1.3289741706029563
Ni 5.088161137084395 5.81769244336358 5.534582953952918 0.16885154369049632 -0.4492758519546779 0.2742017243932374
Ni 8.797186047334824 0.09718309171017389 1.6841101849019153 -0.3559553487229612 0.15940222535213838 -0.47377178021351307
Ni 9.395784454037916 5.549525510088057 3.8652286249158205 -2.2816802490675285 -0.2605658787773577 -1.7456710601803487
Ni 5.753411540292071 4.563850767942018 11.79878309630937 0.5725808173636269 0.381430353065614 -1.470779508808938
Ni 7.120020178987498 3.10237038688299 9.457359136691121 -0.6302601743529661 -0.7219040612132084 1.4871003574561485
Ni 7.91688493775794 8.525173088490689 8.927341340285034 -0.3021408740056668 -1.0343674001908059 -1.1432168522960569
Ni 4.480162371770644 7.155455890294418 2.07821111801569 0.024260158098945314 0.40548867956639845 0.20015549601010044
Ni 5.56180105286166 3.014201184223913 2.4870828430159087 2.012474435226986 0.40129006810401857 1.9940306266995012
Ni 1.1637121199241145 6.753396858158212 5.424611827227109 -2.1968888663527455 2.8375715215906165 0.28729301035955684
Ni 6.931200860598386 7.772080208096997 5.549762619431364 -0.6850228719161429 -0.5637927867583516 0.1824555076271761
Ni 4.314577902022976 0.4903075824101702 12.599542422718706 0.7729581995765462 -0.6911462112050613 -0.7919740785574166
Ni 4.0853473101228905 4.363465367806522 10.021726048830864 1.144926635898312 0.8707912459666357 -0.2244133401162006
Ni 6.952391341279816 8.091879101129786 11.064028849967954 -1.7895417934213695 -2.0440347265317698 1.0855140982679499
Ni 4.552639416709243 0.8463823379663219 6.898028890069108 -0.46756925094722707 0.9280700250834467 0.7020908831420232
Ni 2.9931693987722556 8.145742129117384 0.312925522580921 -0.034822764106140026 -0.00398443856904475 -0.027684867509778124
P 4.5662125263615785 2.818623316049182 8.250652745016144 -1.4694530766880305 0.29476000816056336 1.3816586454808657
P 4.088203824258802 4.615099992145124 1.6260025262685687 -4.8301975546331075 -0.8693303451503931 3.4150916852373894
P 5.4851512568813865 6.726624039394185 10.102185463827036 -0.3797660779893137 -0.3190016543167474 -0.825725721086565
P 7.299905889441751 2.24395988400124 1.109605448083746 -0.3841567508578416 -0.004188841270366979 -2.003329021282292
P 5.6268194220009375 7.4051114917676175 0.08817387016583554 -0.9901166579025464 0.7081098356425934 -0.6830027561623205
P 0.7554154317564847 3.2700272296312205 3.655191754306082 -0.7403247298122412 0.10278447685809394 -0.11527875267036275
P 0.021076593516534167 8.840416494927645 13.15717412260662 -0.5349887180424657 0.30300887843291685 0.07599589591034009
P 6.423842876001154 0.5328407044933418 8.128658120881664 -1.2125852155875503 -1.0812589225360216 0.21719985308689693
